REMARK  Name = 
REMARK  3 active torsions:
REMARK  status: ('A' for Active; 'I' for Inactive)
REMARK    1  A    between atoms: C_2  and  C_23
REMARK    2  A    between atoms: C_10  and  C_17
REMARK    3  A    between atoms: C_26  and  C_29
REMARK                            x       y       z     vdW  Elec       q    Type
REMARK                         _______ _______ _______ _____ _____    ______ ____
ROOT
ATOM      1  O   UNL     1       0.411  -3.512   0.000  0.00  0.00    -0.270 OA
ATOM      2  C   UNL     1       0.171  -2.668   0.000  0.00  0.00    +0.249 C 
ATOM      3  N   UNL     1       0.813  -2.091   0.000  0.00  0.00    -0.276 N 
ATOM      4  C   UNL     1       1.629  -1.912   0.000  0.00  0.00    +0.096 C 
ATOM      5  C   UNL     1       1.582  -0.925   0.000  0.00  0.00    +0.043 C 
ATOM      6  C   UNL     1       1.713  -0.121   0.000  0.00  0.00    +0.011 C 
ATOM      7  C   UNL     1       1.163  -0.557   0.000  0.00  0.00    +0.058 C 
ATOM      8  C   UNL     1       1.225  -1.510   0.000  0.00  0.00    +0.099 C 
ATOM      9  C   UNL     1       0.244  -0.558   0.000  0.00  0.00    +0.041 A 
ATOM     10  C   UNL     1      -0.397  -0.039   0.000  0.00  0.00    +0.015 A 
ATOM     11  C   UNL     1      -1.167  -0.335   0.000  0.00  0.00    +0.006 A 
ATOM     12  C   UNL     1      -1.213  -1.232   0.000  0.00  0.00    +0.061 A 
ATOM     13  C   UNL     1      -0.655  -1.669   0.000  0.00  0.00    +0.261 A 
ATOM     14  O   UNL     1      -0.755  -2.707   0.000  0.00  0.00    -0.267 OA
ATOM     15  N   UNL     1       0.115  -1.373   0.000  0.00  0.00    -0.299 N 
ATOM     16  C   UNL     1       0.622  -0.936   0.000  0.00  0.00    +0.110 C 
ENDROOT
BRANCH  10  17
ATOM     17  C   UNL     1      -0.268   0.776   0.000  0.00  0.00    +0.039 A 
ATOM     18  C   UNL     1      -0.909   1.295   0.000  0.00  0.00    +0.102 A 
ATOM     19  N   UNL     1      -0.780   2.110   0.000  0.00  0.00    -0.222 NA
ATOM     20  C   UNL     1      -0.010   2.406   0.000  0.00  0.00    +0.199 A 
ATOM     21  N   UNL     1       0.631   1.887   0.000  0.00  0.00    -0.222 NA
ATOM     22  C   UNL     1       0.502   1.072   0.000  0.00  0.00    +0.102 A 
ENDBRANCH  10  17
BRANCH   2  23
ATOM     23  C   UNL     1      -0.614  -2.179   0.000  0.00  0.00    +0.054 A 
ATOM     24  C   UNL     1      -1.301  -2.635   0.000  0.00  0.00    +0.005 A 
ATOM     25  C   UNL     1      -2.040  -2.267   0.000  0.00  0.00    +0.010 A 
ATOM     26  C   UNL     1      -2.091  -1.444   0.000  0.00  0.00    +0.068 A 
ATOM     27  C   UNL     1      -1.403  -0.988   0.000  0.00  0.00    +0.010 A 
ATOM     28  C   UNL     1      -0.664  -1.356   0.000  0.00  0.00    +0.005 A 
BRANCH  26  29
ATOM     29  C   UNL     1      -2.829  -1.076   0.000  0.00  0.00    +0.100 C 
ATOM     30  N   UNL     1      -3.567  -0.708   0.000  0.00  0.00    -0.191 NA
ENDBRANCH  26  29
ENDBRANCH   2  23
TORSDOF 3
