REMARK  Name = 
REMARK  5 active torsions:
REMARK  status: ('A' for Active; 'I' for Inactive)
REMARK    1  A    between atoms: N_4  and  C_5
REMARK    2  A    between atoms: C_8  and  C_11
REMARK    3  A    between atoms: C_11  and  C_13
REMARK    4  A    between atoms: N_19  and  C_20
REMARK    5  A    between atoms: C_20  and  C_21
REMARK                            x       y       z     vdW  Elec       q    Type
REMARK                         _______ _______ _______ _____ _____    ______ ____
ROOT
ATOM     13  C   UNL     1       0.000  -4.125   0.000  0.00  0.00    +0.140 C 
ATOM     14  C   UNL     1       0.000  -4.950   0.000  0.00  0.00    +0.165 C 
ATOM     15  O   UNL     1       0.715  -5.362   0.000  0.00  0.00    -0.343 OA
ATOM     16  C   UNL     1       1.429  -4.950   0.000  0.00  0.00    +0.227 C 
ATOM     17  C   UNL     1       1.429  -4.125   0.000  0.00  0.00    +0.256 C 
ATOM     18  O   UNL     1       2.143  -3.712   0.000  0.00  0.00    -0.272 OA
ATOM     19  N   UNL     1       0.715  -3.712   0.000  0.00  0.00    -0.270 N 
ENDROOT
BRANCH  13  11
ATOM     11  C   UNL     1      -0.715  -3.712   0.000  0.00  0.00    +0.195 C 
ATOM     12  O   UNL     1      -1.429  -4.125   0.000  0.00  0.00    -0.216 OA
BRANCH  11   8
ATOM      5  C   UNL     1      -0.715  -1.238   0.000  0.00  0.00    +0.073 A 
ATOM      6  C   UNL     1       0.000  -1.650   0.000  0.00  0.00    +0.016 A 
ATOM      7  C   UNL     1       0.000  -2.475   0.000  0.00  0.00    -0.000 A 
ATOM      8  C   UNL     1      -0.715  -2.888   0.000  0.00  0.00    +0.010 A 
ATOM      9  C   UNL     1      -1.429  -2.475   0.000  0.00  0.00    -0.000 A 
ATOM     10  C   UNL     1      -1.429  -1.650   0.000  0.00  0.00    +0.016 A 
BRANCH   5   4
ATOM      1  C   UNL     1      -1.429   0.825   0.000  0.00  0.00    +0.097 C 
ATOM      2  C   UNL     1      -1.429   0.000   0.000  0.00  0.00    +0.246 C 
ATOM      3  O   UNL     1      -2.143  -0.412   0.000  0.00  0.00    -0.273 OA
ATOM      4  N   UNL     1      -0.715  -0.412   0.000  0.00  0.00    -0.179 NA
ENDBRANCH   5   4
ENDBRANCH  11   8
ENDBRANCH  13  11
BRANCH  19  20
ATOM     20  C   UNL     1       0.715  -2.888   0.000  0.00  0.00    +0.120 C 
BRANCH  20  21
ATOM     21  C   UNL     1       1.429  -2.475   0.000  0.00  0.00    -0.002 A 
ATOM     22  C   UNL     1       1.429  -1.650   0.000  0.00  0.00    -0.000 A 
ATOM     23  C   UNL     1       2.143  -1.238   0.000  0.00  0.00    +0.029 A 
ATOM     24  C   UNL     1       2.858  -1.650   0.000  0.00  0.00    +0.140 A 
ATOM     25  F   UNL     1       3.572  -1.238   0.000  0.00  0.00    -0.204 F 
ATOM     26  C   UNL     1       2.858  -2.475   0.000  0.00  0.00    +0.029 A 
ATOM     27  C   UNL     1       2.143  -2.888   0.000  0.00  0.00    -0.000 A 
ENDBRANCH  20  21
ENDBRANCH  19  20
TORSDOF 5
