REMARK  Name = 
REMARK  3 active torsions:
REMARK  status: ('A' for Active; 'I' for Inactive)
REMARK    1  A    between atoms: N_3  and  C_4
REMARK    2  A    between atoms: N_10  and  C_11
REMARK    3  A    between atoms: C_21  and  C_23
REMARK                            x       y       z     vdW  Elec       q    Type
REMARK                         _______ _______ _______ _____ _____    ______ ____
ROOT
ATOM     11  C   UNL     1      -1.296  -1.150   0.000  0.00  0.00    +0.131 A 
ATOM     12  C   UNL     1      -1.167  -0.335   0.000  0.00  0.00    +0.023 A 
ATOM     13  C   UNL     1      -0.397  -0.039   0.000  0.00  0.00    +0.014 A 
ATOM     14  C   UNL     1       0.244  -0.558   0.000  0.00  0.00    +0.041 A 
ATOM     15  C   UNL     1       1.163  -0.557   0.000  0.00  0.00    +0.058 C 
ATOM     16  C   UNL     1       1.713  -0.121   0.000  0.00  0.00    +0.011 C 
ATOM     17  C   UNL     1       1.582  -0.925   0.000  0.00  0.00    +0.043 C 
ATOM     18  C   UNL     1       1.629  -1.912   0.000  0.00  0.00    +0.096 C 
ATOM     19  N   UNL     1       0.813  -2.091   0.000  0.00  0.00    -0.275 N 
ATOM     20  C   UNL     1       1.225  -1.510   0.000  0.00  0.00    +0.100 C 
ATOM     21  C   UNL     1       0.125  -2.547   0.000  0.00  0.00    +0.255 C 
ATOM     22  O   UNL     1      -0.614  -2.179   0.000  0.00  0.00    -0.269 OA
ATOM     28  C   UNL     1       0.622  -0.936   0.000  0.00  0.00    +0.110 C 
ATOM     29  N   UNL     1       0.115  -1.373   0.000  0.00  0.00    -0.298 N 
ATOM     30  C   UNL     1      -0.655  -1.669   0.000  0.00  0.00    +0.276 A 
ATOM     31  O   UNL     1      -1.029  -2.404   0.000  0.00  0.00    -0.266 OA
ENDROOT
BRANCH  21  23
ATOM     23  C   UNL     1       0.176  -3.370   0.000  0.00  0.00    +0.083 A 
ATOM     24  C   UNL     1       0.872  -3.813   0.000  0.00  0.00    +0.012 A 
ATOM     25  C   UNL     1       0.665  -4.612   0.000  0.00  0.00    +0.008 A 
ATOM     26  C   UNL     1      -0.158  -4.663   0.000  0.00  0.00    +0.036 A 
ATOM     27  S   UNL     1      -0.461  -3.896   0.000  0.00  0.00    -0.082 S 
ENDBRANCH  21  23
BRANCH  11  10
ATOM      1  O   UNL     1      -3.478  -1.222   0.000  0.00  0.00    -0.248 OA
ATOM      2  C   UNL     1      -2.707  -0.926   0.000  0.00  0.00    +0.348 C 
ATOM      3  N   UNL     1      -2.578  -0.111   0.000  0.00  0.00    -0.161 NA
ATOM     10  N   UNL     1      -2.066  -1.445   0.000  0.00  0.00    -0.156 NA
BRANCH   3   4
ATOM      4  C   UNL     1      -3.220   0.408   0.000  0.00  0.00    +0.075 A 
ATOM      5  C   UNL     1      -3.990   0.112   0.000  0.00  0.00    +0.017 A 
ATOM      6  C   UNL     1      -4.631   0.631   0.000  0.00  0.00    +0.001 A 
ATOM      7  C   UNL     1      -4.502   1.446   0.000  0.00  0.00    +0.000 A 
ATOM      8  C   UNL     1      -3.732   1.742   0.000  0.00  0.00    +0.001 A 
ATOM      9  C   UNL     1      -3.091   1.223   0.000  0.00  0.00    +0.017 A 
ENDBRANCH   3   4
ENDBRANCH  11  10
TORSDOF 3
