REMARK  Name = 
REMARK  7 active torsions:
REMARK  status: ('A' for Active; 'I' for Inactive)
REMARK    1  A    between atoms: C_5  and  C_8
REMARK    2  A    between atoms: N_10  and  C_11
REMARK    3  A    between atoms: C_11  and  C_12
REMARK    4  A    between atoms: C_14  and  C_15
REMARK    5  A    between atoms: C_15  and  C_16
REMARK    6  A    between atoms: N_18  and  C_19
REMARK    7  A    between atoms: C_19  and  C_20
REMARK                            x       y       z     vdW  Elec       q    Type
REMARK                         _______ _______ _______ _____ _____    ______ ____
ROOT
ATOM     12  C   UNL     1       1.352   4.768   0.000  0.00  0.00    +0.170 C 
ATOM     13  O   UNL     1       1.904   5.381   0.000  0.00  0.00    -0.351 OA
ATOM     14  C   UNL     1       2.658   5.046   0.000  0.00  0.00    +0.157 C 
ATOM     22  C   UNL     1       2.571   4.225   0.000  0.00  0.00    +0.212 C 
ATOM     23  O   UNL     1       3.185   3.673   0.000  0.00  0.00    -0.218 OA
ATOM     24  C   UNL     1       1.764   4.054   0.000  0.00  0.00    +0.213 C 
ATOM     25  O   UNL     1       1.429   3.300   0.000  0.00  0.00    -0.218 OA
ENDROOT
BRANCH  12  11
ATOM     11  C   UNL     1       0.531   4.854   0.000  0.00  0.00    +0.148 C 
BRANCH  11  10
ATOM      8  C   UNL     1      -0.774   4.273   0.000  0.00  0.00    +0.265 C 
ATOM      9  O   UNL     1      -1.109   5.027   0.000  0.00  0.00    -0.268 OA
ATOM     10  N   UNL     1       0.047   4.187   0.000  0.00  0.00    -0.199 NA
BRANCH   8   5
ATOM      1  C   UNL     1      -2.714   1.603   0.000  0.00  0.00    +0.031 C 
ATOM      2  C   UNL     1      -2.229   2.271   0.000  0.00  0.00    -0.022 A 
ATOM      3  C   UNL     1      -2.564   3.025   0.000  0.00  0.00    -0.004 A 
ATOM      4  C   UNL     1      -2.079   3.692   0.000  0.00  0.00    +0.004 A 
ATOM      5  C   UNL     1      -1.259   3.606   0.000  0.00  0.00    +0.055 A 
ATOM      6  C   UNL     1      -0.923   2.852   0.000  0.00  0.00    +0.004 A 
ATOM      7  C   UNL     1      -1.408   2.185   0.000  0.00  0.00    -0.004 A 
ENDBRANCH   8   5
ENDBRANCH  11  10
ENDBRANCH  12  11
BRANCH  14  15
ATOM     15  C   UNL     1       3.372   5.458   0.000  0.00  0.00    +0.119 C 
BRANCH  15  16
ATOM     16  C   UNL     1       4.087   5.046   0.000  0.00  0.00    +0.245 C 
ATOM     17  O   UNL     1       4.087   4.221   0.000  0.00  0.00    -0.273 OA
ATOM     18  N   UNL     1       4.801   5.458   0.000  0.00  0.00    -0.191 NA
BRANCH  18  19
ATOM     19  C   UNL     1       5.516   5.046   0.000  0.00  0.00    +0.191 C 
BRANCH  19  20
ATOM     20  C   UNL     1       6.230   5.458   0.000  0.00  0.00    -0.054 C 
ATOM     21  C   UNL     1       6.944   5.871   0.000  0.00  0.00    -0.012 C 
ENDBRANCH  19  20
ENDBRANCH  18  19
ENDBRANCH  15  16
ENDBRANCH  14  15
TORSDOF 7
