REMARK  Name = 
REMARK  8 active torsions:
REMARK  status: ('A' for Active; 'I' for Inactive)
REMARK    1  A    between atoms: C_5  and  C_6
REMARK    2  A    between atoms: C_6  and  C_7
REMARK    3  A    between atoms: C_9  and  C_12
REMARK    4  A    between atoms: C_15  and  O_16
REMARK    5  A    between atoms: O_16  and  C_17
REMARK    6  A    between atoms: C_24  and  C_25
REMARK    7  A    between atoms: C_25  and  N_26
REMARK    8  A    between atoms: C_27  and  C_29
REMARK                            x       y       z     vdW  Elec       q    Type
REMARK                         _______ _______ _______ _____ _____    ______ ____
ROOT
ATOM      7  C   UNL     1       0.302  -2.507   0.000  0.00  0.00    +0.239 A 
ATOM      8  N   UNL     1       0.047  -1.722   0.000  0.00  0.00    -0.191 NA
ATOM      9  C   UNL     1       0.715  -1.238   0.000  0.00  0.00    +0.203 A 
ATOM     10  N   UNL     1       1.382  -1.722   0.000  0.00  0.00    -0.056 NA
ATOM     11  O   UNL     1       1.127  -2.507   0.000  0.00  0.00    -0.337 OA
ENDROOT
BRANCH   9  12
ATOM     12  C   UNL     1       0.715  -0.412   0.000  0.00  0.00    +0.039 A 
ATOM     13  C   UNL     1       0.000   0.000   0.000  0.00  0.00    +0.006 A 
ATOM     14  C   UNL     1       0.000   0.825   0.000  0.00  0.00    +0.037 A 
ATOM     15  C   UNL     1       0.715   1.238   0.000  0.00  0.00    +0.147 A 
ATOM     21  C   UNL     1       1.429   0.825   0.000  0.00  0.00    +0.037 A 
ATOM     22  C   UNL     1       1.429   0.000   0.000  0.00  0.00    +0.006 A 
BRANCH  15  16
ATOM     16  O   UNL     1       0.715   2.062   0.000  0.00  0.00    -0.404 OA
BRANCH  16  17
ATOM     17  C   UNL     1       1.429   2.475   0.000  0.00  0.00    +0.575 C 
ATOM     18  F   UNL     1       2.143   2.888   0.000  0.00  0.00    -0.133 F 
ATOM     19  F   UNL     1       1.016   3.189   0.000  0.00  0.00    -0.133 F 
ATOM     20  F   UNL     1       1.841   1.760   0.000  0.00  0.00    -0.133 F 
ENDBRANCH  16  17
ENDBRANCH  15  16
ENDBRANCH   9  12
BRANCH   7   6
ATOM      6  C   UNL     1      -0.183  -3.175   0.000  0.00  0.00    +0.120 C 
BRANCH   6   5
ATOM      1  O   UNL     1      -2.836  -1.993   0.000  0.00  0.00    -0.218 OA
ATOM      2  C   UNL     1      -2.223  -2.545   0.000  0.00  0.00    +0.213 C 
ATOM      3  C   UNL     1      -1.416  -2.374   0.000  0.00  0.00    +0.212 C 
ATOM      4  O   UNL     1      -1.080  -1.620   0.000  0.00  0.00    -0.218 OA
ATOM      5  C   UNL     1      -1.003  -3.088   0.000  0.00  0.00    +0.157 C 
ATOM     23  O   UNL     1      -1.556  -3.701   0.000  0.00  0.00    -0.351 OA
ATOM     24  C   UNL     1      -2.309  -3.366   0.000  0.00  0.00    +0.170 C 
BRANCH  24  25
ATOM     25  C   UNL     1      -3.024  -3.778   0.000  0.00  0.00    +0.147 C 
BRANCH  25  26
ATOM     26  N   UNL     1      -3.738  -3.366   0.000  0.00  0.00    -0.203 NA
ATOM     27  C   UNL     1      -4.453  -3.778   0.000  0.00  0.00    +0.241 C 
ATOM     28  O   UNL     1      -5.167  -3.366   0.000  0.00  0.00    -0.273 OA
BRANCH  27  29
ATOM     29  C   UNL     1      -4.453  -4.603   0.000  0.00  0.00    +0.078 C 
ATOM     30  C   UNL     1      -4.040  -5.318   0.000  0.00  0.00    +0.010 C 
ATOM     31  C   UNL     1      -4.865  -5.318   0.000  0.00  0.00    +0.010 C 
ENDBRANCH  27  29
ENDBRANCH  25  26
ENDBRANCH  24  25
ENDBRANCH   6   5
ENDBRANCH   7   6
TORSDOF 8
