REMARK  Name = 
REMARK  5 active torsions:
REMARK  status: ('A' for Active; 'I' for Inactive)
REMARK    1  A    between atoms: C_2  and  C_5
REMARK    2  A    between atoms: C_8  and  C_11
REMARK    3  A    between atoms: C_14  and  C_16
REMARK    4  A    between atoms: N_21  and  C_22
REMARK    5  A    between atoms: C_22  and  C_23
REMARK                            x       y       z     vdW  Elec       q    Type
REMARK                         _______ _______ _______ _____ _____    ______ ____
ROOT
ATOM     16  C   UNL     1       2.070   1.110   0.000  0.00  0.00    +0.144 C 
ATOM     17  C   UNL     1       1.356   0.698   0.000  0.00  0.00    +0.073 C 
ATOM     18  C   UNL     1       0.641   1.110   0.000  0.00  0.00    +0.077 A 
ATOM     19  C   UNL     1       0.641   1.935   0.000  0.00  0.00    +0.090 A 
ATOM     20  C   UNL     1       1.356   2.348   0.000  0.00  0.00    +0.121 C 
ATOM     21  N   UNL     1       2.070   1.935   0.000  0.00  0.00    -0.256 NA
ATOM     29  N   UNL     1      -0.143   2.190   0.000  0.00  0.00    -0.226 NA
ATOM     30  C   UNL     1      -0.628   1.523   0.000  0.00  0.00    +0.198 A 
ATOM     31  N   UNL     1      -0.143   0.856   0.000  0.00  0.00    -0.227 NA
ENDROOT
BRANCH  16  14
ATOM     11  C   UNL     1       3.678  -0.294   0.000  0.00  0.00    +0.203 A 
ATOM     12  N   UNL     1       4.090   0.420   0.000  0.00  0.00    -0.056 NA
ATOM     13  O   UNL     1       3.538   1.034   0.000  0.00  0.00    -0.336 OA
ATOM     14  C   UNL     1       2.784   0.698   0.000  0.00  0.00    +0.251 A 
ATOM     15  N   UNL     1       2.871  -0.122   0.000  0.00  0.00    -0.190 NA
BRANCH  11   8
ATOM      5  C   UNL     1       4.684  -2.555   0.000  0.00  0.00    +0.071 A 
ATOM      6  C   UNL     1       3.864  -2.469   0.000  0.00  0.00    +0.004 A 
ATOM      7  C   UNL     1       3.528  -1.715   0.000  0.00  0.00    +0.003 A 
ATOM      8  C   UNL     1       4.013  -1.048   0.000  0.00  0.00    +0.039 A 
ATOM      9  C   UNL     1       4.834  -1.134   0.000  0.00  0.00    +0.003 A 
ATOM     10  C   UNL     1       5.169  -1.888   0.000  0.00  0.00    +0.004 A 
BRANCH   5   2
ATOM      1  F   UNL     1       5.356  -4.062   0.000  0.00  0.00    -0.166 F 
ATOM      2  C   UNL     1       5.020  -3.309   0.000  0.00  0.00    +0.419 C 
ATOM      3  F   UNL     1       5.774  -2.973   0.000  0.00  0.00    -0.166 F 
ATOM      4  F   UNL     1       4.266  -3.644   0.000  0.00  0.00    -0.166 F 
ENDBRANCH   5   2
ENDBRANCH  11   8
ENDBRANCH  16  14
BRANCH  21  22
ATOM     22  C   UNL     1       2.784   2.348   0.000  0.00  0.00    +0.119 C 
BRANCH  22  23
ATOM     23  C   UNL     1       2.784   3.173   0.000  0.00  0.00    +0.075 A 
ATOM     24  N   UNL     1       2.070   3.585   0.000  0.00  0.00    -0.247 NA
ATOM     25  C   UNL     1       2.070   4.410   0.000  0.00  0.00    +0.098 A 
ATOM     26  C   UNL     1       2.784   4.823   0.000  0.00  0.00    +0.021 A 
ATOM     27  C   UNL     1       3.499   4.410   0.000  0.00  0.00    +0.003 A 
ATOM     28  C   UNL     1       3.499   3.585   0.000  0.00  0.00    +0.016 A 
ENDBRANCH  22  23
ENDBRANCH  21  22
TORSDOF 5
