REMARK  Name = 
REMARK  3 active torsions:
REMARK  status: ('A' for Active; 'I' for Inactive)
REMARK    1  A    between atoms: O_2  and  C_3
REMARK    2  A    between atoms: C_7  and  N_11
REMARK    3  A    between atoms: C_12  and  C_14
REMARK                            x       y       z     vdW  Elec       q    Type
REMARK                         _______ _______ _______ _____ _____    ______ ____
ROOT
ATOM      3  C   UNL     1       1.270  -0.922   0.000  0.00  0.00    +0.174 C 
ATOM      4  C   UNL     1       0.785  -0.255   0.000  0.00  0.00    +0.174 C 
ATOM      5  O   UNL     1       1.270   0.412   0.000  0.00  0.00    -0.349 OA
ATOM      6  C   UNL     1       2.054   0.158   0.000  0.00  0.00    +0.167 C 
ATOM      7  C   UNL     1       2.839   0.412   0.000  0.00  0.00    +0.154 C 
ATOM      8  C   UNL     1       3.324  -0.255   0.000  0.00  0.00    +0.166 C 
ATOM      9  O   UNL     1       2.839  -0.922   0.000  0.00  0.00    -0.349 OA
ATOM     10  C   UNL     1       2.054  -0.667   0.000  0.00  0.00    +0.173 C 
ENDROOT
BRANCH   7  11
ATOM     11  N   UNL     1       3.094   1.197   0.000  0.00  0.00    -0.202 NA
ATOM     12  C   UNL     1       2.542   1.810   0.000  0.00  0.00    +0.241 C 
ATOM     13  O   UNL     1       1.735   1.639   0.000  0.00  0.00    -0.273 OA
BRANCH  12  14
ATOM     14  C   UNL     1       2.797   2.595   0.000  0.00  0.00    +0.078 C 
ATOM     15  C   UNL     1       2.422   3.330   0.000  0.00  0.00    +0.009 C 
ATOM     16  C   UNL     1       3.157   3.704   0.000  0.00  0.00    +0.001 C 
ATOM     17  C   UNL     1       3.532   2.969   0.000  0.00  0.00    +0.009 C 
ENDBRANCH  12  14
ENDBRANCH   7  11
BRANCH   3   2
ATOM      1  C   UNL     1       0.208  -1.879   0.000  0.00  0.00    +0.174 C 
ATOM      2  O   UNL     1       1.015  -1.707   0.000  0.00  0.00    -0.348 OA
ENDBRANCH   3   2
TORSDOF 3
