REMARK  Name = 
REMARK  7 active torsions:
REMARK  status: ('A' for Active; 'I' for Inactive)
REMARK    1  A    between atoms: C_5  and  C_6
REMARK    2  A    between atoms: C_6  and  C_7
REMARK    3  A    between atoms: C_10  and  C_11
REMARK    4  A    between atoms: C_11  and  N_12
REMARK    5  A    between atoms: C_20  and  C_21
REMARK    6  A    between atoms: C_21  and  N_22
REMARK    7  A    between atoms: C_23  and  C_25
REMARK                            x       y       z     vdW  Elec       q    Type
REMARK                         _______ _______ _______ _____ _____    ______ ____
ROOT
ATOM      1  O   UNL     1       7.038  -2.537   0.000  0.00  0.00    -0.220 OA
ATOM      2  C   UNL     1       6.324  -2.949   0.000  0.00  0.00    +0.181 C 
ATOM      3  C   UNL     1       6.324  -3.774   0.000  0.00  0.00    +0.038 C 
ATOM      4  C   UNL     1       5.609  -4.187   0.000  0.00  0.00    +0.033 C 
ATOM      5  C   UNL     1       4.895  -3.774   0.000  0.00  0.00    +0.121 C 
ATOM     19  O   UNL     1       4.895  -2.949   0.000  0.00  0.00    -0.354 OA
ATOM     20  C   UNL     1       5.609  -2.537   0.000  0.00  0.00    +0.167 C 
ENDROOT
BRANCH   5   6
ATOM      6  C   UNL     1       4.180  -4.187   0.000  0.00  0.00    +0.079 C 
BRANCH   6   7
ATOM      7  C   UNL     1       4.180  -5.012   0.000  0.00  0.00    +0.103 A 
ATOM      8  N   UNL     1       4.848  -5.497   0.000  0.00  0.00    -0.082 NA
ATOM      9  O   UNL     1       4.593  -6.281   0.000  0.00  0.00    -0.357 OA
ATOM     10  C   UNL     1       3.768  -6.281   0.000  0.00  0.00    +0.170 A 
ATOM     18  C   UNL     1       3.513  -5.497   0.000  0.00  0.00    +0.055 A 
BRANCH  10  11
ATOM     11  C   UNL     1       3.283  -6.949   0.000  0.00  0.00    +0.141 C 
BRANCH  11  12
ATOM     12  N   UNL     1       3.618  -7.702   0.000  0.00  0.00    -0.264 NA
ATOM     13  C   UNL     1       4.439  -7.788   0.000  0.00  0.00    +0.091 C 
ATOM     14  C   UNL     1       4.774  -8.542   0.000  0.00  0.00    +0.106 C 
ATOM     15  N   UNL     1       4.289  -9.210   0.000  0.00  0.00    -0.215 NA
ATOM     16  C   UNL     1       3.469  -9.123   0.000  0.00  0.00    +0.106 C 
ATOM     17  C   UNL     1       3.133  -8.370   0.000  0.00  0.00    +0.091 C 
ENDBRANCH  11  12
ENDBRANCH  10  11
ENDBRANCH   6   7
ENDBRANCH   5   6
BRANCH  20  21
ATOM     21  C   UNL     1       5.609  -1.712   0.000  0.00  0.00    +0.147 C 
BRANCH  21  22
ATOM     22  N   UNL     1       6.324  -1.299   0.000  0.00  0.00    -0.199 NA
ATOM     23  C   UNL     1       6.324  -0.474   0.000  0.00  0.00    +0.267 C 
ATOM     24  O   UNL     1       5.609  -0.062   0.000  0.00  0.00    -0.268 OA
BRANCH  23  25
ATOM     25  C   UNL     1       7.038  -0.062   0.000  0.00  0.00    +0.082 A 
ATOM     26  C   UNL     1       7.038   0.763   0.000  0.00  0.00    +0.145 A 
ATOM     27  F   UNL     1       6.324   1.176   0.000  0.00  0.00    -0.204 F 
ATOM     28  C   UNL     1       7.753   1.176   0.000  0.00  0.00    +0.030 A 
ATOM     29  C   UNL     1       8.467   0.763   0.000  0.00  0.00    +0.002 A 
ATOM     30  C   UNL     1       8.467  -0.062   0.000  0.00  0.00    +0.000 A 
ATOM     31  C   UNL     1       7.753  -0.474   0.000  0.00  0.00    +0.007 A 
ENDBRANCH  23  25
ENDBRANCH  21  22
ENDBRANCH  20  21
TORSDOF 7
