REMARK  Name = 
REMARK  6 active torsions:
REMARK  status: ('A' for Active; 'I' for Inactive)
REMARK    1  A    between atoms: N_3  and  C_4
REMARK    2  A    between atoms: C_8  and  N_12
REMARK    3  A    between atoms: C_14  and  C_17
REMARK    4  A    between atoms: N_23  and  C_24
REMARK    5  A    between atoms: C_27  and  O_28
REMARK    6  A    between atoms: O_28  and  C_29
REMARK                            x       y       z     vdW  Elec       q    Type
REMARK                         _______ _______ _______ _____ _____    ______ ____
ROOT
ATOM      4  C   UNL     1       1.270  -0.922   0.000  0.00  0.00    +0.156 C 
ATOM      5  C   UNL     1       0.785  -0.255   0.000  0.00  0.00    +0.166 C 
ATOM      6  O   UNL     1       1.270   0.412   0.000  0.00  0.00    -0.350 OA
ATOM      7  C   UNL     1       2.054   0.158   0.000  0.00  0.00    +0.169 C 
ATOM      8  C   UNL     1       2.839   0.412   0.000  0.00  0.00    +0.166 C 
ATOM      9  C   UNL     1       3.324  -0.255   0.000  0.00  0.00    +0.169 C 
ATOM     10  O   UNL     1       2.839  -0.922   0.000  0.00  0.00    -0.350 OA
ATOM     11  C   UNL     1       2.054  -0.667   0.000  0.00  0.00    +0.167 C 
ENDROOT
BRANCH   8  12
ATOM     12  N   UNL     1       3.094   1.197   0.000  0.00  0.00    -0.227 N 
ATOM     13  C   UNL     1       2.609   1.865   0.000  0.00  0.00    +0.118 A 
ATOM     14  C   UNL     1       3.094   2.532   0.000  0.00  0.00    +0.123 A 
ATOM     15  N   UNL     1       3.878   2.277   0.000  0.00  0.00    -0.129 NA
ATOM     16  N   UNL     1       3.878   1.452   0.000  0.00  0.00    -0.064 NA
BRANCH  14  17
ATOM     17  C   UNL     1       2.839   3.317   0.000  0.00  0.00    +0.021 A 
ATOM     18  C   UNL     1       2.032   3.488   0.000  0.00  0.00    +0.002 A 
ATOM     19  C   UNL     1       1.777   4.273   0.000  0.00  0.00    +0.000 A 
ATOM     20  C   UNL     1       2.329   4.886   0.000  0.00  0.00    +0.000 A 
ATOM     21  C   UNL     1       3.136   4.714   0.000  0.00  0.00    +0.000 A 
ATOM     22  C   UNL     1       3.391   3.930   0.000  0.00  0.00    +0.002 A 
ENDBRANCH  14  17
ENDBRANCH   8  12
BRANCH   4   3
ATOM      1  O   UNL     1      -0.344  -1.265   0.000  0.00  0.00    -0.249 OA
ATOM      2  C   UNL     1       0.208  -1.879   0.000  0.00  0.00    +0.344 C 
ATOM      3  N   UNL     1       1.015  -1.707   0.000  0.00  0.00    -0.184 NA
ATOM     23  N   UNL     1      -0.047  -2.663   0.000  0.00  0.00    -0.161 NA
BRANCH  23  24
ATOM     24  C   UNL     1      -0.854  -2.835   0.000  0.00  0.00    +0.075 A 
ATOM     25  C   UNL     1      -1.109  -3.619   0.000  0.00  0.00    +0.020 A 
ATOM     26  C   UNL     1      -1.916  -3.791   0.000  0.00  0.00    +0.039 A 
ATOM     27  C   UNL     1      -2.468  -3.178   0.000  0.00  0.00    +0.145 A 
ATOM     35  C   UNL     1      -2.213  -2.393   0.000  0.00  0.00    +0.039 A 
ATOM     36  C   UNL     1      -1.406  -2.222   0.000  0.00  0.00    +0.020 A 
BRANCH  27  28
ATOM     28  O   UNL     1      -3.275  -3.349   0.000  0.00  0.00    -0.453 OA
BRANCH  28  29
ATOM     29  C   UNL     1      -3.827  -2.736   0.000  0.00  0.00    +0.145 A 
ATOM     30  C   UNL     1      -4.634  -2.908   0.000  0.00  0.00    +0.037 A 
ATOM     31  C   UNL     1      -5.186  -2.295   0.000  0.00  0.00    +0.003 A 
ATOM     32  C   UNL     1      -4.931  -1.510   0.000  0.00  0.00    +0.000 A 
ATOM     33  C   UNL     1      -4.124  -1.338   0.000  0.00  0.00    +0.003 A 
ATOM     34  C   UNL     1      -3.572  -1.952   0.000  0.00  0.00    +0.037 A 
ENDBRANCH  28  29
ENDBRANCH  27  28
ENDBRANCH  23  24
ENDBRANCH   4   3
TORSDOF 6
