REMARK  Name = 
REMARK  5 active torsions:
REMARK  status: ('A' for Active; 'I' for Inactive)
REMARK    1  A    between atoms: O_2  and  C_3
REMARK    2  A    between atoms: C_6  and  C_9
REMARK    3  A    between atoms: C_15  and  N_16
REMARK    4  A    between atoms: C_17  and  C_19
REMARK    5  A    between atoms: C_19  and  C_20
REMARK                            x       y       z     vdW  Elec       q    Type
REMARK                         _______ _______ _______ _____ _____    ______ ____
ROOT
ATOM      9  C   UNL     1       2.751  -2.537   0.000  0.00  0.00    +0.048 C 
ATOM     10  C   UNL     1       2.084  -3.022   0.000  0.00  0.00    +0.042 C 
ATOM     11  C   UNL     1       2.339  -3.806   0.000  0.00  0.00    +0.184 C 
ATOM     12  O   UNL     1       1.854  -4.474   0.000  0.00  0.00    -0.220 OA
ATOM     13  C   UNL     1       3.164  -3.806   0.000  0.00  0.00    +0.202 C 
ATOM     14  O   UNL     1       3.649  -4.474   0.000  0.00  0.00    -0.219 OA
ATOM     15  C   UNL     1       3.419  -3.022   0.000  0.00  0.00    +0.132 C 
ENDROOT
BRANCH   9   6
ATOM      3  C   UNL     1       2.751  -0.062   0.000  0.00  0.00    +0.139 A 
ATOM      4  C   UNL     1       3.466  -0.474   0.000  0.00  0.00    +0.037 A 
ATOM      5  C   UNL     1       3.466  -1.299   0.000  0.00  0.00    -0.001 A 
ATOM      6  C   UNL     1       2.751  -1.712   0.000  0.00  0.00    -0.020 A 
ATOM      7  C   UNL     1       2.037  -1.299   0.000  0.00  0.00    -0.001 A 
ATOM      8  C   UNL     1       2.037  -0.474   0.000  0.00  0.00    +0.037 A 
BRANCH   3   2
ATOM      1  C   UNL     1       2.037   1.176   0.000  0.00  0.00    +0.252 C 
ATOM      2  O   UNL     1       2.751   0.763   0.000  0.00  0.00    -0.471 OA
ENDBRANCH   3   2
ENDBRANCH   9   6
BRANCH  15  16
ATOM     16  N   UNL     1       4.203  -2.767   0.000  0.00  0.00    -0.204 NA
ATOM     17  C   UNL     1       4.816  -3.319   0.000  0.00  0.00    +0.246 C 
ATOM     18  O   UNL     1       4.645  -4.126   0.000  0.00  0.00    -0.273 OA
BRANCH  17  19
ATOM     19  C   UNL     1       5.601  -3.064   0.000  0.00  0.00    +0.113 C 
BRANCH  19  20
ATOM     20  C   UNL     1       6.214  -3.616   0.000  0.00  0.00    -0.013 A 
ATOM     21  C   UNL     1       6.999  -3.361   0.000  0.00  0.00    -0.003 A 
ATOM     22  C   UNL     1       7.612  -3.913   0.000  0.00  0.00    +0.011 A 
ATOM     23  C   UNL     1       7.440  -4.720   0.000  0.00  0.00    +0.058 A 
ATOM     24 CL   UNL     1       8.053  -5.272   0.000  0.00  0.00    -0.082 Cl
ATOM     25  C   UNL     1       6.656  -4.975   0.000  0.00  0.00    +0.011 A 
ATOM     26  C   UNL     1       6.043  -4.423   0.000  0.00  0.00    -0.003 A 
ENDBRANCH  19  20
ENDBRANCH  17  19
ENDBRANCH  15  16
TORSDOF 5
