REMARK  Name = 
REMARK  9 active torsions:
REMARK  status: ('A' for Active; 'I' for Inactive)
REMARK    1  A    between atoms: S_2  and  C_3
REMARK    2  A    between atoms: C_3  and  C_4
REMARK    3  A    between atoms: C_8  and  N_24
REMARK    4  A    between atoms: C_10  and  C_11
REMARK    5  A    between atoms: N_13  and  C_14
REMARK    6  A    between atoms: C_14  and  C_15
REMARK    7  A    between atoms: C_14  and  C_21
REMARK    8  A    between atoms: C_15  and  C_16
REMARK    9  A    between atoms: N_27  and  C_28
REMARK                            x       y       z     vdW  Elec       q    Type
REMARK                         _______ _______ _______ _____ _____    ______ ____
ROOT
ATOM      4  C   UNL     1      -4.172  -6.317   0.000  0.00  0.00    +0.237 C 
ATOM      5  O   UNL     1      -4.507  -5.564   0.000  0.00  0.00    -0.274 OA
ATOM      6  N   UNL     1      -3.351  -6.404   0.000  0.00  0.00    -0.270 N 
ATOM      7  C   UNL     1      -2.799  -5.790   0.000  0.00  0.00    +0.116 C 
ATOM      8  C   UNL     1      -2.046  -6.126   0.000  0.00  0.00    +0.119 C 
ATOM      9  C   UNL     1      -2.132  -6.947   0.000  0.00  0.00    +0.053 C 
ATOM     10  C   UNL     1      -2.939  -7.118   0.000  0.00  0.00    +0.155 C 
ENDROOT
BRANCH   8  24
ATOM     24  N   UNL     1      -1.331  -5.713   0.000  0.00  0.00    -0.187 NA
ATOM     25  C   UNL     1      -0.617  -6.126   0.000  0.00  0.00    +0.339 C 
ATOM     26  O   UNL     1      -0.617  -6.951   0.000  0.00  0.00    -0.249 OA
ATOM     27  N   UNL     1       0.098  -5.713   0.000  0.00  0.00    -0.189 NA
BRANCH  27  28
ATOM     28  C   UNL     1       0.812  -6.126   0.000  0.00  0.00    +0.097 C 
ATOM     29  C   UNL     1       1.527  -5.713   0.000  0.00  0.00    +0.023 C 
ATOM     30  C   UNL     1       0.812  -6.951   0.000  0.00  0.00    +0.023 C 
ENDBRANCH  27  28
ENDBRANCH   8  24
BRANCH  10  11
ATOM     11  C   UNL     1      -3.274  -7.872   0.000  0.00  0.00    +0.260 C 
ATOM     12  O   UNL     1      -2.789  -8.539   0.000  0.00  0.00    -0.272 OA
ATOM     13  N   UNL     1      -4.095  -7.958   0.000  0.00  0.00    -0.196 NA
BRANCH  13  14
ATOM     14  C   UNL     1      -4.430  -8.712   0.000  0.00  0.00    +0.179 C 
BRANCH  14  21
ATOM     21  C   UNL     1      -3.945  -9.379   0.000  0.00  0.00    +0.281 C 
ATOM     22  N   UNL     1      -3.125  -9.293   0.000  0.00  0.00    -0.086 NA
ATOM     23  O   UNL     1      -4.281 -10.133   0.000  0.00  0.00    -0.270 OA
ENDBRANCH  14  21
BRANCH  14  15
ATOM     15  C   UNL     1      -5.251  -8.798   0.000  0.00  0.00    +0.064 C 
BRANCH  15  16
ATOM     16  C   UNL     1      -5.586  -9.552   0.000  0.00  0.00    +0.010 A 
ATOM     17  C   UNL     1      -5.174 -10.266   0.000  0.00  0.00    +0.003 A 
ATOM     18  C   UNL     1      -5.726 -10.879   0.000  0.00  0.00    +0.007 A 
ATOM     19  C   UNL     1      -6.479 -10.543   0.000  0.00  0.00    +0.035 A 
ATOM     20  S   UNL     1      -6.393  -9.723   0.000  0.00  0.00    -0.091 S 
ENDBRANCH  15  16
ENDBRANCH  14  15
ENDBRANCH  13  14
ENDBRANCH  10  11
BRANCH   4   3
ATOM      3  C   UNL     1      -4.657  -6.985   0.000  0.00  0.00    +0.143 C 
BRANCH   3   2
ATOM      1  C   UNL     1      -5.962  -7.566   0.000  0.00  0.00    +0.070 C 
ATOM      2  S   UNL     1      -5.477  -6.899   0.000  0.00  0.00    -0.130 S 
ENDBRANCH   3   2
ENDBRANCH   4   3
TORSDOF 9
