REMARK  Name = 
REMARK  5 active torsions:
REMARK  status: ('A' for Active; 'I' for Inactive)
REMARK    1  A    between atoms: C_8  and  C_10
REMARK    2  A    between atoms: C_10  and  C_11
REMARK    3  A    between atoms: C_11  and  C_12
REMARK    4  A    between atoms: N_21  and  C_22
REMARK    5  A    between atoms: C_22  and  C_23
REMARK                            x       y       z     vdW  Elec       q    Type
REMARK                         _______ _______ _______ _____ _____    ______ ____
ROOT
ATOM     12  C   UNL     1       4.157   1.774   0.000  0.00  0.00    +0.080 C 
ATOM     13  C   UNL     1       4.515   1.030   0.000  0.00  0.00    +0.131 C 
ATOM     14  N   UNL     1       4.157   0.287   0.000  0.00  0.00    -0.203 NA
ATOM     15  C   UNL     1       3.353   0.104   0.000  0.00  0.00    +0.257 C 
ATOM     16  O   UNL     1       3.169  -0.701   0.000  0.00  0.00    -0.272 OA
ATOM     17  C   UNL     1       2.708   0.618   0.000  0.00  0.00    +0.152 C 
ATOM     18  C   UNL     1       2.708   1.443   0.000  0.00  0.00    +0.083 C 
ATOM     19  C   UNL     1       1.923   1.698   0.000  0.00  0.00    +0.035 C 
ATOM     20  C   UNL     1       1.438   1.030   0.000  0.00  0.00    +0.074 C 
ATOM     21  N   UNL     1       1.923   0.363   0.000  0.00  0.00    -0.260 NA
ATOM     28  N   UNL     1       3.353   1.957   0.000  0.00  0.00    -0.271 NA
ATOM     29  C   UNL     1       3.169   2.762   0.000  0.00  0.00    +0.090 C 
ENDROOT
BRANCH  12  11
ATOM     11  C   UNL     1       4.671   2.419   0.000  0.00  0.00    +0.027 C 
BRANCH  11  10
ATOM     10  C   UNL     1       5.487   2.296   0.000  0.00  0.00    +0.087 C 
BRANCH  10   8
ATOM      1  C   UNL     1       9.265   2.449   0.000  0.00  0.00    +0.090 C 
ATOM      2  N   UNL     1       8.449   2.572   0.000  0.00  0.00    -0.269 NA
ATOM      3  C   UNL     1       7.934   1.927   0.000  0.00  0.00    +0.094 C 
ATOM      4  C   UNL     1       7.119   2.050   0.000  0.00  0.00    +0.111 C 
ATOM      5  N   UNL     1       6.817   2.818   0.000  0.00  0.00    -0.277 N 
ATOM      6  C   UNL     1       7.332   3.463   0.000  0.00  0.00    +0.111 C 
ATOM      7  C   UNL     1       8.147   3.340   0.000  0.00  0.00    +0.094 C 
ATOM      8  C   UNL     1       6.002   2.941   0.000  0.00  0.00    +0.226 C 
ATOM      9  O   UNL     1       5.700   3.709   0.000  0.00  0.00    -0.275 OA
ENDBRANCH  10   8
ENDBRANCH  11  10
ENDBRANCH  12  11
BRANCH  21  22
ATOM     22  C   UNL     1       1.668  -0.422   0.000  0.00  0.00    +0.121 C 
BRANCH  22  23
ATOM     23  C   UNL     1       0.861  -0.593   0.000  0.00  0.00    +0.105 A 
ATOM     24  C   UNL     1       0.525  -1.347   0.000  0.00  0.00    +0.074 A 
ATOM     25  S   UNL     1      -0.295  -1.260   0.000  0.00  0.00    +0.038 S 
ATOM     26  N   UNL     1      -0.467  -0.454   0.000  0.00  0.00    -0.110 NA
ATOM     27  N   UNL     1       0.248  -0.041   0.000  0.00  0.00    -0.143 NA
ENDBRANCH  22  23
ENDBRANCH  21  22
TORSDOF 5
