REMARK  Name = 
REMARK  3 active torsions:
REMARK  status: ('A' for Active; 'I' for Inactive)
REMARK    1  A    between atoms: O_2  and  C_3
REMARK    2  A    between atoms: C_8  and  N_9
REMARK    3  A    between atoms: N_12  and  C_15
REMARK                            x       y       z     vdW  Elec       q    Type
REMARK                         _______ _______ _______ _____ _____    ______ ____
ROOT
ATOM      9  N   UNL     1       0.771  -3.258   0.000  0.00  0.00    -0.302 N 
ATOM     10  C   UNL     1       0.239  -2.628   0.000  0.00  0.00    +0.108 C 
ATOM     11  C   UNL     1       0.519  -1.852   0.000  0.00  0.00    +0.094 C 
ATOM     12  N   UNL     1       1.331  -1.706   0.000  0.00  0.00    -0.265 NA
ATOM     13  C   UNL     1       1.863  -2.337   0.000  0.00  0.00    +0.094 C 
ATOM     14  C   UNL     1       1.583  -3.113   0.000  0.00  0.00    +0.108 C 
ENDROOT
BRANCH  12  15
ATOM     15  C   UNL     1       1.611  -0.930   0.000  0.00  0.00    +0.147 C 
ATOM     16  C   UNL     1       0.640  -0.930   0.000  0.00  0.00    +0.253 C 
ATOM     17  O   UNL     1       0.120  -1.643   0.000  0.00  0.00    -0.327 OA
ATOM     18  C   UNL     1       0.740  -1.266   0.000  0.00  0.00    +0.176 C 
ATOM     19  C   UNL     1       1.060  -0.557   0.000  0.00  0.00    +0.167 C 
ATOM     20  O   UNL     1       0.500  -0.117   0.000  0.00  0.00    -0.328 OA
ATOM     21  C   UNL     1       1.989  -0.542   0.000  0.00  0.00    +0.153 C 
ATOM     22  N   UNL     1       2.517   0.093   0.000  0.00  0.00    -0.128 NA
ATOM     23  C   UNL     1       2.127  -1.359   0.000  0.00  0.00    +0.191 C 
ATOM     24  O   UNL     1       2.539  -2.074   0.000  0.00  0.00    -0.220 OA
ENDBRANCH  12  15
BRANCH   9   8
ATOM      3  C   UNL     1       1.022  -4.665   0.000  0.00  0.00    +0.152 A 
ATOM      4  C   UNL     1       0.742  -5.441   0.000  0.00  0.00    +0.038 A 
ATOM      5  C   UNL     1      -0.070  -5.586   0.000  0.00  0.00    +0.003 A 
ATOM      6  C   UNL     1      -0.602  -4.955   0.000  0.00  0.00    +0.001 A 
ATOM      7  C   UNL     1      -0.322  -4.180   0.000  0.00  0.00    +0.018 A 
ATOM      8  C   UNL     1       0.490  -4.034   0.000  0.00  0.00    +0.082 A 
BRANCH   3   2
ATOM      1  C   UNL     1       2.366  -5.150   0.000  0.00  0.00    +0.253 C 
ATOM      2  O   UNL     1       1.835  -4.520   0.000  0.00  0.00    -0.470 OA
ENDBRANCH   3   2
ENDBRANCH   9   8
TORSDOF 3
