REMARK  Name = 
REMARK  5 active torsions:
REMARK  status: ('A' for Active; 'I' for Inactive)
REMARK    1  A    between atoms: N_2  and  C_4
REMARK    2  A    between atoms: C_7  and  C_10
REMARK    3  A    between atoms: C_13  and  C_15
REMARK    4  A    between atoms: N_19  and  C_20
REMARK    5  A    between atoms: C_20  and  C_21
REMARK                            x       y       z     vdW  Elec       q    Type
REMARK                         _______ _______ _______ _____ _____    ______ ____
ROOT
ATOM     10  C   UNL     1       0.381  -2.790   0.000  0.00  0.00    +0.205 A 
ATOM     11  N   UNL     1      -0.287  -3.275   0.000  0.00  0.00    -0.056 NA
ATOM     12  O   UNL     1      -0.032  -4.060   0.000  0.00  0.00    -0.336 OA
ATOM     13  C   UNL     1       0.793  -4.060   0.000  0.00  0.00    +0.251 A 
ATOM     14  N   UNL     1       1.048  -3.275   0.000  0.00  0.00    -0.190 NA
ENDROOT
BRANCH  10   7
ATOM      4  C   UNL     1       0.381  -0.315   0.000  0.00  0.00    +0.132 A 
ATOM      5  C   UNL     1       1.095  -0.728   0.000  0.00  0.00    +0.034 A 
ATOM      6  C   UNL     1       1.095  -1.553   0.000  0.00  0.00    +0.008 A 
ATOM      7  C   UNL     1       0.381  -1.965   0.000  0.00  0.00    +0.058 A 
ATOM      8  C   UNL     1      -0.334  -1.553   0.000  0.00  0.00    +0.103 A 
ATOM      9  N   UNL     1      -0.334  -0.728   0.000  0.00  0.00    -0.229 NA
BRANCH   4   2
ATOM      1  C   UNL     1      -0.334   0.922   0.000  0.00  0.00    +0.114 C 
ATOM      2  N   UNL     1       0.381   0.510   0.000  0.00  0.00    -0.290 N 
ATOM      3  C   UNL     1       1.095   0.922   0.000  0.00  0.00    +0.114 C 
ENDBRANCH   4   2
ENDBRANCH  10   7
BRANCH  13  15
ATOM     15  C   UNL     1       1.278  -4.727   0.000  0.00  0.00    +0.138 C 
ATOM     16  C   UNL     1       1.023  -5.512   0.000  0.00  0.00    +0.027 C 
ATOM     17  C   UNL     1       1.690  -5.997   0.000  0.00  0.00    +0.019 C 
ATOM     18  C   UNL     1       2.358  -5.512   0.000  0.00  0.00    +0.073 C 
ATOM     19  N   UNL     1       2.103  -4.727   0.000  0.00  0.00    -0.263 NA
BRANCH  19  20
ATOM     20  C   UNL     1       2.588  -4.060   0.000  0.00  0.00    +0.100 C 
BRANCH  20  21
ATOM     21  C   UNL     1       3.408  -4.146   0.000  0.00  0.00    -0.004 A 
ATOM     22  C   UNL     1       3.893  -3.479   0.000  0.00  0.00    +0.029 A 
ATOM     23  C   UNL     1       4.714  -3.565   0.000  0.00  0.00    +0.167 A 
ATOM     24  F   UNL     1       5.199  -2.897   0.000  0.00  0.00    -0.202 F 
ATOM     25  C   UNL     1       5.049  -4.319   0.000  0.00  0.00    +0.167 A 
ATOM     26  F   UNL     1       5.870  -4.405   0.000  0.00  0.00    -0.202 F 
ATOM     27  C   UNL     1       4.564  -4.986   0.000  0.00  0.00    +0.032 A 
ATOM     28  C   UNL     1       3.744  -4.900   0.000  0.00  0.00    -0.000 A 
ENDBRANCH  20  21
ENDBRANCH  19  20
ENDBRANCH  13  15
TORSDOF 5
