REMARK  Name = 
REMARK  3 active torsions:
REMARK  status: ('A' for Active; 'I' for Inactive)
REMARK    1  A    between atoms: C_7  and  C_10
REMARK    2  A    between atoms: N_12  and  C_13
REMARK    3  A    between atoms: C_25  and  C_30
REMARK                            x       y       z     vdW  Elec       q    Type
REMARK                         _______ _______ _______ _____ _____    ______ ____
ROOT
ATOM     13  C   UNL     1       6.124   0.851   0.000  0.00  0.00    +0.099 C 
ATOM     14  C   UNL     1       5.940   1.655   0.000  0.00  0.00    +0.043 C 
ATOM     15  C   UNL     1       5.152   1.899   0.000  0.00  0.00    +0.096 C 
ATOM     16  N   UNL     1       4.547   1.337   0.000  0.00  0.00    -0.269 N 
ATOM     17  C   UNL     1       4.731   0.533   0.000  0.00  0.00    +0.156 C 
ATOM     18  C   UNL     1       5.519   0.290   0.000  0.00  0.00    +0.051 C 
ATOM     19  C   UNL     1       4.216  -0.112   0.000  0.00  0.00    +0.264 C 
ATOM     20  O   UNL     1       4.574  -0.855   0.000  0.00  0.00    -0.271 OA
ATOM     21  N   UNL     1       3.391  -0.112   0.000  0.00  0.00    -0.178 NA
ATOM     22  C   UNL     1       2.877   0.533   0.000  0.00  0.00    +0.078 A 
ATOM     23  C   UNL     1       2.088   0.290   0.000  0.00  0.00    +0.017 A 
ATOM     24  C   UNL     1       1.484   0.851   0.000  0.00  0.00    +0.004 A 
ATOM     25  C   UNL     1       1.667   1.655   0.000  0.00  0.00    +0.035 A 
ATOM     26  C   UNL     1       2.456   1.899   0.000  0.00  0.00    +0.009 A 
ATOM     27  C   UNL     1       3.060   1.337   0.000  0.00  0.00    +0.069 A 
ATOM     28  C   UNL     1       3.804   1.695   0.000  0.00  0.00    +0.251 C 
ATOM     29  O   UNL     1       3.804   2.520   0.000  0.00  0.00    -0.270 OA
ENDROOT
BRANCH  25  30
ATOM     30  C   UNL     1       1.062   2.216   0.000  0.00  0.00    +0.145 A 
ATOM     31  C   UNL     1       0.253   2.057   0.000  0.00  0.00    +0.041 A 
ATOM     32  C   UNL     1      -0.149   2.778   0.000  0.00  0.00    +0.044 A 
ATOM     33  C   UNL     1       0.412   3.382   0.000  0.00  0.00    +0.180 A 
ATOM     34  O   UNL     1       1.161   3.035   0.000  0.00  0.00    -0.450 OA
ENDBRANCH  25  30
BRANCH  13  12
ATOM     10  C   UNL     1       7.096  -0.197   0.000  0.00  0.00    +0.241 C 
ATOM     11  O   UNL     1       6.491  -0.758   0.000  0.00  0.00    -0.273 OA
ATOM     12  N   UNL     1       6.912   0.608   0.000  0.00  0.00    -0.207 NA
BRANCH  10   7
ATOM      1  C   UNL     1      10.854  -0.608   0.000  0.00  0.00    +0.095 C 
ATOM      2  C   UNL     1      10.249  -1.169   0.000  0.00  0.00    +0.226 C 
ATOM      3  O   UNL     1      10.433  -1.974   0.000  0.00  0.00    -0.275 OA
ATOM      4  N   UNL     1       9.461  -0.926   0.000  0.00  0.00    -0.280 N 
ATOM      5  C   UNL     1       8.856  -1.487   0.000  0.00  0.00    +0.094 C 
ATOM      6  C   UNL     1       8.068  -1.244   0.000  0.00  0.00    +0.031 C 
ATOM      7  C   UNL     1       7.884  -0.440   0.000  0.00  0.00    +0.082 C 
ATOM      8  C   UNL     1       8.489   0.121   0.000  0.00  0.00    +0.031 C 
ATOM      9  C   UNL     1       9.277  -0.122   0.000  0.00  0.00    +0.094 C 
ENDBRANCH  10   7
ENDBRANCH  13  12
TORSDOF 3
