REMARK  Name = 
REMARK  6 active torsions:
REMARK  status: ('A' for Active; 'I' for Inactive)
REMARK    1  A    between atoms: N_2  and  C_3
REMARK    2  A    between atoms: C_3  and  C_4
REMARK    3  A    between atoms: C_10  and  C_12
REMARK    4  A    between atoms: C_12  and  C_13
REMARK    5  A    between atoms: C_15  and  C_16
REMARK    6  A    between atoms: C_16  and  N_17
REMARK                            x       y       z     vdW  Elec       q    Type
REMARK                         _______ _______ _______ _____ _____    ______ ____
ROOT
ATOM     12  C   UNL     1       2.858  -1.650   0.000  0.00  0.00    +0.117 C 
ENDROOT
BRANCH  12  13
ATOM     13  C   UNL     1       3.572  -2.062   0.000  0.00  0.00    +0.157 C 
ATOM     14  O   UNL     1       4.326  -1.727   0.000  0.00  0.00    -0.351 OA
ATOM     15  C   UNL     1       4.878  -2.340   0.000  0.00  0.00    +0.170 C 
ATOM     21  C   UNL     1       4.466  -3.054   0.000  0.00  0.00    +0.213 C 
ATOM     22  O   UNL     1       4.801  -3.808   0.000  0.00  0.00    -0.218 OA
ATOM     23  C   UNL     1       3.659  -2.883   0.000  0.00  0.00    +0.212 C 
ATOM     24  O   UNL     1       3.046  -3.435   0.000  0.00  0.00    -0.218 OA
BRANCH  15  16
ATOM     16  C   UNL     1       5.699  -2.254   0.000  0.00  0.00    +0.147 C 
BRANCH  16  17
ATOM     17  N   UNL     1       6.034  -1.500   0.000  0.00  0.00    -0.203 NA
ATOM     18  C   UNL     1       6.855  -1.414   0.000  0.00  0.00    +0.242 C 
ATOM     19  C   UNL     1       7.190  -0.660   0.000  0.00  0.00    +0.096 C 
ATOM     20  O   UNL     1       7.340  -2.081   0.000  0.00  0.00    -0.273 OA
ENDBRANCH  16  17
ENDBRANCH  15  16
ENDBRANCH  12  13
BRANCH  12  10
ATOM      1  C   UNL     1       1.429  -0.825   0.000  0.00  0.00    +0.115 C 
ATOM      2  N   UNL     1       1.429  -1.650   0.000  0.00  0.00    -0.274 N 
ATOM     10  C   UNL     1       2.143  -2.062   0.000  0.00  0.00    +0.228 C 
ATOM     11  O   UNL     1       2.143  -2.888   0.000  0.00  0.00    -0.275 OA
BRANCH   2   3
ATOM      3  C   UNL     1       0.715  -2.062   0.000  0.00  0.00    +0.120 C 
BRANCH   3   4
ATOM      4  C   UNL     1       0.000  -1.650   0.000  0.00  0.00    -0.002 A 
ATOM      5  C   UNL     1      -0.715  -2.062   0.000  0.00  0.00    -0.003 A 
ATOM      6  C   UNL     1      -1.429  -1.650   0.000  0.00  0.00    -0.000 A 
ATOM      7  C   UNL     1      -1.429  -0.825   0.000  0.00  0.00    -0.000 A 
ATOM      8  C   UNL     1      -0.715  -0.412   0.000  0.00  0.00    -0.000 A 
ATOM      9  C   UNL     1       0.000  -0.825   0.000  0.00  0.00    -0.003 A 
ENDBRANCH   3   4
ENDBRANCH   2   3
ENDBRANCH  12  10
TORSDOF 6
