REMARK  Name = 
REMARK  3 active torsions:
REMARK  status: ('A' for Active; 'I' for Inactive)
REMARK    1  A    between atoms: N_2  and  C_4
REMARK    2  A    between atoms: C_7  and  C_8
REMARK    3  A    between atoms: C_8  and  N_9
REMARK                            x       y       z     vdW  Elec       q    Type
REMARK                         _______ _______ _______ _____ _____    ______ ____
ROOT
ATOM      8  C   UNL     1       1.854  -4.474   0.000  0.00  0.00    +0.149 C 
ENDROOT
BRANCH   8   9
ATOM      9  N   UNL     1       1.033  -4.387   0.000  0.00  0.00    -0.186 NA
ATOM     10  C   UNL     1       0.548  -5.055   0.000  0.00  0.00    +0.323 C 
ATOM     11  O   UNL     1       0.884  -5.809   0.000  0.00  0.00    -0.251 OA
ATOM     12  N   UNL     1      -0.272  -4.969   0.000  0.00  0.00    -0.258 N 
ATOM     13  C   UNL     1      -0.757  -5.636   0.000  0.00  0.00    +0.127 C 
ATOM     14  C   UNL     1      -1.577  -5.550   0.000  0.00  0.00    +0.164 C 
ATOM     15  O   UNL     1      -1.913  -4.796   0.000  0.00  0.00    -0.350 OA
ATOM     16  C   UNL     1      -1.428  -4.129   0.000  0.00  0.00    +0.164 C 
ATOM     17  C   UNL     1      -0.608  -4.215   0.000  0.00  0.00    +0.127 C 
ENDBRANCH   8   9
BRANCH   8   7
ATOM      4  C   UNL     1       2.751  -2.537   0.000  0.00  0.00    +0.121 C 
ATOM      5  C   UNL     1       3.419  -3.022   0.000  0.00  0.00    +0.161 C 
ATOM      6  O   UNL     1       3.164  -3.806   0.000  0.00  0.00    -0.350 OA
ATOM      7  C   UNL     1       2.339  -3.806   0.000  0.00  0.00    +0.169 C 
ATOM     18  C   UNL     1       2.084  -3.022   0.000  0.00  0.00    +0.198 C 
ATOM     19  O   UNL     1       1.299  -2.767   0.000  0.00  0.00    -0.219 OA
BRANCH   4   2
ATOM      1  C   UNL     1       3.466  -1.299   0.000  0.00  0.00    +0.090 C 
ATOM      2  N   UNL     1       2.751  -1.712   0.000  0.00  0.00    -0.267 NA
ATOM      3  C   UNL     1       2.037  -1.299   0.000  0.00  0.00    +0.090 C 
ENDBRANCH   4   2
ENDBRANCH   8   7
TORSDOF 3
