REMARK  Name = 
REMARK  9 active torsions:
REMARK  status: ('A' for Active; 'I' for Inactive)
REMARK    1  A    between atoms: O_2  and  C_3
REMARK    2  A    between atoms: C_6  and  C_9
REMARK    3  A    between atoms: N_11  and  C_12
REMARK    4  A    between atoms: C_12  and  C_13
REMARK    5  A    between atoms: C_15  and  C_16
REMARK    6  A    between atoms: C_16  and  C_17
REMARK    7  A    between atoms: C_20  and  C_21
REMARK    8  A    between atoms: C_21  and  O_22
REMARK    9  A    between atoms: O_22  and  C_23
REMARK                            x       y       z     vdW  Elec       q    Type
REMARK                         _______ _______ _______ _____ _____    ______ ____
ROOT
ATOM     13  C   UNL     1       3.572  -1.238   0.000  0.00  0.00    +0.167 C 
ATOM     14  O   UNL     1       2.858  -1.650   0.000  0.00  0.00    -0.354 OA
ATOM     15  C   UNL     1       2.143  -1.238   0.000  0.00  0.00    +0.121 C 
ATOM     30  C   UNL     1       2.143  -0.412   0.000  0.00  0.00    +0.033 C 
ATOM     31  C   UNL     1       2.858   0.000   0.000  0.00  0.00    +0.038 C 
ATOM     32  C   UNL     1       3.572  -0.412   0.000  0.00  0.00    +0.181 C 
ATOM     33  O   UNL     1       4.287   0.000   0.000  0.00  0.00    -0.220 OA
ENDROOT
BRANCH  13  12
ATOM     12  C   UNL     1       4.287  -1.650   0.000  0.00  0.00    +0.147 C 
BRANCH  12  11
ATOM      9  C   UNL     1       5.716  -1.650   0.000  0.00  0.00    +0.265 C 
ATOM     10  O   UNL     1       5.716  -2.475   0.000  0.00  0.00    -0.268 OA
ATOM     11  N   UNL     1       5.001  -1.238   0.000  0.00  0.00    -0.199 NA
BRANCH   9   6
ATOM      3  C   UNL     1       7.859  -0.412   0.000  0.00  0.00    +0.139 A 
ATOM      4  C   UNL     1       7.859  -1.238   0.000  0.00  0.00    +0.037 A 
ATOM      5  C   UNL     1       7.145  -1.650   0.000  0.00  0.00    +0.008 A 
ATOM      6  C   UNL     1       6.430  -1.238   0.000  0.00  0.00    +0.055 A 
ATOM      7  C   UNL     1       6.430  -0.412   0.000  0.00  0.00    +0.008 A 
ATOM      8  C   UNL     1       7.145   0.000   0.000  0.00  0.00    +0.037 A 
BRANCH   3   2
ATOM      1  C   UNL     1       8.574   0.825   0.000  0.00  0.00    +0.252 C 
ATOM      2  O   UNL     1       8.574   0.000   0.000  0.00  0.00    -0.471 OA
ENDBRANCH   3   2
ENDBRANCH   9   6
ENDBRANCH  12  11
ENDBRANCH  13  12
BRANCH  15  16
ATOM     16  C   UNL     1       1.429  -1.650   0.000  0.00  0.00    +0.079 C 
BRANCH  16  17
ATOM     17  C   UNL     1       1.429  -2.475   0.000  0.00  0.00    +0.103 A 
ATOM     18  N   UNL     1       2.096  -2.960   0.000  0.00  0.00    -0.082 NA
ATOM     19  O   UNL     1       1.841  -3.744   0.000  0.00  0.00    -0.354 OA
ATOM     20  C   UNL     1       1.016  -3.744   0.000  0.00  0.00    +0.198 A 
ATOM     29  C   UNL     1       0.761  -2.960   0.000  0.00  0.00    +0.057 A 
BRANCH  20  21
ATOM     21  C   UNL     1       0.531  -4.412   0.000  0.00  0.00    +0.272 C 
BRANCH  21  22
ATOM     22  O   UNL     1       0.867  -5.166   0.000  0.00  0.00    -0.467 OA
BRANCH  22  23
ATOM     23  C   UNL     1       0.382  -5.833   0.000  0.00  0.00    +0.139 A 
ATOM     24  C   UNL     1       0.718  -6.587   0.000  0.00  0.00    +0.037 A 
ATOM     25  C   UNL     1       0.233  -7.254   0.000  0.00  0.00    +0.003 A 
ATOM     26  C   UNL     1      -0.588  -7.168   0.000  0.00  0.00    +0.000 A 
ATOM     27  C   UNL     1      -0.923  -6.414   0.000  0.00  0.00    +0.003 A 
ATOM     28  C   UNL     1      -0.438  -5.747   0.000  0.00  0.00    +0.037 A 
ENDBRANCH  22  23
ENDBRANCH  21  22
ENDBRANCH  20  21
ENDBRANCH  16  17
ENDBRANCH  15  16
TORSDOF 9
