REMARK  Name = 
REMARK  9 active torsions:
REMARK  status: ('A' for Active; 'I' for Inactive)
REMARK    1  A    between atoms: N_2  and  C_3
REMARK    2  A    between atoms: C_3  and  C_4
REMARK    3  A    between atoms: N_6  and  C_7
REMARK    4  A    between atoms: C_9  and  C_15
REMARK    5  A    between atoms: N_17  and  C_18
REMARK    6  A    between atoms: C_18  and  C_19
REMARK    7  A    between atoms: C_18  and  C_25
REMARK    8  A    between atoms: C_19  and  C_20
REMARK    9  A    between atoms: C_20  and  S_21
REMARK                            x       y       z     vdW  Elec       q    Type
REMARK                         _______ _______ _______ _____ _____    ______ ____
ROOT
ATOM      7  C   UNL     1      -3.572  -0.412   0.000  0.00  0.00    +0.150 C 
ATOM      8  C   UNL     1      -2.858   0.000   0.000  0.00  0.00    -0.002 C 
ATOM      9  C   UNL     1      -2.143  -0.412   0.000  0.00  0.00    +0.033 C 
ATOM     10  C   UNL     1      -2.143  -1.238   0.000  0.00  0.00    +0.066 C 
ATOM     11  C   UNL     1      -2.858  -1.650   0.000  0.00  0.00    +0.189 C 
ATOM     12  O   UNL     1      -2.858  -2.475   0.000  0.00  0.00    -0.220 OA
ATOM     13  C   UNL     1      -3.572  -1.238   0.000  0.00  0.00    +0.206 C 
ATOM     14  O   UNL     1      -4.287  -1.650   0.000  0.00  0.00    -0.218 OA
ENDROOT
BRANCH   7   6
ATOM      4  C   UNL     1      -5.001  -0.412   0.000  0.00  0.00    +0.259 C 
ATOM      5  O   UNL     1      -5.001  -1.238   0.000  0.00  0.00    -0.272 OA
ATOM      6  N   UNL     1      -4.287   0.000   0.000  0.00  0.00    -0.199 NA
BRANCH   4   3
ATOM      3  C   UNL     1      -5.716   0.000   0.000  0.00  0.00    +0.175 C 
BRANCH   3   2
ATOM      1  C   UNL     1      -7.145   0.000   0.000  0.00  0.00    +0.108 C 
ATOM      2  N   UNL     1      -6.430  -0.412   0.000  0.00  0.00    -0.207 NA
ENDBRANCH   3   2
ENDBRANCH   4   3
ENDBRANCH   7   6
BRANCH   9  15
ATOM     15  C   UNL     1      -1.429   0.000   0.000  0.00  0.00    +0.261 C 
ATOM     16  O   UNL     1      -0.715  -0.412   0.000  0.00  0.00    -0.269 OA
ATOM     17  N   UNL     1      -1.429   0.825   0.000  0.00  0.00    -0.194 NA
BRANCH  17  18
ATOM     18  C   UNL     1      -0.715   1.238   0.000  0.00  0.00    +0.176 C 
BRANCH  18  25
ATOM     25  C   UNL     1       0.000   0.825   0.000  0.00  0.00    +0.281 C 
ATOM     26  N   UNL     1       0.715   1.238   0.000  0.00  0.00    -0.086 NA
ATOM     27  O   UNL     1       0.000   0.000   0.000  0.00  0.00    -0.270 OA
ENDBRANCH  18  25
BRANCH  18  19
ATOM     19  C   UNL     1      -0.715   2.062   0.000  0.00  0.00    +0.056 C 
BRANCH  19  20
ATOM     20  C   UNL     1       0.000   2.475   0.000  0.00  0.00    +0.153 C 
BRANCH  20  21
ATOM     21  S   UNL     1       0.000   3.300   0.000  0.00  0.00    -0.008 S 
ATOM     22  C   UNL     1       0.000   4.125   0.000  0.00  0.00    +0.176 C 
ATOM     23  O   UNL     1       0.825   3.300   0.000  0.00  0.00    -0.173 OA
ATOM     24  O   UNL     1      -0.825   3.300   0.000  0.00  0.00    -0.173 OA
ENDBRANCH  20  21
ENDBRANCH  19  20
ENDBRANCH  18  19
ENDBRANCH  17  18
ENDBRANCH   9  15
TORSDOF 9
