REMARK  Name = 
REMARK  7 active torsions:
REMARK  status: ('A' for Active; 'I' for Inactive)
REMARK    1  A    between atoms: C_2  and  C_4
REMARK    2  A    between atoms: C_4  and  C_5
REMARK    3  A    between atoms: C_4  and  N_13
REMARK    4  A    between atoms: C_5  and  C_6
REMARK    5  A    between atoms: C_14  and  C_16
REMARK    6  A    between atoms: C_23  and  N_25
REMARK    7  A    between atoms: C_26  and  C_28
REMARK                            x       y       z     vdW  Elec       q    Type
REMARK                         _______ _______ _______ _____ _____    ______ ____
ROOT
ATOM     16  C   UNL     1       5.664  -5.819   0.000  0.00  0.00    +0.200 C 
ATOM     17  O   UNL     1       5.133  -6.451   0.000  0.00  0.00    -0.216 OA
ATOM     18  C   UNL     1       5.946  -5.043   0.000  0.00  0.00    +0.075 C 
ATOM     19  C   UNL     1       6.758  -4.900   0.000  0.00  0.00    +0.187 C 
ATOM     20  O   UNL     1       7.040  -4.125   0.000  0.00  0.00    -0.220 OA
ATOM     21  C   UNL     1       7.289  -5.532   0.000  0.00  0.00    +0.202 C 
ATOM     22  O   UNL     1       8.101  -5.389   0.000  0.00  0.00    -0.219 OA
ATOM     23  C   UNL     1       7.006  -6.308   0.000  0.00  0.00    +0.131 C 
ATOM     24  C   UNL     1       6.194  -6.451   0.000  0.00  0.00    +0.064 C 
ENDROOT
BRANCH  16  14
ATOM     13  N   UNL     1       4.235  -5.819   0.000  0.00  0.00    -0.195 NA
ATOM     14  C   UNL     1       4.949  -5.406   0.000  0.00  0.00    +0.269 C 
ATOM     15  O   UNL     1       4.949  -4.581   0.000  0.00  0.00    -0.271 OA
BRANCH  13   4
ATOM      4  C   UNL     1       3.520  -5.406   0.000  0.00  0.00    +0.179 C 
BRANCH   4   2
ATOM      1  N   UNL     1       4.235  -4.169   0.000  0.00  0.00    -0.086 NA
ATOM      2  C   UNL     1       3.520  -4.581   0.000  0.00  0.00    +0.281 C 
ATOM      3  O   UNL     1       2.806  -4.169   0.000  0.00  0.00    -0.270 OA
ENDBRANCH   4   2
BRANCH   4   5
ATOM      5  C   UNL     1       2.806  -5.819   0.000  0.00  0.00    +0.057 C 
BRANCH   5   6
ATOM      6  C   UNL     1       2.091  -5.406   0.000  0.00  0.00    -0.020 A 
ATOM      7  C   UNL     1       1.377  -5.819   0.000  0.00  0.00    -0.001 A 
ATOM      8  C   UNL     1       0.662  -5.406   0.000  0.00  0.00    +0.042 A 
ATOM      9  C   UNL     1       0.662  -4.581   0.000  0.00  0.00    +0.196 A 
ATOM     10  O   UNL     1      -0.052  -4.169   0.000  0.00  0.00    -0.287 OA
ATOM     11  C   UNL     1       1.377  -4.169   0.000  0.00  0.00    +0.042 A 
ATOM     12  C   UNL     1       2.091  -4.581   0.000  0.00  0.00    -0.001 A 
ENDBRANCH   5   6
ENDBRANCH   4   5
ENDBRANCH  13   4
ENDBRANCH  16  14
BRANCH  23  25
ATOM     25  N   UNL     1       7.537  -6.939   0.000  0.00  0.00    -0.201 NA
ATOM     26  C   UNL     1       8.349  -6.796   0.000  0.00  0.00    +0.265 C 
ATOM     27  O   UNL     1       8.631  -6.021   0.000  0.00  0.00    -0.268 OA
BRANCH  26  28
ATOM     28  C   UNL     1       8.880  -7.428   0.000  0.00  0.00    +0.056 A 
ATOM     29  C   UNL     1       9.692  -7.285   0.000  0.00  0.00    +0.018 A 
ATOM     30  C   UNL     1      10.222  -7.917   0.000  0.00  0.00    +0.085 A 
ATOM     31 CL   UNL     1      11.035  -7.774   0.000  0.00  0.00    -0.080 Cl
ATOM     32  C   UNL     1       9.940  -8.692   0.000  0.00  0.00    +0.151 A 
ATOM     33  F   UNL     1      10.470  -9.324   0.000  0.00  0.00    -0.203 F 
ATOM     34  C   UNL     1       9.128  -8.835   0.000  0.00  0.00    +0.031 A 
ATOM     35  C   UNL     1       8.597  -8.203   0.000  0.00  0.00    +0.007 A 
ENDBRANCH  26  28
ENDBRANCH  23  25
TORSDOF 7
