REMARK  Name = 
REMARK  8 active torsions:
REMARK  status: ('A' for Active; 'I' for Inactive)
REMARK    1  A    between atoms: C_2  and  C_3
REMARK    2  A    between atoms: C_3  and  C_4
REMARK    3  A    between atoms: C_9  and  C_10
REMARK    4  A    between atoms: C_10  and  C_11
REMARK    5  A    between atoms: C_14  and  C_15
REMARK    6  A    between atoms: C_15  and  N_16
REMARK    7  A    between atoms: C_26  and  C_27
REMARK    8  A    between atoms: C_27  and  C_28
REMARK                            x       y       z     vdW  Elec       q    Type
REMARK                         _______ _______ _______ _____ _____    ______ ____
ROOT
ATOM      4  C   UNL     1       5.001  -2.888   0.000  0.00  0.00    +0.012 C 
ATOM      5  C   UNL     1       5.716  -2.475   0.000  0.00  0.00    +0.019 C 
ATOM      6  C   UNL     1       6.430  -2.888   0.000  0.00  0.00    +0.089 C 
ATOM      7  N   UNL     1       6.430  -3.712   0.000  0.00  0.00    -0.218 NA
ATOM      8  C   UNL     1       5.716  -4.125   0.000  0.00  0.00    +0.089 C 
ATOM      9  C   UNL     1       5.001  -3.712   0.000  0.00  0.00    +0.024 C 
ENDROOT
BRANCH   4   3
ATOM      3  C   UNL     1       4.287  -2.475   0.000  0.00  0.00    +0.085 C 
BRANCH   3   2
ATOM      1  O   UNL     1       3.572  -3.712   0.000  0.00  0.00    -0.275 OA
ATOM      2  C   UNL     1       3.572  -2.888   0.000  0.00  0.00    +0.226 C 
ATOM     23  N   UNL     1       2.858  -2.475   0.000  0.00  0.00    -0.280 N 
ATOM     24  C   UNL     1       2.143  -2.888   0.000  0.00  0.00    +0.093 C 
ATOM     25  C   UNL     1       1.429  -2.475   0.000  0.00  0.00    +0.022 C 
ATOM     26  C   UNL     1       1.429  -1.650   0.000  0.00  0.00    +0.008 C 
ATOM     34  C   UNL     1       2.143  -1.238   0.000  0.00  0.00    +0.022 C 
ATOM     35  C   UNL     1       2.858  -1.650   0.000  0.00  0.00    +0.093 C 
BRANCH  26  27
ATOM     27  C   UNL     1       0.715  -1.238   0.000  0.00  0.00    +0.026 C 
BRANCH  27  28
ATOM     28  C   UNL     1       0.715  -0.412   0.000  0.00  0.00    -0.022 A 
ATOM     29  C   UNL     1       0.000   0.000   0.000  0.00  0.00    -0.004 A 
ATOM     30  C   UNL     1       0.000   0.825   0.000  0.00  0.00    -0.000 A 
ATOM     31  C   UNL     1       0.715   1.238   0.000  0.00  0.00    -0.000 A 
ATOM     32  C   UNL     1       1.429   0.825   0.000  0.00  0.00    -0.000 A 
ATOM     33  C   UNL     1       1.429   0.000   0.000  0.00  0.00    -0.004 A 
ENDBRANCH  27  28
ENDBRANCH  26  27
ENDBRANCH   3   2
ENDBRANCH   4   3
BRANCH   9  10
ATOM     10  C   UNL     1       4.287  -4.125   0.000  0.00  0.00    +0.051 C 
BRANCH  10  11
ATOM     11  C   UNL     1       4.287  -4.950   0.000  0.00  0.00    +0.100 A 
ATOM     12  N   UNL     1       4.954  -5.435   0.000  0.00  0.00    -0.082 NA
ATOM     13  O   UNL     1       4.699  -6.220   0.000  0.00  0.00    -0.357 OA
ATOM     14  C   UNL     1       3.874  -6.220   0.000  0.00  0.00    +0.170 A 
ATOM     22  C   UNL     1       3.619  -5.435   0.000  0.00  0.00    +0.055 A 
BRANCH  14  15
ATOM     15  C   UNL     1       3.389  -6.887   0.000  0.00  0.00    +0.141 C 
BRANCH  15  16
ATOM     16  N   UNL     1       3.725  -7.641   0.000  0.00  0.00    -0.262 NA
ATOM     17  C   UNL     1       4.545  -7.727   0.000  0.00  0.00    +0.105 C 
ATOM     18  C   UNL     1       4.881  -8.481   0.000  0.00  0.00    +0.159 C 
ATOM     19  O   UNL     1       4.396  -9.148   0.000  0.00  0.00    -0.351 OA
ATOM     20  C   UNL     1       3.576  -9.062   0.000  0.00  0.00    +0.159 C 
ATOM     21  C   UNL     1       3.240  -8.308   0.000  0.00  0.00    +0.105 C 
ENDBRANCH  15  16
ENDBRANCH  14  15
ENDBRANCH  10  11
ENDBRANCH   9  10
TORSDOF 8
