REMARK  Name = 
REMARK  6 active torsions:
REMARK  status: ('A' for Active; 'I' for Inactive)
REMARK    1  A    between atoms: C_2  and  N_4
REMARK    2  A    between atoms: C_5  and  O_7
REMARK    3  A    between atoms: O_7  and  C_8
REMARK    4  A    between atoms: C_8  and  C_9
REMARK    5  A    between atoms: C_16  and  C_17
REMARK    6  A    between atoms: C_19  and  C_23
REMARK                            x       y       z     vdW  Elec       q    Type
REMARK                         _______ _______ _______ _____ _____    ______ ____
ROOT
ATOM      9  C   UNL     1       1.814  -2.106   0.000  0.00  0.00    +0.102 C 
ATOM     10  C   UNL     1       1.661  -1.343   0.000  0.00  0.00    +0.020 C 
ATOM     11  C   UNL     1       0.923  -1.010   0.000  0.00  0.00    +0.010 C 
ATOM     12  C   UNL     1       0.961  -0.114   0.000  0.00  0.00    +0.018 C 
ATOM     13  C   UNL     1       1.205  -0.720   0.000  0.00  0.00    +0.072 C 
ATOM     14  N   UNL     1       1.065  -1.759   0.000  0.00  0.00    -0.270 NA
ATOM     15  C   UNL     1       0.226  -2.118   0.000  0.00  0.00    +0.078 C 
ATOM     16  C   UNL     1       0.119  -1.362   0.000  0.00  0.00    +0.056 C 
ENDROOT
BRANCH  16  17
ATOM     17  C   UNL     1      -0.602  -0.960   0.000  0.00  0.00    +0.058 A 
ATOM     18  C   UNL     1      -1.350  -1.307   0.000  0.00  0.00    +0.036 A 
ATOM     19  C   UNL     1      -1.911  -0.703   0.000  0.00  0.00    +0.108 A 
ATOM     20  N   UNL     1      -1.510   0.018   0.000  0.00  0.00    -0.169 NA
ATOM     21  N   UNL     1      -0.700  -0.141   0.000  0.00  0.00    -0.253 N 
ATOM     22  C   UNL     1      -0.095   0.420   0.000  0.00  0.00    +0.153 C 
BRANCH  19  23
ATOM     23  C   UNL     1      -2.730  -0.801   0.000  0.00  0.00    +0.049 A 
ATOM     24  C   UNL     1      -3.132  -1.522   0.000  0.00  0.00    +0.009 A 
ATOM     25  C   UNL     1      -3.942  -1.362   0.000  0.00  0.00    +0.008 A 
ATOM     26  C   UNL     1      -4.040  -0.543   0.000  0.00  0.00    +0.035 A 
ATOM     27  S   UNL     1      -3.292  -0.196   0.000  0.00  0.00    -0.085 S 
ENDBRANCH  19  23
ENDBRANCH  16  17
BRANCH   9   8
ATOM      8  C   UNL     1       2.324  -2.754   0.000  0.00  0.00    +0.226 C 
BRANCH   8   7
ATOM      7  O   UNL     1       3.141  -2.636   0.000  0.00  0.00    -0.432 OA
BRANCH   7   5
ATOM      4  N   UNL     1       4.264  -1.752   0.000  0.00  0.00    -0.170 NA
ATOM      5  C   UNL     1       3.447  -1.869   0.000  0.00  0.00    +0.421 C 
ATOM      6  O   UNL     1       2.937  -1.221   0.000  0.00  0.00    -0.225 OA
BRANCH   4   2
ATOM      1  C   UNL     1       5.386  -0.867   0.000  0.00  0.00    +0.024 C 
ATOM      2  C   UNL     1       4.570  -0.985   0.000  0.00  0.00    +0.099 C 
ATOM      3  C   UNL     1       4.059  -0.337   0.000  0.00  0.00    +0.024 C 
ENDBRANCH   4   2
ENDBRANCH   7   5
ENDBRANCH   8   7
ENDBRANCH   9   8
TORSDOF 6
