REMARK  Name = 
REMARK  5 active torsions:
REMARK  status: ('A' for Active; 'I' for Inactive)
REMARK    1  A    between atoms: C_2  and  C_3
REMARK    2  A    between atoms: C_3  and  C_4
REMARK    3  A    between atoms: C_18  and  N_19
REMARK    4  A    between atoms: N_19  and  S_20
REMARK    5  A    between atoms: S_20  and  C_23
REMARK                            x       y       z     vdW  Elec       q    Type
REMARK                         _______ _______ _______ _____ _____    ______ ____
ROOT
ATOM      1  O   UNL     1       0.176  -3.370   0.000  0.00  0.00    -0.274 OA
ATOM      2  C   UNL     1       0.125  -2.547   0.000  0.00  0.00    +0.231 C 
ATOM      9  N   UNL     1       0.813  -2.091   0.000  0.00  0.00    -0.279 N 
ATOM     10  C   UNL     1       1.629  -1.912   0.000  0.00  0.00    +0.095 C 
ATOM     11  C   UNL     1       1.582  -0.925   0.000  0.00  0.00    +0.043 C 
ATOM     12  C   UNL     1       1.713  -0.121   0.000  0.00  0.00    +0.011 C 
ATOM     13  C   UNL     1       1.163  -0.557   0.000  0.00  0.00    +0.058 C 
ATOM     14  C   UNL     1       1.225  -1.510   0.000  0.00  0.00    +0.099 C 
ATOM     15  C   UNL     1       0.244  -0.558   0.000  0.00  0.00    +0.041 A 
ATOM     16  C   UNL     1      -0.397  -0.039   0.000  0.00  0.00    +0.014 A 
ATOM     17  C   UNL     1      -1.167  -0.335   0.000  0.00  0.00    +0.024 A 
ATOM     18  C   UNL     1      -1.296  -1.150   0.000  0.00  0.00    +0.147 A 
ATOM     29  C   UNL     1      -0.655  -1.669   0.000  0.00  0.00    +0.277 A 
ATOM     30  O   UNL     1      -1.238  -2.252   0.000  0.00  0.00    -0.266 OA
ATOM     31  N   UNL     1       0.115  -1.373   0.000  0.00  0.00    -0.298 N 
ATOM     32  C   UNL     1       0.622  -0.936   0.000  0.00  0.00    +0.110 C 
ENDROOT
BRANCH   2   3
ATOM      3  C   UNL     1      -0.614  -2.179   0.000  0.00  0.00    +0.118 C 
BRANCH   3   4
ATOM      4  C   UNL     1      -1.301  -2.635   0.000  0.00  0.00    +0.016 A 
ATOM      5  C   UNL     1      -2.074  -2.346   0.000  0.00  0.00    +0.003 A 
ATOM      6  C   UNL     1      -2.587  -2.992   0.000  0.00  0.00    +0.007 A 
ATOM      7  C   UNL     1      -2.132  -3.680   0.000  0.00  0.00    +0.035 A 
ATOM      8  S   UNL     1      -1.337  -3.459   0.000  0.00  0.00    -0.090 S 
ENDBRANCH   3   4
ENDBRANCH   2   3
BRANCH  18  19
ATOM     19  N   UNL     1      -2.066  -1.445   0.000  0.00  0.00    -0.092 NA
BRANCH  19  20
ATOM     20  S   UNL     1      -2.707  -0.926   0.000  0.00  0.00    +0.093 S 
ATOM     21  O   UNL     1      -2.188  -0.285   0.000  0.00  0.00    -0.148 OA
ATOM     22  O   UNL     1      -3.226  -1.567   0.000  0.00  0.00    -0.148 OA
BRANCH  20  23
ATOM     23  C   UNL     1      -3.349  -0.407   0.000  0.00  0.00    +0.127 A 
ATOM     24  C   UNL     1      -4.119  -0.703   0.000  0.00  0.00    +0.020 A 
ATOM     25  C   UNL     1      -4.760  -0.184   0.000  0.00  0.00    +0.001 A 
ATOM     26  C   UNL     1      -4.631   0.631   0.000  0.00  0.00    +0.000 A 
ATOM     27  C   UNL     1      -3.861   0.927   0.000  0.00  0.00    +0.001 A 
ATOM     28  C   UNL     1      -3.220   0.408   0.000  0.00  0.00    +0.020 A 
ENDBRANCH  20  23
ENDBRANCH  19  20
ENDBRANCH  18  19
TORSDOF 5
