REMARK  Name = 
REMARK  8 active torsions:
REMARK  status: ('A' for Active; 'I' for Inactive)
REMARK    1  A    between atoms: N_2  and  C_4
REMARK    2  A    between atoms: C_8  and  O_9
REMARK    3  A    between atoms: O_9  and  C_10
REMARK    4  A    between atoms: N_14  and  C_15
REMARK    5  A    between atoms: C_19  and  N_23
REMARK    6  A    between atoms: N_23  and  S_24
REMARK    7  A    between atoms: S_24  and  C_27
REMARK    8  A    between atoms: C_32  and  C_33
REMARK                            x       y       z     vdW  Elec       q    Type
REMARK                         _______ _______ _______ _____ _____    ______ ____
ROOT
ATOM     15  C   UNL     1       1.270  -0.922   0.000  0.00  0.00    +0.170 C 
ATOM     16  C   UNL     1       0.785  -0.255   0.000  0.00  0.00    +0.169 C 
ATOM     17  O   UNL     1       1.270   0.412   0.000  0.00  0.00    -0.350 OA
ATOM     18  C   UNL     1       2.054   0.158   0.000  0.00  0.00    +0.164 C 
ATOM     19  C   UNL     1       2.839   0.412   0.000  0.00  0.00    +0.157 C 
ATOM     20  C   UNL     1       3.324  -0.255   0.000  0.00  0.00    +0.164 C 
ATOM     21  O   UNL     1       2.839  -0.922   0.000  0.00  0.00    -0.350 OA
ATOM     22  C   UNL     1       2.054  -0.667   0.000  0.00  0.00    +0.169 C 
ENDROOT
BRANCH  15  14
ATOM     10  C   UNL     1       1.500  -2.374   0.000  0.00  0.00    +0.343 A 
ATOM     11  N   UNL     1       1.015  -3.042   0.000  0.00  0.00    -0.071 NA
ATOM     12  N   UNL     1       0.230  -2.787   0.000  0.00  0.00    -0.020 NA
ATOM     13  N   UNL     1       0.230  -1.962   0.000  0.00  0.00    -0.040 NA
ATOM     14  N   UNL     1       1.015  -1.707   0.000  0.00  0.00    -0.180 N 
BRANCH  10   9
ATOM      9  O   UNL     1       2.325  -2.374   0.000  0.00  0.00    -0.421 OA
BRANCH   9   8
ATOM      4  C   UNL     1       3.974  -3.803   0.000  0.00  0.00    +0.051 A 
ATOM      5  C   UNL     1       3.562  -4.518   0.000  0.00  0.00    +0.015 A 
ATOM      6  C   UNL     1       2.737  -4.518   0.000  0.00  0.00    +0.004 A 
ATOM      7  C   UNL     1       2.325  -3.803   0.000  0.00  0.00    +0.038 A 
ATOM      8  C   UNL     1       2.737  -3.089   0.000  0.00  0.00    +0.150 A 
ATOM     35  C   UNL     1       3.562  -3.089   0.000  0.00  0.00    +0.052 A 
BRANCH   4   2
ATOM      1  C   UNL     1       5.212  -4.518   0.000  0.00  0.00    +0.112 C 
ATOM      2  N   UNL     1       4.800  -3.803   0.000  0.00  0.00    -0.304 N 
ATOM      3  C   UNL     1       5.212  -3.089   0.000  0.00  0.00    +0.112 C 
ENDBRANCH   4   2
ENDBRANCH   9   8
ENDBRANCH  10   9
ENDBRANCH  15  14
BRANCH  19  23
ATOM     23  N   UNL     1       3.094   1.197   0.000  0.00  0.00    -0.074 NA
BRANCH  23  24
ATOM     24  S   UNL     1       3.901   1.369   0.000  0.00  0.00    +0.078 S 
ATOM     25  O   UNL     1       4.072   0.562   0.000  0.00  0.00    -0.152 OA
ATOM     26  O   UNL     1       3.729   2.176   0.000  0.00  0.00    -0.152 OA
BRANCH  24  27
ATOM     27  C   UNL     1       4.708   1.540   0.000  0.00  0.00    +0.133 A 
ATOM     28  C   UNL     1       4.963   2.325   0.000  0.00  0.00    +0.021 A 
ATOM     29  C   UNL     1       5.770   2.496   0.000  0.00  0.00    +0.001 A 
ATOM     30  C   UNL     1       6.322   1.883   0.000  0.00  0.00    +0.001 A 
ATOM     31  C   UNL     1       6.067   1.099   0.000  0.00  0.00    +0.012 A 
ATOM     32  C   UNL     1       5.260   0.927   0.000  0.00  0.00    +0.087 A 
BRANCH  32  33
ATOM     33  C   UNL     1       5.005   0.142   0.000  0.00  0.00    +0.102 C 
ATOM     34  N   UNL     1       4.750  -0.642   0.000  0.00  0.00    -0.191 NA
ENDBRANCH  32  33
ENDBRANCH  24  27
ENDBRANCH  23  24
ENDBRANCH  19  23
TORSDOF 8
