REMARK  Name = 
REMARK  3 active torsions:
REMARK  status: ('A' for Active; 'I' for Inactive)
REMARK    1  A    between atoms: C_5  and  C_9
REMARK    2  A    between atoms: C_12  and  C_14
REMARK    3  A    between atoms: N_22  and  C_23
REMARK                            x       y       z     vdW  Elec       q    Type
REMARK                         _______ _______ _______ _____ _____    ______ ____
ROOT
ATOM     14  C   UNL     1       2.070   1.110   0.000  0.00  0.00    +0.162 C 
ATOM     15  C   UNL     1       1.356   0.698   0.000  0.00  0.00    +0.077 C 
ATOM     16  C   UNL     1       0.641   1.110   0.000  0.00  0.00    +0.078 A 
ATOM     17  C   UNL     1       0.641   1.935   0.000  0.00  0.00    +0.094 A 
ATOM     18  C   UNL     1       1.356   2.348   0.000  0.00  0.00    +0.143 C 
ATOM     19  N   UNL     1       2.070   1.935   0.000  0.00  0.00    -0.249 N 
ATOM     20  C   UNL     1       2.784   2.348   0.000  0.00  0.00    +0.328 C 
ATOM     21  O   UNL     1       3.499   1.935   0.000  0.00  0.00    -0.250 OA
ATOM     22  N   UNL     1       2.784   3.173   0.000  0.00  0.00    -0.162 NA
ATOM     30  N   UNL     1      -0.143   2.190   0.000  0.00  0.00    -0.225 NA
ATOM     31  C   UNL     1      -0.628   1.523   0.000  0.00  0.00    +0.198 A 
ATOM     32  N   UNL     1      -0.143   0.856   0.000  0.00  0.00    -0.227 NA
ENDROOT
BRANCH  22  23
ATOM     23  C   UNL     1       3.499   3.585   0.000  0.00  0.00    +0.075 A 
ATOM     24  C   UNL     1       3.499   4.410   0.000  0.00  0.00    +0.018 A 
ATOM     25  C   UNL     1       4.213   4.823   0.000  0.00  0.00    +0.013 A 
ATOM     26  C   UNL     1       4.928   4.410   0.000  0.00  0.00    +0.058 A 
ATOM     27 CL   UNL     1       5.642   4.823   0.000  0.00  0.00    -0.082 Cl
ATOM     28  C   UNL     1       4.928   3.585   0.000  0.00  0.00    +0.013 A 
ATOM     29  C   UNL     1       4.213   3.173   0.000  0.00  0.00    +0.018 A 
ENDBRANCH  22  23
BRANCH  14  12
ATOM      9  C   UNL     1       4.090   0.420   0.000  0.00  0.00    +0.203 A 
ATOM     10  N   UNL     1       3.678  -0.294   0.000  0.00  0.00    -0.056 NA
ATOM     11  O   UNL     1       2.871  -0.122   0.000  0.00  0.00    -0.335 OA
ATOM     12  C   UNL     1       2.784   0.698   0.000  0.00  0.00    +0.255 A 
ATOM     13  N   UNL     1       3.538   1.034   0.000  0.00  0.00    -0.189 NA
BRANCH   9   5
ATOM      1  F   UNL     1       7.372   0.765   0.000  0.00  0.00    -0.203 F 
ATOM      2  C   UNL     1       6.552   0.679   0.000  0.00  0.00    +0.151 A 
ATOM      3  C   UNL     1       6.216  -0.075   0.000  0.00  0.00    +0.031 A 
ATOM      4  C   UNL     1       5.396  -0.161   0.000  0.00  0.00    +0.006 A 
ATOM      5  C   UNL     1       4.911   0.507   0.000  0.00  0.00    +0.040 A 
ATOM      6  C   UNL     1       5.246   1.260   0.000  0.00  0.00    +0.017 A 
ATOM      7  C   UNL     1       6.067   1.347   0.000  0.00  0.00    +0.085 A 
ATOM      8 CL   UNL     1       6.402   2.100   0.000  0.00  0.00    -0.080 Cl
ENDBRANCH   9   5
ENDBRANCH  14  12
TORSDOF 3
