REMARK  Name = 
REMARK  3 active torsions:
REMARK  status: ('A' for Active; 'I' for Inactive)
REMARK    1  A    between atoms: C_7  and  C_10
REMARK    2  A    between atoms: C_21  and  N_27
REMARK    3  A    between atoms: C_28  and  C_30
REMARK                            x       y       z     vdW  Elec       q    Type
REMARK                         _______ _______ _______ _____ _____    ______ ____
ROOT
ATOM     10  C   UNL     1       1.037  -2.497   0.000  0.00  0.00    +0.226 C 
ATOM     11  O   UNL     1       1.711  -2.972   0.000  0.00  0.00    -0.275 OA
ATOM     12  N   UNL     1       1.111  -1.675   0.000  0.00  0.00    -0.272 N 
ATOM     13  C   UNL     1       0.489  -1.132   0.000  0.00  0.00    +0.096 C 
ATOM     14  C   UNL     1       0.814  -0.374   0.000  0.00  0.00    +0.045 C 
ATOM     15  C   UNL     1       1.635  -0.448   0.000  0.00  0.00    +0.124 C 
ATOM     16  N   UNL     1       2.150   0.197   0.000  0.00  0.00    -0.204 NA
ATOM     17  C   UNL     1       2.975   0.197   0.000  0.00  0.00    +0.260 C 
ATOM     18  O   UNL     1       3.333   0.941   0.000  0.00  0.00    -0.272 OA
ATOM     19  C   UNL     1       3.489  -0.448   0.000  0.00  0.00    +0.155 C 
ATOM     20  C   UNL     1       4.311  -0.374   0.000  0.00  0.00    +0.053 C 
ATOM     21  C   UNL     1       4.635  -1.132   0.000  0.00  0.00    +0.118 C 
ATOM     22  C   UNL     1       4.014  -1.675   0.000  0.00  0.00    +0.115 C 
ATOM     23  N   UNL     1       3.305  -1.252   0.000  0.00  0.00    -0.270 N 
ATOM     24  C   UNL     1       2.562  -1.610   0.000  0.00  0.00    +0.246 C 
ATOM     25  O   UNL     1       2.562  -2.435   0.000  0.00  0.00    -0.273 OA
ATOM     26  C   UNL     1       1.819  -1.252   0.000  0.00  0.00    +0.172 C 
ENDROOT
BRANCH  10   7
ATOM      1  C   UNL     1      -2.032  -4.706   0.000  0.00  0.00    +0.095 C 
ATOM      2  C   UNL     1      -1.958  -3.884   0.000  0.00  0.00    +0.226 C 
ATOM      3  O   UNL     1      -2.632  -3.409   0.000  0.00  0.00    -0.275 OA
ATOM      4  N   UNL     1      -1.209  -3.537   0.000  0.00  0.00    -0.280 N 
ATOM      5  C   UNL     1      -1.135  -2.716   0.000  0.00  0.00    +0.094 C 
ATOM      6  C   UNL     1      -0.387  -2.369   0.000  0.00  0.00    +0.031 C 
ATOM      7  C   UNL     1       0.288  -2.844   0.000  0.00  0.00    +0.080 C 
ATOM      8  C   UNL     1       0.214  -3.665   0.000  0.00  0.00    +0.031 C 
ATOM      9  C   UNL     1      -0.534  -4.012   0.000  0.00  0.00    +0.094 C 
ENDBRANCH  10   7
BRANCH  21  27
ATOM     27  N   UNL     1       5.439  -1.316   0.000  0.00  0.00    -0.202 NA
ATOM     28  C   UNL     1       6.000  -0.711   0.000  0.00  0.00    +0.265 C 
ATOM     29  O   UNL     1       5.757   0.077   0.000  0.00  0.00    -0.268 OA
BRANCH  28  30
ATOM     30  C   UNL     1       6.805  -0.895   0.000  0.00  0.00    +0.055 A 
ATOM     31  C   UNL     1       7.366  -0.290   0.000  0.00  0.00    +0.005 A 
ATOM     32  C   UNL     1       8.170  -0.473   0.000  0.00  0.00    +0.000 A 
ATOM     33  C   UNL     1       8.413  -1.262   0.000  0.00  0.00    +0.000 A 
ATOM     34  C   UNL     1       7.852  -1.867   0.000  0.00  0.00    +0.000 A 
ATOM     35  C   UNL     1       7.048  -1.683   0.000  0.00  0.00    +0.005 A 
ENDBRANCH  28  30
ENDBRANCH  21  27
TORSDOF 3
