REMARK  Name = 
REMARK  7 active torsions:
REMARK  status: ('A' for Active; 'I' for Inactive)
REMARK    1  A    between atoms: O_2  and  C_3
REMARK    2  A    between atoms: C_6  and  C_9
REMARK    3  A    between atoms: C_11  and  C_12
REMARK    4  A    between atoms: C_12  and  C_13
REMARK    5  A    between atoms: C_18  and  C_19
REMARK    6  A    between atoms: C_19  and  C_20
REMARK    7  A    between atoms: N_22  and  C_23
REMARK                            x       y       z     vdW  Elec       q    Type
REMARK                         _______ _______ _______ _____ _____    ______ ____
ROOT
ATOM     13  C   UNL     1       1.003  -5.563   0.000  0.00  0.00    +0.024 C 
ATOM     14  C   UNL     1       1.339  -4.810   0.000  0.00  0.00    +0.089 C 
ATOM     15  N   UNL     1       2.159  -4.723   0.000  0.00  0.00    -0.218 NA
ATOM     16  C   UNL     1       2.644  -5.391   0.000  0.00  0.00    +0.089 C 
ATOM     17  C   UNL     1       2.309  -6.144   0.000  0.00  0.00    +0.019 C 
ATOM     18  C   UNL     1       1.488  -6.231   0.000  0.00  0.00    +0.012 C 
ENDROOT
BRANCH  13  12
ATOM     12  C   UNL     1       0.183  -5.649   0.000  0.00  0.00    +0.051 C 
BRANCH  12  11
ATOM      9  C   UNL     1      -0.715  -3.712   0.000  0.00  0.00    +0.177 A 
ATOM     10  C   UNL     1      -0.047  -4.197   0.000  0.00  0.00    +0.058 A 
ATOM     11  C   UNL     1      -0.302  -4.982   0.000  0.00  0.00    +0.101 A 
ATOM     29  N   UNL     1      -1.127  -4.982   0.000  0.00  0.00    -0.081 NA
ATOM     30  O   UNL     1      -1.382  -4.197   0.000  0.00  0.00    -0.354 OA
BRANCH   9   6
ATOM      3  C   UNL     1      -0.715  -1.238   0.000  0.00  0.00    +0.139 A 
ATOM      4  C   UNL     1       0.000  -1.650   0.000  0.00  0.00    +0.037 A 
ATOM      5  C   UNL     1       0.000  -2.475   0.000  0.00  0.00    +0.006 A 
ATOM      6  C   UNL     1      -0.715  -2.888   0.000  0.00  0.00    +0.037 A 
ATOM      7  C   UNL     1      -1.429  -2.475   0.000  0.00  0.00    +0.006 A 
ATOM      8  C   UNL     1      -1.429  -1.650   0.000  0.00  0.00    +0.037 A 
BRANCH   3   2
ATOM      1  C   UNL     1      -1.429   0.000   0.000  0.00  0.00    +0.252 C 
ATOM      2  O   UNL     1      -0.715  -0.412   0.000  0.00  0.00    -0.471 OA
ENDBRANCH   3   2
ENDBRANCH   9   6
ENDBRANCH  12  11
ENDBRANCH  13  12
BRANCH  18  19
ATOM     19  C   UNL     1       1.153  -6.984   0.000  0.00  0.00    +0.087 C 
BRANCH  19  20
ATOM     20  C   UNL     1       0.332  -7.071   0.000  0.00  0.00    +0.241 C 
ATOM     21  O   UNL     1      -0.153  -6.403   0.000  0.00  0.00    -0.273 OA
ATOM     22  N   UNL     1      -0.003  -7.824   0.000  0.00  0.00    -0.207 NA
BRANCH  22  23
ATOM     23  C   UNL     1       0.482  -8.492   0.000  0.00  0.00    +0.095 C 
ATOM     24  C   UNL     1       1.302  -8.405   0.000  0.00  0.00    +0.022 C 
ATOM     25  C   UNL     1       1.787  -9.073   0.000  0.00  0.00    +0.002 C 
ATOM     26  C   UNL     1       1.452  -9.827   0.000  0.00  0.00    +0.000 C 
ATOM     27  C   UNL     1       0.631  -9.913   0.000  0.00  0.00    +0.002 C 
ATOM     28  C   UNL     1       0.146  -9.245   0.000  0.00  0.00    +0.022 C 
ENDBRANCH  22  23
ENDBRANCH  19  20
ENDBRANCH  18  19
TORSDOF 7
