REMARK  Name = 
REMARK  4 active torsions:
REMARK  status: ('A' for Active; 'I' for Inactive)
REMARK    1  A    between atoms: C_5  and  S_8
REMARK    2  A    between atoms: S_8  and  N_11
REMARK    3  A    between atoms: N_11  and  C_12
REMARK    4  A    between atoms: C_22  and  C_24
REMARK                            x       y       z     vdW  Elec       q    Type
REMARK                         _______ _______ _______ _____ _____    ______ ____
ROOT
ATOM     12  C   UNL     1      -1.296  -1.150   0.000  0.00  0.00    +0.147 A 
ATOM     13  C   UNL     1      -1.167  -0.335   0.000  0.00  0.00    +0.024 A 
ATOM     14  C   UNL     1      -0.397  -0.039   0.000  0.00  0.00    +0.014 A 
ATOM     15  C   UNL     1       0.244  -0.558   0.000  0.00  0.00    +0.041 A 
ATOM     16  C   UNL     1       1.163  -0.557   0.000  0.00  0.00    +0.058 C 
ATOM     17  C   UNL     1       1.713  -0.121   0.000  0.00  0.00    +0.011 C 
ATOM     18  C   UNL     1       1.582  -0.925   0.000  0.00  0.00    +0.043 C 
ATOM     19  C   UNL     1       1.629  -1.912   0.000  0.00  0.00    +0.096 C 
ATOM     20  N   UNL     1       0.813  -2.091   0.000  0.00  0.00    -0.270 N 
ATOM     21  C   UNL     1       1.225  -1.510   0.000  0.00  0.00    +0.100 C 
ATOM     22  C   UNL     1       0.305  -2.827   0.000  0.00  0.00    +0.329 C 
ATOM     23  O   UNL     1       0.476  -3.683   0.000  0.00  0.00    -0.263 OA
ATOM     27  C   UNL     1       0.622  -0.936   0.000  0.00  0.00    +0.110 C 
ATOM     28  N   UNL     1       0.115  -1.373   0.000  0.00  0.00    -0.298 N 
ATOM     29  C   UNL     1      -0.655  -1.669   0.000  0.00  0.00    +0.277 A 
ATOM     30  O   UNL     1      -0.711  -2.656   0.000  0.00  0.00    -0.266 OA
ENDROOT
BRANCH  22  24
ATOM     24  C   UNL     1      -0.362  -2.225   0.000  0.00  0.00    +0.440 C 
ATOM     25  O   UNL     1      -1.290  -2.506   0.000  0.00  0.00    -0.235 OA
ATOM     26  O   UNL     1      -0.392  -1.301   0.000  0.00  0.00    -0.235 OA
ENDBRANCH  22  24
BRANCH  12  11
ATOM     11  N   UNL     1      -2.094  -1.558   0.000  0.00  0.00    -0.092 NA
BRANCH  11   8
ATOM      8  S   UNL     1      -2.710  -0.960   0.000  0.00  0.00    +0.093 S 
ATOM      9  O   UNL     1      -3.297  -1.611   0.000  0.00  0.00    -0.148 OA
ATOM     10  O   UNL     1      -2.340  -0.157   0.000  0.00  0.00    -0.148 OA
BRANCH   8   5
ATOM      1  C   UNL     1      -5.272   1.150   0.000  0.00  0.00    +0.031 C 
ATOM      2  C   UNL     1      -4.631   0.631   0.000  0.00  0.00    -0.022 A 
ATOM      3  C   UNL     1      -3.861   0.927   0.000  0.00  0.00    -0.003 A 
ATOM      4  C   UNL     1      -3.220   0.408   0.000  0.00  0.00    +0.020 A 
ATOM      5  C   UNL     1      -3.349  -0.407   0.000  0.00  0.00    +0.127 A 
ATOM      6  C   UNL     1      -4.119  -0.703   0.000  0.00  0.00    +0.020 A 
ATOM      7  C   UNL     1      -4.760  -0.184   0.000  0.00  0.00    -0.003 A 
ENDBRANCH   8   5
ENDBRANCH  11   8
ENDBRANCH  12  11
TORSDOF 4
