REMARK  Name = 
REMARK  11 active torsions:
REMARK  status: ('A' for Active; 'I' for Inactive)
REMARK    1  A    between atoms: C_2  and  C_4
REMARK    2  A    between atoms: C_4  and  C_5
REMARK    3  A    between atoms: C_4  and  N_12
REMARK    4  A    between atoms: C_5  and  C_6
REMARK    5  A    between atoms: C_13  and  C_15
REMARK    6  A    between atoms: C_17  and  N_29
REMARK    7  A    between atoms: C_21  and  C_23
REMARK    8  A    between atoms: C_23  and  S_24
REMARK    9  A    between atoms: S_24  and  C_25
REMARK   10  A    between atoms: C_25  and  C_26
REMARK   11  A    between atoms: C_30  and  C_32
REMARK                            x       y       z     vdW  Elec       q    Type
REMARK                         _______ _______ _______ _____ _____    ______ ____
ROOT
ATOM     15  C   UNL     1       0.715  -6.188   0.000  0.00  0.00    +0.155 C 
ATOM     16  C   UNL     1       0.000  -6.600   0.000  0.00  0.00    +0.051 C 
ATOM     17  C   UNL     1      -0.715  -6.188   0.000  0.00  0.00    +0.100 C 
ATOM     18  C   UNL     1      -0.715  -5.362   0.000  0.00  0.00    +0.043 C 
ATOM     19  C   UNL     1       0.000  -4.950   0.000  0.00  0.00    +0.096 C 
ATOM     20  N   UNL     1       0.715  -5.362   0.000  0.00  0.00    -0.272 N 
ATOM     21  C   UNL     1       1.429  -4.950   0.000  0.00  0.00    +0.237 C 
ATOM     22  O   UNL     1       1.429  -4.125   0.000  0.00  0.00    -0.274 OA
ENDROOT
BRANCH  15  13
ATOM     12  N   UNL     1       2.143  -6.188   0.000  0.00  0.00    -0.196 NA
ATOM     13  C   UNL     1       1.429  -6.600   0.000  0.00  0.00    +0.260 C 
ATOM     14  O   UNL     1       1.429  -7.425   0.000  0.00  0.00    -0.272 OA
BRANCH  12   4
ATOM      4  C   UNL     1       2.858  -6.600   0.000  0.00  0.00    +0.179 C 
BRANCH   4   2
ATOM      1  N   UNL     1       2.143  -7.838   0.000  0.00  0.00    -0.086 NA
ATOM      2  C   UNL     1       2.858  -7.425   0.000  0.00  0.00    +0.281 C 
ATOM      3  O   UNL     1       3.572  -7.838   0.000  0.00  0.00    -0.270 OA
ENDBRANCH   4   2
BRANCH   4   5
ATOM      5  C   UNL     1       3.572  -6.188   0.000  0.00  0.00    +0.057 C 
BRANCH   5   6
ATOM      6  C   UNL     1       4.287  -6.600   0.000  0.00  0.00    -0.020 A 
ATOM      7  C   UNL     1       5.001  -6.188   0.000  0.00  0.00    -0.004 A 
ATOM      8  C   UNL     1       5.716  -6.600   0.000  0.00  0.00    -0.000 A 
ATOM      9  C   UNL     1       5.716  -7.425   0.000  0.00  0.00    -0.000 A 
ATOM     10  C   UNL     1       5.001  -7.838   0.000  0.00  0.00    -0.000 A 
ATOM     11  C   UNL     1       4.287  -7.425   0.000  0.00  0.00    -0.004 A 
ENDBRANCH   5   6
ENDBRANCH   4   5
ENDBRANCH  12   4
ENDBRANCH  15  13
BRANCH  17  29
ATOM     29  N   UNL     1      -1.429  -6.600   0.000  0.00  0.00    -0.202 NA
ATOM     30  C   UNL     1      -1.429  -7.425   0.000  0.00  0.00    +0.284 C 
ATOM     31  O   UNL     1      -0.715  -7.838   0.000  0.00  0.00    -0.267 OA
BRANCH  30  32
ATOM     32  C   UNL     1      -2.143  -7.838   0.000  0.00  0.00    +0.155 A 
ATOM     33  C   UNL     1      -2.143  -8.662   0.000  0.00  0.00    +0.123 A 
ATOM     34  N   UNL     1      -2.858  -9.075   0.000  0.00  0.00    -0.239 NA
ATOM     35  C   UNL     1      -3.572  -8.662   0.000  0.00  0.00    +0.120 A 
ATOM     36  C   UNL     1      -3.572  -7.838   0.000  0.00  0.00    +0.120 A 
ATOM     37  N   UNL     1      -2.858  -7.425   0.000  0.00  0.00    -0.236 NA
ENDBRANCH  30  32
ENDBRANCH  17  29
BRANCH  21  23
ATOM     23  C   UNL     1       2.143  -5.362   0.000  0.00  0.00    +0.143 C 
BRANCH  23  24
ATOM     24  S   UNL     1       2.858  -4.950   0.000  0.00  0.00    -0.119 S 
BRANCH  24  25
ATOM     25  C   UNL     1       3.572  -5.362   0.000  0.00  0.00    +0.172 C 
BRANCH  25  26
ATOM     26  C   UNL     1       4.287  -4.950   0.000  0.00  0.00    +0.376 C 
ATOM     27  O   UNL     1       4.287  -4.125   0.000  0.00  0.00    -0.245 OA
ATOM     28  O   UNL     1       5.001  -5.362   0.000  0.00  0.00    -0.245 OA
ENDBRANCH  25  26
ENDBRANCH  24  25
ENDBRANCH  23  24
ENDBRANCH  21  23
TORSDOF 11
