REMARK  Name = 
REMARK  11 active torsions:
REMARK  status: ('A' for Active; 'I' for Inactive)
REMARK    1  A    between atoms: C_2  and  C_4
REMARK    2  A    between atoms: C_4  and  C_5
REMARK    3  A    between atoms: C_5  and  N_6
REMARK    4  A    between atoms: C_5  and  C_32
REMARK    5  A    between atoms: C_7  and  C_9
REMARK    6  A    between atoms: C_11  and  N_23
REMARK    7  A    between atoms: C_15  and  C_17
REMARK    8  A    between atoms: C_17  and  S_18
REMARK    9  A    between atoms: S_18  and  C_19
REMARK   10  A    between atoms: C_19  and  C_20
REMARK   11  A    between atoms: C_24  and  C_26
REMARK                            x       y       z     vdW  Elec       q    Type
REMARK                         _______ _______ _______ _____ _____    ______ ____
ROOT
ATOM      9  C   UNL     1       0.000  -4.950   0.000  0.00  0.00    +0.155 C 
ATOM     10  C   UNL     1      -0.715  -4.537   0.000  0.00  0.00    +0.051 C 
ATOM     11  C   UNL     1      -0.715  -3.712   0.000  0.00  0.00    +0.100 C 
ATOM     12  C   UNL     1       0.000  -3.300   0.000  0.00  0.00    +0.043 C 
ATOM     13  C   UNL     1       0.715  -3.712   0.000  0.00  0.00    +0.096 C 
ATOM     14  N   UNL     1       0.715  -4.537   0.000  0.00  0.00    -0.272 N 
ATOM     15  C   UNL     1       1.429  -4.950   0.000  0.00  0.00    +0.237 C 
ATOM     16  O   UNL     1       1.429  -5.775   0.000  0.00  0.00    -0.274 OA
ENDROOT
BRANCH   9   7
ATOM      6  N   UNL     1       0.715  -6.188   0.000  0.00  0.00    -0.196 NA
ATOM      7  C   UNL     1       0.000  -5.775   0.000  0.00  0.00    +0.260 C 
ATOM      8  O   UNL     1      -0.715  -6.188   0.000  0.00  0.00    -0.272 OA
BRANCH   6   5
ATOM      5  C   UNL     1       0.715  -7.013   0.000  0.00  0.00    +0.174 C 
BRANCH   5  32
ATOM     32  C   UNL     1       0.000  -7.425   0.000  0.00  0.00    +0.281 C 
ATOM     33  N   UNL     1      -0.715  -7.013   0.000  0.00  0.00    -0.086 NA
ATOM     34  O   UNL     1       0.000  -8.250   0.000  0.00  0.00    -0.270 OA
ENDBRANCH   5  32
BRANCH   5   4
ATOM      4  C   UNL     1       1.429  -7.425   0.000  0.00  0.00    +0.031 C 
BRANCH   4   2
ATOM      1  C   UNL     1       2.143  -8.662   0.000  0.00  0.00    +0.000 C 
ATOM      2  C   UNL     1       1.429  -8.250   0.000  0.00  0.00    +0.002 C 
ATOM      3  C   UNL     1       0.715  -8.662   0.000  0.00  0.00    +0.000 C 
ENDBRANCH   4   2
ENDBRANCH   5   4
ENDBRANCH   6   5
ENDBRANCH   9   7
BRANCH  11  23
ATOM     23  N   UNL     1      -1.429  -3.300   0.000  0.00  0.00    -0.202 NA
ATOM     24  C   UNL     1      -2.143  -3.712   0.000  0.00  0.00    +0.284 C 
ATOM     25  O   UNL     1      -2.143  -4.537   0.000  0.00  0.00    -0.267 OA
BRANCH  24  26
ATOM     26  C   UNL     1      -2.858  -3.300   0.000  0.00  0.00    +0.155 A 
ATOM     27  C   UNL     1      -3.572  -3.712   0.000  0.00  0.00    +0.123 A 
ATOM     28  N   UNL     1      -4.287  -3.300   0.000  0.00  0.00    -0.239 NA
ATOM     29  C   UNL     1      -4.287  -2.475   0.000  0.00  0.00    +0.120 A 
ATOM     30  C   UNL     1      -3.572  -2.062   0.000  0.00  0.00    +0.120 A 
ATOM     31  N   UNL     1      -2.858  -2.475   0.000  0.00  0.00    -0.236 NA
ENDBRANCH  24  26
ENDBRANCH  11  23
BRANCH  15  17
ATOM     17  C   UNL     1       2.143  -4.537   0.000  0.00  0.00    +0.143 C 
BRANCH  17  18
ATOM     18  S   UNL     1       2.858  -4.950   0.000  0.00  0.00    -0.119 S 
BRANCH  18  19
ATOM     19  C   UNL     1       3.572  -4.537   0.000  0.00  0.00    +0.172 C 
BRANCH  19  20
ATOM     20  C   UNL     1       4.287  -4.950   0.000  0.00  0.00    +0.376 C 
ATOM     21  O   UNL     1       5.001  -4.537   0.000  0.00  0.00    -0.245 OA
ATOM     22  O   UNL     1       4.287  -5.775   0.000  0.00  0.00    -0.245 OA
ENDBRANCH  19  20
ENDBRANCH  18  19
ENDBRANCH  17  18
ENDBRANCH  15  17
TORSDOF 11
