REMARK  Name = 
REMARK  5 active torsions:
REMARK  status: ('A' for Active; 'I' for Inactive)
REMARK    1  A    between atoms: C_2  and  N_4
REMARK    2  A    between atoms: N_7  and  C_8
REMARK    3  A    between atoms: C_10  and  C_13
REMARK    4  A    between atoms: N_16  and  C_17
REMARK    5  A    between atoms: C_17  and  C_18
REMARK                            x       y       z     vdW  Elec       q    Type
REMARK                         _______ _______ _______ _____ _____    ______ ____
ROOT
ATOM     13  C   UNL     1       7.337  -7.493   0.000  0.00  0.00    +0.010 A 
ATOM     14  C   UNL     1       7.749  -6.779   0.000  0.00  0.00    +0.054 A 
ATOM     15  C   UNL     1       7.414  -6.025   0.000  0.00  0.00    +0.051 C 
ATOM     16  N   UNL     1       8.556  -6.950   0.000  0.00  0.00    -0.251 N 
ATOM     24  N   UNL     1       8.643  -7.771   0.000  0.00  0.00    -0.174 NA
ATOM     25  C   UNL     1       7.889  -8.106   0.000  0.00  0.00    +0.076 A 
ATOM     26  C   UNL     1       7.717  -8.913   0.000  0.00  0.00    +0.054 C 
ENDROOT
BRANCH  13  10
ATOM      8  C   UNL     1       5.211  -7.302   0.000  0.00  0.00    +0.119 C 
ATOM      9  C   UNL     1       5.964  -6.966   0.000  0.00  0.00    +0.035 C 
ATOM     10  C   UNL     1       6.516  -7.579   0.000  0.00  0.00    +0.048 C 
ATOM     11  C   UNL     1       6.104  -8.294   0.000  0.00  0.00    -0.025 C 
ATOM     12  C   UNL     1       5.297  -8.122   0.000  0.00  0.00    -0.009 C 
BRANCH   8   7
ATOM      4  N   UNL     1       3.067  -6.889   0.000  0.00  0.00    -0.189 NA
ATOM      5  C   UNL     1       3.782  -7.302   0.000  0.00  0.00    +0.339 C 
ATOM      6  O   UNL     1       3.782  -8.127   0.000  0.00  0.00    -0.249 OA
ATOM      7  N   UNL     1       4.496  -6.889   0.000  0.00  0.00    -0.184 NA
BRANCH   4   2
ATOM      1  C   UNL     1       1.638  -6.889   0.000  0.00  0.00    +0.023 C 
ATOM      2  C   UNL     1       2.353  -7.302   0.000  0.00  0.00    +0.097 C 
ATOM      3  C   UNL     1       2.353  -8.127   0.000  0.00  0.00    +0.023 C 
ENDBRANCH   4   2
ENDBRANCH   8   7
ENDBRANCH  13  10
BRANCH  16  17
ATOM     17  C   UNL     1       9.169  -6.398   0.000  0.00  0.00    +0.153 C 
BRANCH  17  18
ATOM     18  C   UNL     1       9.954  -6.653   0.000  0.00  0.00    +0.002 A 
ATOM     19  C   UNL     1      10.567  -6.101   0.000  0.00  0.00    -0.002 A 
ATOM     20  C   UNL     1      11.352  -6.356   0.000  0.00  0.00    -0.000 A 
ATOM     21  C   UNL     1      11.523  -7.163   0.000  0.00  0.00    -0.000 A 
ATOM     22  C   UNL     1      10.910  -7.715   0.000  0.00  0.00    -0.000 A 
ATOM     23  C   UNL     1      10.126  -7.460   0.000  0.00  0.00    -0.002 A 
ENDBRANCH  17  18
ENDBRANCH  16  17
TORSDOF 5
