REMARK  Name = 
REMARK  5 active torsions:
REMARK  status: ('A' for Active; 'I' for Inactive)
REMARK    1  A    between atoms: C_2  and  C_4
REMARK    2  A    between atoms: C_4  and  C_5
REMARK    3  A    between atoms: C_5  and  C_6
REMARK    4  A    between atoms: N_16  and  C_17
REMARK    5  A    between atoms: C_17  and  C_18
REMARK                            x       y       z     vdW  Elec       q    Type
REMARK                         _______ _______ _______ _____ _____    ______ ____
ROOT
ATOM      6  C   UNL     1       1.429  -2.475   0.000  0.00  0.00    +0.226 C 
ATOM      7  O   UNL     1       1.429  -3.300   0.000  0.00  0.00    -0.275 OA
ATOM      8  N   UNL     1       2.143  -2.062   0.000  0.00  0.00    -0.276 N 
ATOM      9  C   UNL     1       2.143  -1.238   0.000  0.00  0.00    +0.115 C 
ATOM     10  C   UNL     1       2.858  -0.825   0.000  0.00  0.00    +0.117 C 
ATOM     11  N   UNL     1       3.572  -1.238   0.000  0.00  0.00    -0.254 N 
ATOM     12  C   UNL     1       3.572  -2.062   0.000  0.00  0.00    +0.174 C 
ATOM     13  C   UNL     1       2.858  -2.475   0.000  0.00  0.00    +0.123 C 
ATOM     14  C   UNL     1       4.357  -2.317   0.000  0.00  0.00    +0.253 C 
ATOM     15  O   UNL     1       4.612  -3.102   0.000  0.00  0.00    -0.273 OA
ATOM     16  N   UNL     1       4.842  -1.650   0.000  0.00  0.00    -0.208 N 
ATOM     24  C   UNL     1       4.357  -0.983   0.000  0.00  0.00    +0.314 C 
ATOM     25  O   UNL     1       4.612  -0.198   0.000  0.00  0.00    -0.252 OA
ENDROOT
BRANCH   6   5
ATOM      5  C   UNL     1       0.715  -2.062   0.000  0.00  0.00    +0.097 C 
BRANCH   5   4
ATOM      4  C   UNL     1       0.000  -2.475   0.000  0.00  0.00    +0.124 C 
BRANCH   4   2
ATOM      1  O   UNL     1      -1.429  -2.475   0.000  0.00  0.00    -0.246 OA
ATOM      2  C   UNL     1      -0.715  -2.062   0.000  0.00  0.00    +0.365 C 
ATOM      3  O   UNL     1      -0.715  -1.238   0.000  0.00  0.00    -0.246 OA
ENDBRANCH   4   2
ENDBRANCH   5   4
ENDBRANCH   6   5
BRANCH  16  17
ATOM     17  C   UNL     1       5.667  -1.650   0.000  0.00  0.00    +0.129 C 
BRANCH  17  18
ATOM     18  C   UNL     1       6.079  -2.365   0.000  0.00  0.00    -0.002 A 
ATOM     19  C   UNL     1       6.904  -2.365   0.000  0.00  0.00    -0.003 A 
ATOM     20  C   UNL     1       7.317  -3.079   0.000  0.00  0.00    -0.000 A 
ATOM     21  C   UNL     1       6.904  -3.793   0.000  0.00  0.00    -0.000 A 
ATOM     22  C   UNL     1       6.079  -3.793   0.000  0.00  0.00    -0.000 A 
ATOM     23  C   UNL     1       5.667  -3.079   0.000  0.00  0.00    -0.003 A 
ENDBRANCH  17  18
ENDBRANCH  16  17
TORSDOF 5
