REMARK  Name = 
REMARK  11 active torsions:
REMARK  status: ('A' for Active; 'I' for Inactive)
REMARK    1  A    between atoms: N_2  and  C_3
REMARK    2  A    between atoms: C_3  and  C_5
REMARK    3  A    between atoms: C_10  and  N_27
REMARK    4  A    between atoms: C_12  and  C_13
REMARK    5  A    between atoms: N_15  and  C_16
REMARK    6  A    between atoms: C_16  and  C_17
REMARK    7  A    between atoms: C_16  and  C_24
REMARK    8  A    between atoms: C_17  and  C_18
REMARK    9  A    between atoms: N_27  and  S_28
REMARK   10  A    between atoms: S_28  and  C_31
REMARK   11  A    between atoms: C_33  and  C_37
REMARK                            x       y       z     vdW  Elec       q    Type
REMARK                         _______ _______ _______ _____ _____    ______ ____
ROOT
ATOM      5  C   UNL     1      -2.858  -4.950   0.000  0.00  0.00    +0.242 C 
ATOM      6  O   UNL     1      -2.143  -5.362   0.000  0.00  0.00    -0.273 OA
ATOM      7  N   UNL     1      -2.858  -4.125   0.000  0.00  0.00    -0.272 N 
ATOM      8  C   UNL     1      -3.572  -3.712   0.000  0.00  0.00    +0.095 C 
ATOM      9  C   UNL     1      -3.572  -2.888   0.000  0.00  0.00    +0.041 C 
ATOM     10  C   UNL     1      -2.858  -2.475   0.000  0.00  0.00    +0.102 C 
ATOM     11  C   UNL     1      -2.143  -2.888   0.000  0.00  0.00    +0.049 C 
ATOM     12  C   UNL     1      -2.143  -3.712   0.000  0.00  0.00    +0.155 C 
ENDROOT
BRANCH  12  13
ATOM     13  C   UNL     1      -1.429  -4.125   0.000  0.00  0.00    +0.260 C 
ATOM     14  O   UNL     1      -0.715  -3.712   0.000  0.00  0.00    -0.272 OA
ATOM     15  N   UNL     1      -1.429  -4.950   0.000  0.00  0.00    -0.196 NA
BRANCH  15  16
ATOM     16  C   UNL     1      -0.715  -5.362   0.000  0.00  0.00    +0.174 C 
BRANCH  16  24
ATOM     24  C   UNL     1       0.000  -4.950   0.000  0.00  0.00    +0.281 C 
ATOM     25  N   UNL     1       0.715  -5.362   0.000  0.00  0.00    -0.086 NA
ATOM     26  O   UNL     1       0.000  -4.125   0.000  0.00  0.00    -0.270 OA
ENDBRANCH  16  24
BRANCH  16  17
ATOM     17  C   UNL     1      -0.715  -6.188   0.000  0.00  0.00    +0.031 C 
BRANCH  17  18
ATOM     18  C   UNL     1       0.000  -6.600   0.000  0.00  0.00    +0.002 C 
ATOM     19  C   UNL     1       0.715  -6.188   0.000  0.00  0.00    +0.000 C 
ATOM     20  C   UNL     1       1.429  -6.600   0.000  0.00  0.00    +0.000 C 
ATOM     21  C   UNL     1       1.429  -7.425   0.000  0.00  0.00    +0.000 C 
ATOM     22  C   UNL     1       0.715  -7.838   0.000  0.00  0.00    +0.000 C 
ATOM     23  C   UNL     1       0.000  -7.425   0.000  0.00  0.00    +0.000 C 
ENDBRANCH  17  18
ENDBRANCH  16  17
ENDBRANCH  15  16
ENDBRANCH  12  13
BRANCH   5   3
ATOM      3  C   UNL     1      -3.572  -5.362   0.000  0.00  0.00    +0.149 C 
ATOM      4  C   UNL     1      -3.572  -6.188   0.000  0.00  0.00    +0.029 C 
BRANCH   3   2
ATOM      1  C   UNL     1      -4.287  -4.125   0.000  0.00  0.00    +0.108 C 
ATOM      2  N   UNL     1      -4.287  -4.950   0.000  0.00  0.00    -0.209 NA
ENDBRANCH   3   2
ENDBRANCH   5   3
BRANCH  10  27
ATOM     27  N   UNL     1      -2.858  -1.650   0.000  0.00  0.00    -0.079 NA
BRANCH  27  28
ATOM     28  S   UNL     1      -3.572  -1.238   0.000  0.00  0.00    +0.077 S 
ATOM     29  O   UNL     1      -3.160  -0.523   0.000  0.00  0.00    -0.152 OA
ATOM     30  O   UNL     1      -3.985  -1.952   0.000  0.00  0.00    -0.152 OA
BRANCH  28  31
ATOM     31  C   UNL     1      -4.287  -0.825   0.000  0.00  0.00    +0.123 A 
ATOM     32  C   UNL     1      -5.001  -1.238   0.000  0.00  0.00    +0.024 A 
ATOM     33  C   UNL     1      -5.716  -0.825   0.000  0.00  0.00    +0.073 A 
ATOM     34  C   UNL     1      -5.716   0.000   0.000  0.00  0.00    +0.004 A 
ATOM     35  C   UNL     1      -5.001   0.412   0.000  0.00  0.00    +0.001 A 
ATOM     36  C   UNL     1      -4.287   0.000   0.000  0.00  0.00    +0.020 A 
BRANCH  33  37
ATOM     37  C   UNL     1      -6.430  -1.238   0.000  0.00  0.00    +0.419 C 
ATOM     38  F   UNL     1      -7.145  -1.650   0.000  0.00  0.00    -0.166 F 
ATOM     39  F   UNL     1      -6.843  -0.523   0.000  0.00  0.00    -0.166 F 
ATOM     40  F   UNL     1      -6.018  -1.952   0.000  0.00  0.00    -0.166 F 
ENDBRANCH  33  37
ENDBRANCH  28  31
ENDBRANCH  27  28
ENDBRANCH  10  27
TORSDOF 11
