REMARK  Name = 
REMARK  5 active torsions:
REMARK  status: ('A' for Active; 'I' for Inactive)
REMARK    1  A    between atoms: S_2  and  N_4
REMARK    2  A    between atoms: S_2  and  C_24
REMARK    3  A    between atoms: N_4  and  C_5
REMARK    4  A    between atoms: C_9  and  N_13
REMARK    5  A    between atoms: C_17  and  C_18
REMARK                            x       y       z     vdW  Elec       q    Type
REMARK                         _______ _______ _______ _____ _____    ______ ____
ROOT
ATOM      5  C   UNL     1       1.270  -0.922   0.000  0.00  0.00    +0.157 C 
ATOM      6  C   UNL     1       0.785  -0.255   0.000  0.00  0.00    +0.164 C 
ATOM      7  O   UNL     1       1.270   0.412   0.000  0.00  0.00    -0.350 OA
ATOM      8  C   UNL     1       2.054   0.158   0.000  0.00  0.00    +0.169 C 
ATOM      9  C   UNL     1       2.839   0.412   0.000  0.00  0.00    +0.167 C 
ATOM     10  C   UNL     1       3.324  -0.255   0.000  0.00  0.00    +0.169 C 
ATOM     11  O   UNL     1       2.839  -0.922   0.000  0.00  0.00    -0.350 OA
ATOM     12  C   UNL     1       2.054  -0.667   0.000  0.00  0.00    +0.164 C 
ENDROOT
BRANCH   9  13
ATOM     13  N   UNL     1       3.094   1.197   0.000  0.00  0.00    -0.210 N 
ATOM     14  N   UNL     1       2.609   1.865   0.000  0.00  0.00    -0.043 NA
ATOM     15  N   UNL     1       3.094   2.532   0.000  0.00  0.00    -0.023 NA
ATOM     16  N   UNL     1       3.878   2.277   0.000  0.00  0.00    -0.108 NA
ATOM     17  C   UNL     1       3.878   1.452   0.000  0.00  0.00    +0.184 A 
BRANCH  17  18
ATOM     18  C   UNL     1       4.546   0.967   0.000  0.00  0.00    +0.037 A 
ATOM     19  C   UNL     1       5.300   1.303   0.000  0.00  0.00    +0.003 A 
ATOM     20  C   UNL     1       5.967   0.818   0.000  0.00  0.00    +0.000 A 
ATOM     21  C   UNL     1       5.881  -0.003   0.000  0.00  0.00    +0.000 A 
ATOM     22  C   UNL     1       5.127  -0.338   0.000  0.00  0.00    +0.000 A 
ATOM     23  C   UNL     1       4.460   0.147   0.000  0.00  0.00    +0.003 A 
ENDBRANCH  17  18
ENDBRANCH   9  13
BRANCH   5   4
ATOM      4  N   UNL     1       1.015  -1.707   0.000  0.00  0.00    -0.074 NA
BRANCH   4   2
ATOM      1  O   UNL     1       0.036  -1.072   0.000  0.00  0.00    -0.151 OA
ATOM      2  S   UNL     1       0.208  -1.879   0.000  0.00  0.00    +0.083 S 
ATOM      3  O   UNL     1       0.379  -2.686   0.000  0.00  0.00    -0.151 OA
BRANCH   2  24
ATOM     24  C   UNL     1      -0.599  -2.050   0.000  0.00  0.00    +0.153 A 
ATOM     25  C   UNL     1      -0.935  -2.804   0.000  0.00  0.00    +0.027 A 
ATOM     26  C   UNL     1      -1.755  -2.717   0.000  0.00  0.00    +0.009 A 
ATOM     27  C   UNL     1      -1.927  -1.911   0.000  0.00  0.00    +0.037 A 
ATOM     28  S   UNL     1      -1.212  -1.498   0.000  0.00  0.00    -0.067 S 
ENDBRANCH   2  24
ENDBRANCH   4   2
ENDBRANCH   5   4
TORSDOF 5
