REMARK  Name = 
REMARK  5 active torsions:
REMARK  status: ('A' for Active; 'I' for Inactive)
REMARK    1  A    between atoms: C_2  and  C_4
REMARK    2  A    between atoms: C_7  and  C_8
REMARK    3  A    between atoms: C_8  and  N_9
REMARK    4  A    between atoms: C_14  and  C_15
REMARK    5  A    between atoms: C_17  and  C_20
REMARK                            x       y       z     vdW  Elec       q    Type
REMARK                         _______ _______ _______ _____ _____    ______ ____
ROOT
ATOM      9  N   UNL     1       4.834  -1.134   0.000  0.00  0.00    -0.257 NA
ATOM     10  C   UNL     1       5.169  -1.888   0.000  0.00  0.00    +0.121 C 
ATOM     11  C   UNL     1       4.684  -2.555   0.000  0.00  0.00    +0.090 A 
ATOM     12  C   UNL     1       3.864  -2.469   0.000  0.00  0.00    +0.077 A 
ATOM     13  C   UNL     1       3.528  -1.715   0.000  0.00  0.00    +0.073 C 
ATOM     14  C   UNL     1       4.013  -1.048   0.000  0.00  0.00    +0.144 C 
ATOM     29  N   UNL     1       3.528  -3.223   0.000  0.00  0.00    -0.227 NA
ATOM     30  C   UNL     1       4.141  -3.775   0.000  0.00  0.00    +0.198 A 
ATOM     31  N   UNL     1       4.856  -3.362   0.000  0.00  0.00    -0.226 NA
ENDROOT
BRANCH  14  15
ATOM     15  C   UNL     1       3.678  -0.294   0.000  0.00  0.00    +0.251 A 
ATOM     16  N   UNL     1       2.871  -0.122   0.000  0.00  0.00    -0.190 NA
ATOM     17  C   UNL     1       2.784   0.698   0.000  0.00  0.00    +0.203 A 
ATOM     18  N   UNL     1       3.538   1.034   0.000  0.00  0.00    -0.056 NA
ATOM     19  O   UNL     1       4.090   0.420   0.000  0.00  0.00    -0.336 OA
BRANCH  17  20
ATOM     20  C   UNL     1       2.070   1.110   0.000  0.00  0.00    +0.042 A 
ATOM     21  C   UNL     1       1.356   0.698   0.000  0.00  0.00    +0.043 A 
ATOM     22  C   UNL     1       0.641   1.110   0.000  0.00  0.00    +0.177 A 
ATOM     23  C   UNL     1       0.641   1.935   0.000  0.00  0.00    +0.176 A 
ATOM     24  O   UNL     1      -0.143   2.190   0.000  0.00  0.00    -0.435 OA
ATOM     25  C   UNL     1      -0.628   1.523   0.000  0.00  0.00    +0.429 C 
ATOM     26  O   UNL     1      -0.143   0.856   0.000  0.00  0.00    -0.435 OA
ATOM     27  C   UNL     1       1.356   2.348   0.000  0.00  0.00    +0.040 A 
ATOM     28  C   UNL     1       2.070   1.935   0.000  0.00  0.00    +0.006 A 
ENDBRANCH  17  20
ENDBRANCH  14  15
BRANCH   9   8
ATOM      8  C   UNL     1       5.319  -0.467   0.000  0.00  0.00    +0.100 C 
BRANCH   8   7
ATOM      4  C   UNL     1       7.780  -0.725   0.000  0.00  0.00    +0.080 A 
ATOM      5  C   UNL     1       7.295  -1.393   0.000  0.00  0.00    +0.006 A 
ATOM      6  C   UNL     1       6.475  -1.306   0.000  0.00  0.00    -0.003 A 
ATOM      7  C   UNL     1       6.139  -0.553   0.000  0.00  0.00    -0.006 A 
ATOM     32  C   UNL     1       6.624   0.115   0.000  0.00  0.00    -0.003 A 
ATOM     33  C   UNL     1       7.445   0.028   0.000  0.00  0.00    +0.006 A 
BRANCH   4   2
ATOM      1  O   UNL     1       9.085  -0.144   0.000  0.00  0.00    -0.241 OA
ATOM      2  C   UNL     1       8.601  -0.811   0.000  0.00  0.00    +0.388 C 
ATOM      3  O   UNL     1       8.936  -1.565   0.000  0.00  0.00    -0.241 OA
ENDBRANCH   4   2
ENDBRANCH   8   7
ENDBRANCH   9   8
TORSDOF 5
