REMARK  Name = 
REMARK  5 active torsions:
REMARK  status: ('A' for Active; 'I' for Inactive)
REMARK    1  A    between atoms: O_2  and  C_3
REMARK    2  A    between atoms: C_6  and  C_9
REMARK    3  A    between atoms: C_15  and  C_18
REMARK    4  A    between atoms: C_21  and  C_23
REMARK    5  A    between atoms: N_27  and  C_28
REMARK                            x       y       z     vdW  Elec       q    Type
REMARK                         _______ _______ _______ _____ _____    ______ ____
ROOT
ATOM     18  C   UNL     1       2.834  -0.549   0.000  0.00  0.00    +0.205 A 
ATOM     19  N   UNL     1       3.501  -1.034   0.000  0.00  0.00    -0.056 NA
ATOM     20  O   UNL     1       3.247  -1.818   0.000  0.00  0.00    -0.336 OA
ATOM     21  C   UNL     1       2.421  -1.818   0.000  0.00  0.00    +0.251 A 
ATOM     22  N   UNL     1       2.167  -1.034   0.000  0.00  0.00    -0.190 NA
ENDROOT
BRANCH  18  15
ATOM      9  C   UNL     1       2.119   3.164   0.000  0.00  0.00    +0.270 C 
ATOM     10  O   UNL     1       1.405   2.751   0.000  0.00  0.00    -0.268 OA
ATOM     11  N   UNL     1       2.834   2.751   0.000  0.00  0.00    -0.157 NA
ATOM     12  C   UNL     1       2.834   1.926   0.000  0.00  0.00    +0.155 A 
ATOM     13  N   UNL     1       3.548   1.514   0.000  0.00  0.00    -0.227 NA
ATOM     14  C   UNL     1       3.548   0.689   0.000  0.00  0.00    +0.103 A 
ATOM     15  C   UNL     1       2.834   0.276   0.000  0.00  0.00    +0.058 A 
ATOM     16  C   UNL     1       2.119   0.689   0.000  0.00  0.00    +0.008 A 
ATOM     17  C   UNL     1       2.119   1.514   0.000  0.00  0.00    +0.036 A 
BRANCH   9   6
ATOM      3  C   UNL     1       2.119   5.639   0.000  0.00  0.00    +0.139 A 
ATOM      4  C   UNL     1       2.834   5.226   0.000  0.00  0.00    +0.037 A 
ATOM      5  C   UNL     1       2.834   4.401   0.000  0.00  0.00    +0.008 A 
ATOM      6  C   UNL     1       2.119   3.989   0.000  0.00  0.00    +0.056 A 
ATOM      7  C   UNL     1       1.405   4.401   0.000  0.00  0.00    +0.008 A 
ATOM      8  C   UNL     1       1.405   5.226   0.000  0.00  0.00    +0.037 A 
BRANCH   3   2
ATOM      1  C   UNL     1       1.405   6.876   0.000  0.00  0.00    +0.252 C 
ATOM      2  O   UNL     1       2.119   6.464   0.000  0.00  0.00    -0.471 OA
ENDBRANCH   3   2
ENDBRANCH   9   6
ENDBRANCH  18  15
BRANCH  21  23
ATOM     23  C   UNL     1       1.937  -2.486   0.000  0.00  0.00    +0.138 C 
ATOM     24  C   UNL     1       2.192  -3.270   0.000  0.00  0.00    +0.027 C 
ATOM     25  C   UNL     1       1.524  -3.755   0.000  0.00  0.00    +0.019 C 
ATOM     26  C   UNL     1       0.857  -3.270   0.000  0.00  0.00    +0.072 C 
ATOM     27  N   UNL     1       1.111  -2.486   0.000  0.00  0.00    -0.268 NA
BRANCH  27  28
ATOM     28  C   UNL     1       0.627  -1.818   0.000  0.00  0.00    +0.061 C 
ATOM     29  C   UNL     1      -0.194  -1.905   0.000  0.00  0.00    +0.038 C 
ATOM     30  C   UNL     1      -0.679  -1.237   0.000  0.00  0.00    +0.095 C 
ATOM     31  N   UNL     1      -0.343  -0.483   0.000  0.00  0.00    -0.279 N 
ATOM     32  C   UNL     1       0.477  -0.397   0.000  0.00  0.00    +0.095 C 
ATOM     33  C   UNL     1       0.962  -1.065   0.000  0.00  0.00    +0.038 C 
ATOM     34  C   UNL     1      -0.828   0.184   0.000  0.00  0.00    +0.226 C 
ATOM     35  C   UNL     1      -1.649   0.098   0.000  0.00  0.00    +0.095 C 
ATOM     36  O   UNL     1      -0.493   0.938   0.000  0.00  0.00    -0.275 OA
ENDBRANCH  27  28
ENDBRANCH  21  23
TORSDOF 5
