REMARK  Name = 
REMARK  5 active torsions:
REMARK  status: ('A' for Active; 'I' for Inactive)
REMARK    1  A    between atoms: C_5  and  C_6
REMARK    2  A    between atoms: C_6  and  N_7
REMARK    3  A    between atoms: C_8  and  C_10
REMARK    4  A    between atoms: C_10  and  C_11
REMARK    5  A    between atoms: C_24  and  N_32
REMARK                            x       y       z     vdW  Elec       q    Type
REMARK                         _______ _______ _______ _____ _____    ______ ____
ROOT
ATOM     11  C   UNL     1       7.934  -0.162   0.000  0.00  0.00    +0.017 C 
ATOM     12  C   UNL     1       8.157   0.632   0.000  0.00  0.00    +0.022 C 
ATOM     13  C   UNL     1       7.580   1.222   0.000  0.00  0.00    +0.093 C 
ATOM     14  N   UNL     1       6.802   1.092   0.000  0.00  0.00    -0.278 N 
ATOM     15  C   UNL     1       6.558   0.223   0.000  0.00  0.00    +0.098 C 
ATOM     16  C   UNL     1       6.893  -0.532   0.000  0.00  0.00    +0.042 C 
ATOM     17  C   UNL     1       6.278  -1.083   0.000  0.00  0.00    -0.026 C 
ATOM     18  C   UNL     1       5.565  -0.668   0.000  0.00  0.00    +0.016 C 
ATOM     19  C   UNL     1       4.674  -0.816   0.000  0.00  0.00    +0.231 C 
ATOM     20  O   UNL     1       4.435  -0.043   0.000  0.00  0.00    -0.471 OA
ATOM     21  C   UNL     1       4.380   0.582   0.000  0.00  0.00    +0.136 A 
ATOM     22  C   UNL     1       4.123  -0.202   0.000  0.00  0.00    +0.038 A 
ATOM     23  C   UNL     1       3.316  -0.372   0.000  0.00  0.00    +0.018 A 
ATOM     24  C   UNL     1       2.765   0.243   0.000  0.00  0.00    +0.048 A 
ATOM     25  C   UNL     1       3.022   1.027   0.000  0.00  0.00    +0.015 A 
ATOM     26  C   UNL     1       3.829   1.197   0.000  0.00  0.00    +0.030 A 
ATOM     27  C   UNL     1       4.085   1.981   0.000  0.00  0.00    +0.119 C 
ATOM     28  N   UNL     1       4.893   2.151   0.000  0.00  0.00    -0.204 NA
ATOM     29  C   UNL     1       5.444   1.536   0.000  0.00  0.00    +0.174 C 
ATOM     30  C   UNL     1       6.251   1.706   0.000  0.00  0.00    +0.243 C 
ATOM     31  O   UNL     1       6.507   2.490   0.000  0.00  0.00    -0.273 OA
ENDROOT
BRANCH  24  32
ATOM     32  N   UNL     1       1.958   0.073   0.000  0.00  0.00    -0.303 N 
ATOM     33  C   UNL     1       1.701  -0.711   0.000  0.00  0.00    +0.123 C 
ATOM     34  C   UNL     1       0.894  -0.881   0.000  0.00  0.00    +0.164 C 
ATOM     35  O   UNL     1       0.343  -0.267   0.000  0.00  0.00    -0.350 OA
ATOM     36  C   UNL     1       0.600   0.517   0.000  0.00  0.00    +0.164 C 
ATOM     37  C   UNL     1       1.407   0.687   0.000  0.00  0.00    +0.123 C 
ENDBRANCH  24  32
BRANCH  11  10
ATOM     10  C   UNL     1       8.537  -0.726   0.000  0.00  0.00    +0.087 C 
BRANCH  10   8
ATOM      7  N   UNL     1       9.929  -1.048   0.000  0.00  0.00    -0.201 NA
ATOM      8  C   UNL     1       9.327  -0.485   0.000  0.00  0.00    +0.242 C 
ATOM      9  O   UNL     1       9.513   0.319   0.000  0.00  0.00    -0.273 OA
BRANCH   7   6
ATOM      6  C   UNL     1      10.719  -0.808   0.000  0.00  0.00    +0.141 C 
BRANCH   6   5
ATOM      1  F   UNL     1      13.130  -3.061   0.000  0.00  0.00    -0.204 F 
ATOM      2  C   UNL     1      12.527  -2.497   0.000  0.00  0.00    +0.140 A 
ATOM      3  C   UNL     1      11.738  -2.738   0.000  0.00  0.00    +0.029 A 
ATOM      4  C   UNL     1      11.135  -2.175   0.000  0.00  0.00    -0.000 A 
ATOM      5  C   UNL     1      11.321  -1.371   0.000  0.00  0.00    -0.000 A 
ATOM     38  C   UNL     1      12.111  -1.131   0.000  0.00  0.00    -0.000 A 
ATOM     39  C   UNL     1      12.713  -1.694   0.000  0.00  0.00    +0.029 A 
ENDBRANCH   6   5
ENDBRANCH   7   6
ENDBRANCH  10   8
ENDBRANCH  11  10
TORSDOF 5
