REMARK  Name = 
REMARK  9 active torsions:
REMARK  status: ('A' for Active; 'I' for Inactive)
REMARK    1  A    between atoms: S_2  and  C_3
REMARK    2  A    between atoms: C_3  and  C_4
REMARK    3  A    between atoms: C_9  and  N_10
REMARK    4  A    between atoms: N_13  and  C_14
REMARK    5  A    between atoms: C_17  and  C_18
REMARK    6  A    between atoms: N_20  and  C_21
REMARK    7  A    between atoms: C_21  and  C_22
REMARK    8  A    between atoms: C_21  and  C_29
REMARK    9  A    between atoms: C_22  and  C_23
REMARK                            x       y       z     vdW  Elec       q    Type
REMARK                         _______ _______ _______ _____ _____    ______ ____
ROOT
ATOM      4  C   UNL     1       1.241  -5.085   0.000  0.00  0.00    +0.237 C 
ATOM      5  O   UNL     1       1.070  -5.892   0.000  0.00  0.00    -0.274 OA
ATOM      6  N   UNL     1       0.628  -4.533   0.000  0.00  0.00    -0.271 N 
ATOM      7  C   UNL     1      -0.179  -4.705   0.000  0.00  0.00    +0.096 C 
ATOM      8  C   UNL     1      -0.591  -3.990   0.000  0.00  0.00    +0.045 C 
ATOM      9  C   UNL     1      -0.039  -3.377   0.000  0.00  0.00    +0.126 C 
ATOM     17  C   UNL     1       0.715  -3.712   0.000  0.00  0.00    +0.174 C 
ENDROOT
BRANCH   9  10
ATOM     10  N   UNL     1      -0.211  -2.570   0.000  0.00  0.00    -0.187 NA
ATOM     11  C   UNL     1      -0.995  -2.315   0.000  0.00  0.00    +0.339 C 
ATOM     12  O   UNL     1      -1.608  -2.867   0.000  0.00  0.00    -0.249 OA
ATOM     13  N   UNL     1      -1.167  -1.508   0.000  0.00  0.00    -0.189 NA
BRANCH  13  14
ATOM     14  C   UNL     1      -1.952  -1.253   0.000  0.00  0.00    +0.097 C 
ATOM     15  C   UNL     1      -2.123  -0.446   0.000  0.00  0.00    +0.023 C 
ATOM     16  C   UNL     1      -2.565  -1.805   0.000  0.00  0.00    +0.023 C 
ENDBRANCH  13  14
ENDBRANCH   9  10
BRANCH  17  18
ATOM     18  C   UNL     1       1.429  -3.300   0.000  0.00  0.00    +0.262 C 
ATOM     19  O   UNL     1       2.143  -3.712   0.000  0.00  0.00    -0.271 OA
ATOM     20  N   UNL     1       1.429  -2.475   0.000  0.00  0.00    -0.196 NA
BRANCH  20  21
ATOM     21  C   UNL     1       2.143  -2.062   0.000  0.00  0.00    +0.179 C 
BRANCH  21  29
ATOM     29  C   UNL     1       2.858  -2.475   0.000  0.00  0.00    +0.281 C 
ATOM     30  N   UNL     1       3.572  -2.062   0.000  0.00  0.00    -0.086 NA
ATOM     31  O   UNL     1       2.858  -3.300   0.000  0.00  0.00    -0.270 OA
ENDBRANCH  21  29
BRANCH  21  22
ATOM     22  C   UNL     1       2.143  -1.238   0.000  0.00  0.00    +0.057 C 
BRANCH  22  23
ATOM     23  C   UNL     1       2.858  -0.825   0.000  0.00  0.00    -0.020 A 
ATOM     24  C   UNL     1       2.858   0.000   0.000  0.00  0.00    -0.004 A 
ATOM     25  C   UNL     1       3.572   0.412   0.000  0.00  0.00    -0.000 A 
ATOM     26  C   UNL     1       4.287   0.000   0.000  0.00  0.00    -0.000 A 
ATOM     27  C   UNL     1       4.287  -0.825   0.000  0.00  0.00    -0.000 A 
ATOM     28  C   UNL     1       3.572  -1.238   0.000  0.00  0.00    -0.004 A 
ENDBRANCH  22  23
ENDBRANCH  21  22
ENDBRANCH  20  21
ENDBRANCH  17  18
BRANCH   4   3
ATOM      3  C   UNL     1       2.026  -4.830   0.000  0.00  0.00    +0.143 C 
BRANCH   3   2
ATOM      1  C   UNL     1       3.424  -5.127   0.000  0.00  0.00    +0.070 C 
ATOM      2  S   UNL     1       2.639  -5.382   0.000  0.00  0.00    -0.130 S 
ENDBRANCH   3   2
ENDBRANCH   4   3
TORSDOF 9
