REMARK  Name = 
REMARK  6 active torsions:
REMARK  status: ('A' for Active; 'I' for Inactive)
REMARK    1  A    between atoms: S_2  and  N_5
REMARK    2  A    between atoms: N_5  and  C_6
REMARK    3  A    between atoms: C_9  and  C_12
REMARK    4  A    between atoms: C_12  and  C_14
REMARK    5  A    between atoms: N_20  and  C_21
REMARK    6  A    between atoms: C_21  and  C_22
REMARK                            x       y       z     vdW  Elec       q    Type
REMARK                         _______ _______ _______ _____ _____    ______ ____
ROOT
ATOM     14  C   UNL     1       0.000  -4.125   0.000  0.00  0.00    +0.139 C 
ATOM     15  C   UNL     1       0.000  -4.950   0.000  0.00  0.00    +0.165 C 
ATOM     16  O   UNL     1       0.715  -5.362   0.000  0.00  0.00    -0.343 OA
ATOM     17  C   UNL     1       1.429  -4.950   0.000  0.00  0.00    +0.227 C 
ATOM     18  C   UNL     1       1.429  -4.125   0.000  0.00  0.00    +0.256 C 
ATOM     19  O   UNL     1       2.143  -3.712   0.000  0.00  0.00    -0.272 OA
ATOM     20  N   UNL     1       0.715  -3.712   0.000  0.00  0.00    -0.274 N 
ENDROOT
BRANCH  14  12
ATOM     12  C   UNL     1      -0.715  -3.712   0.000  0.00  0.00    +0.195 C 
ATOM     13  O   UNL     1      -1.429  -4.125   0.000  0.00  0.00    -0.216 OA
BRANCH  12   9
ATOM      6  C   UNL     1      -0.715  -1.238   0.000  0.00  0.00    +0.091 A 
ATOM      7  C   UNL     1       0.000  -1.650   0.000  0.00  0.00    +0.018 A 
ATOM      8  C   UNL     1       0.000  -2.475   0.000  0.00  0.00    -0.000 A 
ATOM      9  C   UNL     1      -0.715  -2.888   0.000  0.00  0.00    +0.010 A 
ATOM     10  C   UNL     1      -1.429  -2.475   0.000  0.00  0.00    -0.000 A 
ATOM     11  C   UNL     1      -1.429  -1.650   0.000  0.00  0.00    +0.018 A 
BRANCH   6   5
ATOM      5  N   UNL     1      -0.715  -0.412   0.000  0.00  0.00    -0.101 NA
BRANCH   5   2
ATOM      1  C   UNL     1      -2.143   0.412   0.000  0.00  0.00    +0.202 C 
ATOM      2  S   UNL     1      -1.429   0.000   0.000  0.00  0.00    +0.075 S 
ATOM      3  O   UNL     1      -1.841  -0.715   0.000  0.00  0.00    -0.153 OA
ATOM      4  O   UNL     1      -1.016   0.715   0.000  0.00  0.00    -0.153 OA
ENDBRANCH   5   2
ENDBRANCH   6   5
ENDBRANCH  12   9
ENDBRANCH  14  12
BRANCH  20  21
ATOM     21  C   UNL     1       0.715  -2.888   0.000  0.00  0.00    +0.094 C 
BRANCH  21  22
ATOM     22  C   UNL     1       1.429  -2.475   0.000  0.00  0.00    +0.020 C 
ATOM     23  C   UNL     1       1.429  -1.650   0.000  0.00  0.00    +0.002 C 
ATOM     24  C   UNL     1       2.143  -1.238   0.000  0.00  0.00    +0.000 C 
ATOM     25  C   UNL     1       2.858  -1.650   0.000  0.00  0.00    +0.000 C 
ATOM     26  C   UNL     1       2.858  -2.475   0.000  0.00  0.00    +0.000 C 
ATOM     27  C   UNL     1       2.143  -2.888   0.000  0.00  0.00    +0.002 C 
ENDBRANCH  21  22
ENDBRANCH  20  21
TORSDOF 6
