REMARK  Name = 
REMARK  5 active torsions:
REMARK  status: ('A' for Active; 'I' for Inactive)
REMARK    1  A    between atoms: N_2  and  C_4
REMARK    2  A    between atoms: C_7  and  C_10
REMARK    3  A    between atoms: C_13  and  C_15
REMARK    4  A    between atoms: N_19  and  C_20
REMARK    5  A    between atoms: C_20  and  C_21
REMARK                            x       y       z     vdW  Elec       q    Type
REMARK                         _______ _______ _______ _____ _____    ______ ____
ROOT
ATOM     15  C   UNL     1      -1.530  -2.166   0.000  0.00  0.00    +0.138 C 
ATOM     16  C   UNL     1      -2.143  -2.718   0.000  0.00  0.00    +0.027 C 
ATOM     17  C   UNL     1      -2.858  -2.306   0.000  0.00  0.00    +0.019 C 
ATOM     18  C   UNL     1      -2.686  -1.499   0.000  0.00  0.00    +0.073 C 
ATOM     19  N   UNL     1      -1.866  -1.412   0.000  0.00  0.00    -0.260 NA
ENDROOT
BRANCH  15  13
ATOM     10  C   UNL     1       0.433  -3.005   0.000  0.00  0.00    +0.205 A 
ATOM     11  N   UNL     1       0.604  -2.198   0.000  0.00  0.00    -0.056 NA
ATOM     12  O   UNL     1      -0.110  -1.786   0.000  0.00  0.00    -0.336 OA
ATOM     13  C   UNL     1      -0.723  -2.338   0.000  0.00  0.00    +0.251 A 
ATOM     14  N   UNL     1      -0.388  -3.091   0.000  0.00  0.00    -0.190 NA
BRANCH  10   7
ATOM      4  C   UNL     1       2.089  -4.844   0.000  0.00  0.00    +0.132 A 
ATOM      5  C   UNL     1       1.282  -5.016   0.000  0.00  0.00    +0.034 A 
ATOM      6  C   UNL     1       0.730  -4.403   0.000  0.00  0.00    +0.008 A 
ATOM      7  C   UNL     1       0.985  -3.618   0.000  0.00  0.00    +0.058 A 
ATOM      8  C   UNL     1       1.792  -3.447   0.000  0.00  0.00    +0.103 A 
ATOM      9  N   UNL     1       2.344  -4.060   0.000  0.00  0.00    -0.229 NA
BRANCH   4   2
ATOM      1  C   UNL     1       3.448  -5.286   0.000  0.00  0.00    +0.114 C 
ATOM      2  N   UNL     1       2.641  -5.457   0.000  0.00  0.00    -0.290 N 
ATOM      3  C   UNL     1       2.386  -6.242   0.000  0.00  0.00    +0.114 C 
ENDBRANCH   4   2
ENDBRANCH  10   7
ENDBRANCH  15  13
BRANCH  19  20
ATOM     20  C   UNL     1      -1.453  -0.698   0.000  0.00  0.00    +0.138 C 
BRANCH  20  21
ATOM     21  C   UNL     1      -0.628  -0.698   0.000  0.00  0.00    +0.139 A 
ATOM     22  C   UNL     1      -0.143  -1.365   0.000  0.00  0.00    +0.037 A 
ATOM     23  C   UNL     1       0.641  -1.110   0.000  0.00  0.00    +0.037 A 
ATOM     24  C   UNL     1       0.641  -0.285   0.000  0.00  0.00    +0.145 A 
ATOM     25  O   UNL     1      -0.143  -0.030   0.000  0.00  0.00    -0.456 OA
ATOM     26  C   UNL     1       1.356   0.127   0.000  0.00  0.00    +0.037 A 
ATOM     27  C   UNL     1       2.070  -0.285   0.000  0.00  0.00    +0.003 A 
ATOM     28  C   UNL     1       2.070  -1.110   0.000  0.00  0.00    +0.000 A 
ATOM     29  C   UNL     1       1.356  -1.523   0.000  0.00  0.00    +0.003 A 
ENDBRANCH  20  21
ENDBRANCH  19  20
TORSDOF 5
