REMARK  Name = 
REMARK  3 active torsions:
REMARK  status: ('A' for Active; 'I' for Inactive)
REMARK    1  A    between atoms: C_2  and  C_3
REMARK    2  A    between atoms: C_3  and  C_4
REMARK    3  A    between atoms: C_7  and  C_9
REMARK                            x       y       z     vdW  Elec       q    Type
REMARK                         _______ _______ _______ _____ _____    ______ ____
ROOT
ATOM      4  C   UNL     1       2.516  -1.492   0.000  0.00  0.00    +0.102 A 
ATOM      5  N   UNL     1       1.997  -0.851   0.000  0.00  0.00    -0.081 NA
ATOM      6  O   UNL     1       2.446  -0.159   0.000  0.00  0.00    -0.354 OA
ATOM      7  C   UNL     1       3.243  -0.372   0.000  0.00  0.00    +0.177 A 
ATOM      8  C   UNL     1       3.286  -1.196   0.000  0.00  0.00    +0.058 A 
ENDROOT
BRANCH   7   9
ATOM      9  C   UNL     1       3.884   0.147   0.000  0.00  0.00    +0.040 A 
ATOM     10  C   UNL     1       3.755   0.962   0.000  0.00  0.00    +0.045 A 
ATOM     11  C   UNL     1       4.396   1.481   0.000  0.00  0.00    +0.196 A 
ATOM     12  O   UNL     1       4.267   2.296   0.000  0.00  0.00    -0.287 OA
ATOM     13  C   UNL     1       5.166   1.185   0.000  0.00  0.00    +0.042 A 
ATOM     14  C   UNL     1       5.295   0.370   0.000  0.00  0.00    +0.003 A 
ATOM     15  C   UNL     1       4.654  -0.149   0.000  0.00  0.00    +0.003 A 
ENDBRANCH   7   9
BRANCH   4   3
ATOM      3  C   UNL     1       2.302  -2.289   0.000  0.00  0.00    +0.072 C 
BRANCH   3   2
ATOM      1  N   UNL     1       3.469  -2.289   0.000  0.00  0.00    -0.129 NA
ATOM      2  C   UNL     1       2.886  -2.872   0.000  0.00  0.00    +0.137 C 
ATOM     16  C   UNL     1       3.469  -3.455   0.000  0.00  0.00    +0.162 C 
ATOM     17  O   UNL     1       2.886  -4.039   0.000  0.00  0.00    -0.351 OA
ATOM     18  C   UNL     1       2.302  -3.455   0.000  0.00  0.00    +0.162 C 
ENDBRANCH   3   2
ENDBRANCH   4   3
TORSDOF 3
