REMARK  Name = 
REMARK  9 active torsions:
REMARK  status: ('A' for Active; 'I' for Inactive)
REMARK    1  A    between atoms: C_2  and  C_3
REMARK    2  A    between atoms: C_3  and  C_4
REMARK    3  A    between atoms: C_9  and  C_10
REMARK    4  A    between atoms: C_10  and  C_11
REMARK    5  A    between atoms: C_14  and  C_15
REMARK    6  A    between atoms: C_15  and  C_16
REMARK    7  A    between atoms: N_23  and  C_24
REMARK    8  A    between atoms: C_24  and  C_25
REMARK    9  A    between atoms: C_25  and  N_26
REMARK                            x       y       z     vdW  Elec       q    Type
REMARK                         _______ _______ _______ _____ _____    ______ ____
ROOT
ATOM      4  C   UNL     1       1.429  -4.125   0.000  0.00  0.00    +0.012 C 
ATOM      5  C   UNL     1       1.429  -4.950   0.000  0.00  0.00    +0.019 C 
ATOM      6  C   UNL     1       0.715  -5.362   0.000  0.00  0.00    +0.089 C 
ATOM      7  N   UNL     1       0.000  -4.950   0.000  0.00  0.00    -0.218 NA
ATOM      8  C   UNL     1       0.000  -4.125   0.000  0.00  0.00    +0.089 C 
ATOM      9  C   UNL     1       0.715  -3.712   0.000  0.00  0.00    +0.024 C 
ENDROOT
BRANCH   4   3
ATOM      3  C   UNL     1       2.143  -3.712   0.000  0.00  0.00    +0.087 C 
BRANCH   3   2
ATOM      1  O   UNL     1       2.858  -4.950   0.000  0.00  0.00    -0.273 OA
ATOM      2  C   UNL     1       2.858  -4.125   0.000  0.00  0.00    +0.241 C 
ATOM     23  N   UNL     1       3.572  -3.712   0.000  0.00  0.00    -0.204 NA
BRANCH  23  24
ATOM     24  C   UNL     1       4.287  -4.125   0.000  0.00  0.00    +0.132 C 
BRANCH  24  25
ATOM     25  C   UNL     1       5.001  -3.712   0.000  0.00  0.00    +0.096 C 
BRANCH  25  26
ATOM     26  N   UNL     1       5.716  -4.125   0.000  0.00  0.00    -0.267 NA
ATOM     27  C   UNL     1       6.430  -3.712   0.000  0.00  0.00    +0.105 C 
ATOM     28  C   UNL     1       7.145  -4.125   0.000  0.00  0.00    +0.159 C 
ATOM     29  O   UNL     1       7.145  -4.950   0.000  0.00  0.00    -0.351 OA
ATOM     30  C   UNL     1       6.430  -5.362   0.000  0.00  0.00    +0.159 C 
ATOM     31  C   UNL     1       5.716  -4.950   0.000  0.00  0.00    +0.105 C 
ENDBRANCH  25  26
ENDBRANCH  24  25
ENDBRANCH  23  24
ENDBRANCH   3   2
ENDBRANCH   4   3
BRANCH   9  10
ATOM     10  C   UNL     1       0.715  -2.888   0.000  0.00  0.00    +0.051 C 
BRANCH  10  11
ATOM     11  C   UNL     1       0.000  -2.475   0.000  0.00  0.00    +0.100 A 
ATOM     12  N   UNL     1      -0.754  -2.811   0.000  0.00  0.00    -0.082 NA
ATOM     13  O   UNL     1      -1.306  -2.197   0.000  0.00  0.00    -0.358 OA
ATOM     14  C   UNL     1      -0.893  -1.483   0.000  0.00  0.00    +0.154 A 
ATOM     22  C   UNL     1      -0.086  -1.655   0.000  0.00  0.00    +0.054 A 
BRANCH  14  15
ATOM     15  C   UNL     1      -1.229  -0.729   0.000  0.00  0.00    +0.067 C 
BRANCH  15  16
ATOM     16  C   UNL     1      -2.049  -0.643   0.000  0.00  0.00    +0.008 C 
ATOM     17  C   UNL     1      -2.534  -1.310   0.000  0.00  0.00    +0.000 C 
ATOM     18  C   UNL     1      -3.355  -1.224   0.000  0.00  0.00    +0.000 C 
ATOM     19  C   UNL     1      -3.690  -0.471   0.000  0.00  0.00    +0.000 C 
ATOM     20  C   UNL     1      -3.205   0.197   0.000  0.00  0.00    +0.000 C 
ATOM     21  C   UNL     1      -2.385   0.111   0.000  0.00  0.00    +0.000 C 
ENDBRANCH  15  16
ENDBRANCH  14  15
ENDBRANCH  10  11
ENDBRANCH   9  10
TORSDOF 9
