REMARK  Name = 
REMARK  3 active torsions:
REMARK  status: ('A' for Active; 'I' for Inactive)
REMARK    1  A    between atoms: C_5  and  C_6
REMARK    2  A    between atoms: C_6  and  N_7
REMARK    3  A    between atoms: C_16  and  C_21
REMARK                            x       y       z     vdW  Elec       q    Type
REMARK                         _______ _______ _______ _____ _____    ______ ____
ROOT
ATOM      7  N   UNL     1       0.813  -2.091   0.000  0.00  0.00    -0.269 NA
ATOM      8  C   UNL     1       1.629  -1.912   0.000  0.00  0.00    +0.074 C 
ATOM      9  C   UNL     1       1.582  -0.925   0.000  0.00  0.00    +0.039 C 
ATOM     10  C   UNL     1       1.713  -0.121   0.000  0.00  0.00    +0.011 C 
ATOM     11  C   UNL     1       1.163  -0.557   0.000  0.00  0.00    +0.054 C 
ATOM     12  C   UNL     1       1.225  -1.510   0.000  0.00  0.00    +0.078 C 
ATOM     13  C   UNL     1       0.244  -0.558   0.000  0.00  0.00    +0.041 A 
ATOM     14  C   UNL     1      -0.397  -0.039   0.000  0.00  0.00    +0.013 A 
ATOM     15  C   UNL     1      -1.167  -0.335   0.000  0.00  0.00    +0.006 A 
ATOM     16  C   UNL     1      -1.296  -1.150   0.000  0.00  0.00    +0.056 A 
ATOM     17  C   UNL     1      -0.655  -1.669   0.000  0.00  0.00    +0.261 A 
ATOM     18  O   UNL     1      -0.784  -2.484   0.000  0.00  0.00    -0.267 OA
ATOM     19  N   UNL     1       0.115  -1.373   0.000  0.00  0.00    -0.299 N 
ATOM     20  C   UNL     1       0.622  -0.936   0.000  0.00  0.00    +0.110 C 
ENDROOT
BRANCH  16  21
ATOM     21  C   UNL     1      -2.066  -1.445   0.000  0.00  0.00    +0.005 A 
ATOM     22  C   UNL     1      -2.195  -2.260   0.000  0.00  0.00    +0.000 A 
ATOM     23  C   UNL     1      -2.965  -2.556   0.000  0.00  0.00    +0.000 A 
ATOM     24  C   UNL     1      -3.606  -2.037   0.000  0.00  0.00    +0.000 A 
ATOM     25  C   UNL     1      -4.377  -2.333   0.000  0.00  0.00    +0.000 A 
ATOM     26  C   UNL     1      -5.018  -1.813   0.000  0.00  0.00    +0.000 A 
ATOM     27  C   UNL     1      -4.889  -0.999   0.000  0.00  0.00    +0.000 A 
ATOM     28  C   UNL     1      -4.119  -0.703   0.000  0.00  0.00    +0.000 A 
ATOM     29  C   UNL     1      -3.478  -1.222   0.000  0.00  0.00    +0.000 A 
ATOM     30  C   UNL     1      -2.707  -0.926   0.000  0.00  0.00    +0.000 A 
ENDBRANCH  16  21
BRANCH   7   6
ATOM      6  C   UNL     1       0.125  -2.547   0.000  0.00  0.00    +0.099 C 
BRANCH   6   5
ATOM      1  F   UNL     1       0.328  -5.841   0.000  0.00  0.00    -0.204 F 
ATOM      2  C   UNL     1       0.277  -5.017   0.000  0.00  0.00    +0.140 A 
ATOM      3  C   UNL     1      -0.461  -4.650   0.000  0.00  0.00    +0.029 A 
ATOM      4  C   UNL     1      -0.512  -3.826   0.000  0.00  0.00    -0.001 A 
ATOM      5  C   UNL     1       0.176  -3.370   0.000  0.00  0.00    -0.006 A 
ATOM     31  C   UNL     1       0.914  -3.738   0.000  0.00  0.00    -0.001 A 
ATOM     32  C   UNL     1       0.965  -4.562   0.000  0.00  0.00    +0.029 A 
ENDBRANCH   6   5
ENDBRANCH   7   6
TORSDOF 3
