REMARK  Name = 
REMARK  6 active torsions:
REMARK  status: ('A' for Active; 'I' for Inactive)
REMARK    1  A    between atoms: C_2  and  C_3
REMARK    2  A    between atoms: C_8  and  C_9
REMARK    3  A    between atoms: C_9  and  C_10
REMARK    4  A    between atoms: N_12  and  C_13
REMARK    5  A    between atoms: N_18  and  C_19
REMARK    6  A    between atoms: C_21  and  C_25
REMARK                            x       y       z     vdW  Elec       q    Type
REMARK                         _______ _______ _______ _____ _____    ______ ____
ROOT
ATOM      3  C   UNL     1       4.699  -3.062   0.000  0.00  0.00    +0.020 C 
ATOM      4  C   UNL     1       5.414  -2.649   0.000  0.00  0.00    +0.095 C 
ATOM      5  N   UNL     1       6.128  -3.062   0.000  0.00  0.00    -0.263 N 
ATOM      6  C   UNL     1       6.128  -3.887   0.000  0.00  0.00    +0.095 C 
ATOM      7  C   UNL     1       5.414  -4.299   0.000  0.00  0.00    +0.022 C 
ATOM      8  C   UNL     1       4.699  -3.887   0.000  0.00  0.00    +0.012 C 
ATOM     16  C   UNL     1       6.843  -2.649   0.000  0.00  0.00    +0.327 C 
ATOM     17  O   UNL     1       7.557  -3.062   0.000  0.00  0.00    -0.250 OA
ATOM     18  N   UNL     1       6.843  -1.824   0.000  0.00  0.00    -0.162 NA
ENDROOT
BRANCH  18  19
ATOM     19  C   UNL     1       7.557  -1.412   0.000  0.00  0.00    +0.075 A 
ATOM     20  C   UNL     1       7.557  -0.587   0.000  0.00  0.00    +0.021 A 
ATOM     21  C   UNL     1       8.272  -0.174   0.000  0.00  0.00    +0.073 A 
ATOM     22  C   UNL     1       8.986  -0.587   0.000  0.00  0.00    +0.004 A 
ATOM     23  C   UNL     1       8.986  -1.412   0.000  0.00  0.00    +0.001 A 
ATOM     24  C   UNL     1       8.272  -1.824   0.000  0.00  0.00    +0.017 A 
BRANCH  21  25
ATOM     25  C   UNL     1       8.272   0.651   0.000  0.00  0.00    +0.419 C 
ATOM     26  F   UNL     1       8.272   1.476   0.000  0.00  0.00    -0.166 F 
ATOM     27  F   UNL     1       9.097   0.651   0.000  0.00  0.00    -0.166 F 
ATOM     28  F   UNL     1       7.447   0.651   0.000  0.00  0.00    -0.166 F 
ENDBRANCH  21  25
ENDBRANCH  18  19
BRANCH   3   2
ATOM      1  C   UNL     1       3.270  -3.062   0.000  0.00  0.00    +0.000 C 
ATOM      2  C   UNL     1       3.985  -2.649   0.000  0.00  0.00    +0.002 C 
ENDBRANCH   3   2
BRANCH   8   9
ATOM      9  C   UNL     1       3.985  -4.299   0.000  0.00  0.00    +0.087 C 
BRANCH   9  10
ATOM     10  C   UNL     1       3.985  -5.124   0.000  0.00  0.00    +0.241 C 
ATOM     11  O   UNL     1       4.699  -5.537   0.000  0.00  0.00    -0.273 OA
ATOM     12  N   UNL     1       3.270  -5.537   0.000  0.00  0.00    -0.207 NA
BRANCH  12  13
ATOM     13  C   UNL     1       3.270  -6.362   0.000  0.00  0.00    +0.095 C 
ATOM     14  C   UNL     1       3.683  -7.076   0.000  0.00  0.00    +0.023 C 
ATOM     15  C   UNL     1       2.858  -7.076   0.000  0.00  0.00    +0.023 C 
ENDBRANCH  12  13
ENDBRANCH   9  10
ENDBRANCH   8   9
TORSDOF 6
