REMARK  Name = 
REMARK  6 active torsions:
REMARK  status: ('A' for Active; 'I' for Inactive)
REMARK    1  A    between atoms: C_2  and  C_3
REMARK    2  A    between atoms: C_6  and  C_7
REMARK    3  A    between atoms: C_7  and  N_8
REMARK    4  A    between atoms: C_12  and  C_13
REMARK    5  A    between atoms: C_15  and  C_18
REMARK    6  A    between atoms: C_21  and  N_24
REMARK                            x       y       z     vdW  Elec       q    Type
REMARK                         _______ _______ _______ _____ _____    ______ ____
ROOT
ATOM     13  C   UNL     1      -0.621  -8.497   0.000  0.00  0.00    +0.251 A 
ATOM     14  N   UNL     1      -1.033  -9.211   0.000  0.00  0.00    -0.190 NA
ATOM     15  C   UNL     1      -1.840  -9.040   0.000  0.00  0.00    +0.205 A 
ATOM     16  N   UNL     1      -1.927  -8.220   0.000  0.00  0.00    -0.056 NA
ATOM     17  O   UNL     1      -1.173  -7.884   0.000  0.00  0.00    -0.336 OA
ENDROOT
BRANCH  15  18
ATOM     18  C   UNL     1      -2.453  -9.592   0.000  0.00  0.00    +0.058 A 
ATOM     19  C   UNL     1      -2.282 -10.399   0.000  0.00  0.00    +0.008 A 
ATOM     20  C   UNL     1      -2.895 -10.951   0.000  0.00  0.00    +0.038 A 
ATOM     21  C   UNL     1      -3.680 -10.696   0.000  0.00  0.00    +0.149 A 
ATOM     22  N   UNL     1      -3.851  -9.889   0.000  0.00  0.00    -0.226 NA
ATOM     23  C   UNL     1      -3.238  -9.337   0.000  0.00  0.00    +0.104 A 
BRANCH  21  24
ATOM     24  N   UNL     1      -4.293 -11.248   0.000  0.00  0.00    -0.271 N 
ATOM     25  C   UNL     1      -4.206 -12.069   0.000  0.00  0.00    +0.104 A 
ATOM     26  C   UNL     1      -4.960 -12.404   0.000  0.00  0.00    +0.120 A 
ATOM     27  N   UNL     1      -5.512 -11.791   0.000  0.00  0.00    -0.222 NA
ATOM     28  C   UNL     1      -5.100 -11.077   0.000  0.00  0.00    +0.184 A 
ENDBRANCH  21  24
ENDBRANCH  15  18
BRANCH  13  12
ATOM      8  N   UNL     1       0.612  -7.696   0.000  0.00  0.00    -0.260 NA
ATOM      9  C   UNL     1       1.419  -7.868   0.000  0.00  0.00    +0.073 C 
ATOM     10  C   UNL     1       1.505  -8.688   0.000  0.00  0.00    +0.019 C 
ATOM     11  C   UNL     1       0.752  -9.024   0.000  0.00  0.00    +0.027 C 
ATOM     12  C   UNL     1       0.200  -8.411   0.000  0.00  0.00    +0.138 C 
BRANCH   8   7
ATOM      7  C   UNL     1       0.277  -6.943   0.000  0.00  0.00    +0.138 C 
BRANCH   7   6
ATOM      3  C   UNL     1       1.174  -5.006   0.000  0.00  0.00    +0.156 A 
ATOM      4  C   UNL     1       1.841  -5.491   0.000  0.00  0.00    +0.038 A 
ATOM      5  C   UNL     1       1.587  -6.275   0.000  0.00  0.00    +0.037 A 
ATOM      6  C   UNL     1       0.761  -6.275   0.000  0.00  0.00    +0.139 A 
ATOM     29  O   UNL     1       0.507  -5.491   0.000  0.00  0.00    -0.458 OA
BRANCH   3   2
ATOM      1  O   UNL     1       1.889  -3.768   0.000  0.00  0.00    -0.212 OA
ATOM      2  C   UNL     1       1.174  -4.181   0.000  0.00  0.00    +0.246 C 
ENDBRANCH   3   2
ENDBRANCH   7   6
ENDBRANCH   8   7
ENDBRANCH  13  12
TORSDOF 6
