REMARK  Name = 
REMARK  4 active torsions:
REMARK  status: ('A' for Active; 'I' for Inactive)
REMARK    1  A    between atoms: C_7  and  C_8
REMARK    2  A    between atoms: C_14  and  N_15
REMARK    3  A    between atoms: N_15  and  C_16
REMARK    4  A    between atoms: C_16  and  C_17
REMARK                            x       y       z     vdW  Elec       q    Type
REMARK                         _______ _______ _______ _____ _____    ______ ____
ROOT
ATOM      8  C   UNL     1       2.751  -0.062   0.000  0.00  0.00    +0.043 C 
ATOM      9  C   UNL     1       3.419  -0.546   0.000  0.00  0.00    +0.041 C 
ATOM     10  C   UNL     1       3.164  -1.331   0.000  0.00  0.00    +0.184 C 
ATOM     11  O   UNL     1       3.649  -1.999   0.000  0.00  0.00    -0.220 OA
ATOM     12  C   UNL     1       2.339  -1.331   0.000  0.00  0.00    +0.198 C 
ATOM     13  O   UNL     1       1.854  -1.999   0.000  0.00  0.00    -0.219 OA
ATOM     14  C   UNL     1       2.084  -0.546   0.000  0.00  0.00    +0.110 C 
ENDROOT
BRANCH   8   7
ATOM      1  C   UNL     1       1.322   0.763   0.000  0.00  0.00    +0.031 C 
ATOM      2  C   UNL     1       2.037   1.176   0.000  0.00  0.00    -0.026 A 
ATOM      3  C   UNL     1       2.037   2.001   0.000  0.00  0.00    -0.005 A 
ATOM      4  C   UNL     1       2.751   2.413   0.000  0.00  0.00    -0.000 A 
ATOM      5  C   UNL     1       3.466   2.001   0.000  0.00  0.00    -0.000 A 
ATOM      6  C   UNL     1       3.466   1.176   0.000  0.00  0.00    -0.005 A 
ATOM      7  C   UNL     1       2.751   0.763   0.000  0.00  0.00    -0.025 A 
ENDBRANCH   8   7
BRANCH  14  15
ATOM     15  N   UNL     1       1.299  -0.292   0.000  0.00  0.00    -0.214 NA
BRANCH  15  16
ATOM     16  C   UNL     1       0.686  -0.844   0.000  0.00  0.00    +0.119 C 
BRANCH  16  17
ATOM     17  C   UNL     1       0.858  -1.651   0.000  0.00  0.00    +0.143 C 
ATOM     18  C   UNL     1       1.029  -2.458   0.000  0.00  0.00    +0.034 C 
ATOM     19  C   UNL     1       0.051  -1.822   0.000  0.00  0.00    +0.034 C 
ATOM     20  O   UNL     1       1.665  -1.479   0.000  0.00  0.00    -0.224 OA
ENDBRANCH  16  17
ENDBRANCH  15  16
ENDBRANCH  14  15
TORSDOF 4
