REMARK  Name = 
REMARK  3 active torsions:
REMARK  status: ('A' for Active; 'I' for Inactive)
REMARK    1  A    between atoms: N_7  and  C_8
REMARK    2  A    between atoms: C_8  and  C_9
REMARK    3  A    between atoms: C_13  and  C_15
REMARK                            x       y       z     vdW  Elec       q    Type
REMARK                         _______ _______ _______ _____ _____    ______ ____
ROOT
ATOM      8  C   UNL     1       3.457   3.491   0.000  0.00  0.00    +0.099 C 
ENDROOT
BRANCH   8   7
ATOM      1  O   UNL     1       4.472   6.076   0.000  0.00  0.00    -0.219 OA
ATOM      2  C   UNL     1       4.715   5.288   0.000  0.00  0.00    +0.197 C 
ATOM      3  C   UNL     1       5.531   5.165   0.000  0.00  0.00    +0.176 C 
ATOM      4  O   UNL     1       5.943   4.450   0.000  0.00  0.00    -0.350 OA
ATOM      5  C   UNL     1       5.642   3.682   0.000  0.00  0.00    +0.160 C 
ATOM      6  C   UNL     1       4.853   3.439   0.000  0.00  0.00    +0.105 C 
ATOM      7  N   UNL     1       4.172   3.904   0.000  0.00  0.00    -0.265 NA
ATOM     17  C   UNL     1       4.110   4.727   0.000  0.00  0.00    +0.108 C 
ENDBRANCH   8   7
BRANCH   8   9
ATOM      9  C   UNL     1       3.457   2.666   0.000  0.00  0.00    -0.005 A 
ATOM     10  C   UNL     1       4.172   2.254   0.000  0.00  0.00    -0.003 A 
ATOM     11  C   UNL     1       4.172   1.429   0.000  0.00  0.00    +0.000 A 
ATOM     12  C   UNL     1       3.457   1.016   0.000  0.00  0.00    +0.010 A 
ATOM     13  C   UNL     1       2.743   1.429   0.000  0.00  0.00    +0.068 A 
ATOM     14  C   UNL     1       2.743   2.254   0.000  0.00  0.00    +0.007 A 
BRANCH  13  15
ATOM     15  C   UNL     1       2.028   1.016   0.000  0.00  0.00    +0.100 C 
ATOM     16  N   UNL     1       1.314   0.604   0.000  0.00  0.00    -0.191 NA
ENDBRANCH  13  15
ENDBRANCH   8   9
TORSDOF 3
