REMARK  Name = 
REMARK  5 active torsions:
REMARK  status: ('A' for Active; 'I' for Inactive)
REMARK    1  A    between atoms: C_6  and  C_7
REMARK    2  A    between atoms: C_7  and  N_8
REMARK    3  A    between atoms: C_13  and  O_15
REMARK    4  A    between atoms: O_15  and  C_16
REMARK    5  A    between atoms: C_19  and  S_22
REMARK                            x       y       z     vdW  Elec       q    Type
REMARK                         _______ _______ _______ _____ _____    ______ ____
ROOT
ATOM      8  N   UNL     1      -3.063  -1.849   0.000  0.00  0.00    -0.261 NA
ATOM      9  C   UNL     1      -2.831  -2.641   0.000  0.00  0.00    +0.105 C 
ATOM     10  C   UNL     1      -3.306  -3.316   0.000  0.00  0.00    +0.160 C 
ATOM     11  O   UNL     1      -4.130  -3.365   0.000  0.00  0.00    -0.348 OA
ATOM     12  C   UNL     1      -4.682  -2.752   0.000  0.00  0.00    +0.187 C 
ATOM     13  C   UNL     1      -4.547  -1.938   0.000  0.00  0.00    +0.211 C 
ATOM     14  C   UNL     1      -3.826  -1.536   0.000  0.00  0.00    +0.119 C 
ENDROOT
BRANCH   8   7
ATOM      7  C   UNL     1      -2.450  -1.297   0.000  0.00  0.00    +0.137 C 
BRANCH   7   6
ATOM      1  C   UNL     1      -0.998  -0.242   0.000  0.00  0.00    +0.132 C 
ATOM      2  N   UNL     1      -0.998  -1.067   0.000  0.00  0.00    -0.311 N 
ATOM      3  C   UNL     1      -0.330  -1.552   0.000  0.00  0.00    +0.098 A 
ATOM      4  C   UNL     1      -0.585  -2.337   0.000  0.00  0.00    +0.119 A 
ATOM      5  N   UNL     1      -1.410  -2.337   0.000  0.00  0.00    -0.228 NA
ATOM      6  C   UNL     1      -1.665  -1.552   0.000  0.00  0.00    +0.137 A 
ENDBRANCH   7   6
ENDBRANCH   8   7
BRANCH  13  15
ATOM     15  O   UNL     1      -5.221  -1.463   0.000  0.00  0.00    -0.475 OA
BRANCH  15  16
ATOM     16  C   UNL     1      -5.147  -0.641   0.000  0.00  0.00    +0.139 A 
ATOM     17  C   UNL     1      -5.822  -0.166   0.000  0.00  0.00    +0.038 A 
ATOM     18  C   UNL     1      -5.748   0.655   0.000  0.00  0.00    +0.021 A 
ATOM     19  C   UNL     1      -4.999   1.002   0.000  0.00  0.00    +0.106 A 
ATOM     20  C   UNL     1      -4.325   0.527   0.000  0.00  0.00    +0.021 A 
ATOM     21  C   UNL     1      -4.399  -0.294   0.000  0.00  0.00    +0.038 A 
BRANCH  19  22
ATOM     22  S   UNL     1      -4.925   1.824   0.000  0.00  0.00    +0.010 S 
ATOM     23  C   UNL     1      -4.851   2.645   0.000  0.00  0.00    +0.182 C 
ATOM     24  O   UNL     1      -4.104   1.750   0.000  0.00  0.00    -0.169 OA
ATOM     25  O   UNL     1      -5.747   1.898   0.000  0.00  0.00    -0.169 OA
ENDBRANCH  19  22
ENDBRANCH  15  16
ENDBRANCH  13  15
TORSDOF 5
