REMARK  Name = 
REMARK  6 active torsions:
REMARK  status: ('A' for Active; 'I' for Inactive)
REMARK    1  A    between atoms: C_2  and  C_3
REMARK    2  A    between atoms: C_8  and  C_9
REMARK    3  A    between atoms: C_9  and  C_10
REMARK    4  A    between atoms: N_12  and  C_13
REMARK    5  A    between atoms: C_13  and  C_14
REMARK    6  A    between atoms: N_21  and  C_22
REMARK                            x       y       z     vdW  Elec       q    Type
REMARK                         _______ _______ _______ _____ _____    ______ ____
ROOT
ATOM      3  C   UNL     1       0.000  -5.775   0.000  0.00  0.00    +0.020 C 
ATOM      4  C   UNL     1      -0.715  -5.362   0.000  0.00  0.00    +0.095 C 
ATOM      5  N   UNL     1      -0.715  -4.537   0.000  0.00  0.00    -0.263 N 
ATOM      6  C   UNL     1       0.000  -4.125   0.000  0.00  0.00    +0.095 C 
ATOM      7  C   UNL     1       0.715  -4.537   0.000  0.00  0.00    +0.022 C 
ATOM      8  C   UNL     1       0.715  -5.362   0.000  0.00  0.00    +0.012 C 
ATOM     19  C   UNL     1      -1.429  -4.125   0.000  0.00  0.00    +0.327 C 
ATOM     20  O   UNL     1      -1.429  -3.300   0.000  0.00  0.00    -0.250 OA
ATOM     21  N   UNL     1      -2.143  -4.537   0.000  0.00  0.00    -0.162 NA
ENDROOT
BRANCH  21  22
ATOM     22  C   UNL     1      -2.858  -4.125   0.000  0.00  0.00    +0.075 A 
ATOM     23  C   UNL     1      -3.572  -4.537   0.000  0.00  0.00    +0.017 A 
ATOM     24  C   UNL     1      -4.287  -4.125   0.000  0.00  0.00    +0.001 A 
ATOM     25  C   UNL     1      -4.287  -3.300   0.000  0.00  0.00    +0.000 A 
ATOM     26  C   UNL     1      -3.572  -2.888   0.000  0.00  0.00    +0.001 A 
ATOM     27  C   UNL     1      -2.858  -3.300   0.000  0.00  0.00    +0.017 A 
ENDBRANCH  21  22
BRANCH   3   2
ATOM      1  C   UNL     1       0.715  -7.013   0.000  0.00  0.00    +0.000 C 
ATOM      2  C   UNL     1       0.000  -6.600   0.000  0.00  0.00    +0.002 C 
ENDBRANCH   3   2
BRANCH   8   9
ATOM      9  C   UNL     1       1.429  -5.775   0.000  0.00  0.00    +0.087 C 
BRANCH   9  10
ATOM     10  C   UNL     1       2.143  -5.362   0.000  0.00  0.00    +0.242 C 
ATOM     11  O   UNL     1       2.143  -4.537   0.000  0.00  0.00    -0.273 OA
ATOM     12  N   UNL     1       2.858  -5.775   0.000  0.00  0.00    -0.197 NA
BRANCH  12  13
ATOM     13  C   UNL     1       3.572  -5.362   0.000  0.00  0.00    +0.179 C 
BRANCH  13  14
ATOM     14  C   UNL     1       4.287  -5.775   0.000  0.00  0.00    +0.145 A 
ATOM     15  C   UNL     1       5.040  -5.439   0.000  0.00  0.00    +0.038 A 
ATOM     16  C   UNL     1       5.593  -6.053   0.000  0.00  0.00    +0.043 A 
ATOM     17  C   UNL     1       5.180  -6.767   0.000  0.00  0.00    +0.179 A 
ATOM     18  O   UNL     1       4.373  -6.596   0.000  0.00  0.00    -0.453 OA
ENDBRANCH  13  14
ENDBRANCH  12  13
ENDBRANCH   9  10
ENDBRANCH   8   9
TORSDOF 6
