REMARK  Name = 
REMARK  4 active torsions:
REMARK  status: ('A' for Active; 'I' for Inactive)
REMARK    1  A    between atoms: C_2  and  C_4
REMARK    2  A    between atoms: C_4  and  N_5
REMARK    3  A    between atoms: N_12  and  C_13
REMARK    4  A    between atoms: C_13  and  C_14
REMARK                            x       y       z     vdW  Elec       q    Type
REMARK                         _______ _______ _______ _____ _____    ______ ____
ROOT
ATOM      5  N   UNL     1       0.654  -0.698   0.000  0.00  0.00    -0.269 NA
ATOM      6  C   UNL     1       1.139  -0.030   0.000  0.00  0.00    +0.104 C 
ATOM      7  C   UNL     1       1.923  -0.285   0.000  0.00  0.00    +0.151 C 
ATOM      8  O   UNL     1       2.638   0.127   0.000  0.00  0.00    -0.344 OA
ATOM      9  C   UNL     1       3.352  -0.285   0.000  0.00  0.00    +0.227 C 
ATOM     10  C   UNL     1       3.352  -1.110   0.000  0.00  0.00    +0.256 C 
ATOM     11  O   UNL     1       4.067  -1.523   0.000  0.00  0.00    -0.272 OA
ATOM     12  N   UNL     1       2.638  -1.523   0.000  0.00  0.00    -0.271 N 
ATOM     20  C   UNL     1       1.923  -1.110   0.000  0.00  0.00    +0.120 C 
ATOM     21  C   UNL     1       1.139  -1.365   0.000  0.00  0.00    +0.095 C 
ENDROOT
BRANCH   5   4
ATOM      4  C   UNL     1      -0.171  -0.698   0.000  0.00  0.00    +0.072 C 
BRANCH   4   2
ATOM      1  C   UNL     1      -1.409   0.017   0.000  0.00  0.00    +0.001 C 
ATOM      2  C   UNL     1      -0.584   0.017   0.000  0.00  0.00    +0.016 C 
ATOM      3  C   UNL     1      -0.171   0.731   0.000  0.00  0.00    +0.001 C 
ENDBRANCH   4   2
ENDBRANCH   5   4
BRANCH  12  13
ATOM     13  C   UNL     1       2.638  -2.348   0.000  0.00  0.00    +0.120 C 
BRANCH  13  14
ATOM     14  C   UNL     1       1.923  -2.760   0.000  0.00  0.00    +0.001 A 
ATOM     15  C   UNL     1       1.923  -3.585   0.000  0.00  0.00    +0.018 A 
ATOM     16  C   UNL     1       1.209  -3.998   0.000  0.00  0.00    +0.099 A 
ATOM     17  N   UNL     1       0.494  -3.585   0.000  0.00  0.00    -0.242 NA
ATOM     18  C   UNL     1       0.494  -2.760   0.000  0.00  0.00    +0.099 A 
ATOM     19  C   UNL     1       1.209  -2.348   0.000  0.00  0.00    +0.018 A 
ENDBRANCH  13  14
ENDBRANCH  12  13
TORSDOF 4
