REMARK  Name = 
REMARK  5 active torsions:
REMARK  status: ('A' for Active; 'I' for Inactive)
REMARK    1  A    between atoms: C_3  and  N_16
REMARK    2  A    between atoms: C_6  and  C_7
REMARK    3  A    between atoms: C_7  and  N_8
REMARK    4  A    between atoms: C_9  and  C_11
REMARK    5  A    between atoms: N_16  and  C_17
REMARK                            x       y       z     vdW  Elec       q    Type
REMARK                         _______ _______ _______ _____ _____    ______ ____
ROOT
ATOM      1  O   UNL     1       2.037  -0.474   0.000  0.00  0.00    -0.219 OA
ATOM      2  C   UNL     1       2.037  -1.299   0.000  0.00  0.00    +0.199 C 
ATOM      3  C   UNL     1       2.704  -1.784   0.000  0.00  0.00    +0.135 C 
ATOM      4  C   UNL     1       2.449  -2.569   0.000  0.00  0.00    +0.162 C 
ATOM      5  O   UNL     1       1.624  -2.569   0.000  0.00  0.00    -0.350 OA
ATOM      6  C   UNL     1       1.369  -1.784   0.000  0.00  0.00    +0.169 C 
ENDROOT
BRANCH   6   7
ATOM      7  C   UNL     1       0.585  -1.529   0.000  0.00  0.00    +0.148 C 
BRANCH   7   8
ATOM      8  N   UNL     1      -0.028  -2.081   0.000  0.00  0.00    -0.199 NA
ATOM      9  C   UNL     1      -0.813  -1.826   0.000  0.00  0.00    +0.271 C 
ATOM     10  O   UNL     1      -0.985  -1.019   0.000  0.00  0.00    -0.268 OA
BRANCH   9  11
ATOM     11  C   UNL     1      -1.426  -2.378   0.000  0.00  0.00    +0.084 A 
ATOM     12  C   UNL     1      -1.340  -3.199   0.000  0.00  0.00    +0.012 A 
ATOM     13  C   UNL     1      -2.094  -3.534   0.000  0.00  0.00    +0.008 A 
ATOM     14  C   UNL     1      -2.646  -2.921   0.000  0.00  0.00    +0.036 A 
ATOM     15  S   UNL     1      -2.233  -2.207   0.000  0.00  0.00    -0.082 S 
ENDBRANCH   9  11
ENDBRANCH   7   8
ENDBRANCH   6   7
BRANCH   3  16
ATOM     16  N   UNL     1       3.489  -1.529   0.000  0.00  0.00    -0.216 NA
BRANCH  16  17
ATOM     17  C   UNL     1       4.102  -2.081   0.000  0.00  0.00    +0.076 C 
ATOM     18  C   UNL     1       4.886  -1.826   0.000  0.00  0.00    +0.036 C 
ATOM     19  C   UNL     1       5.500  -2.378   0.000  0.00  0.00    +0.090 C 
ATOM     20  N   UNL     1       5.328  -3.185   0.000  0.00  0.00    -0.218 NA
ATOM     21  C   UNL     1       4.543  -3.440   0.000  0.00  0.00    +0.090 C 
ATOM     22  C   UNL     1       3.930  -2.888   0.000  0.00  0.00    +0.036 C 
ENDBRANCH  16  17
ENDBRANCH   3  16
TORSDOF 5
