REMARK  Name = 
REMARK  5 active torsions:
REMARK  status: ('A' for Active; 'I' for Inactive)
REMARK    1  A    between atoms: C_2  and  C_4
REMARK    2  A    between atoms: C_4  and  C_5
REMARK    3  A    between atoms: CA_7  and  C_21
REMARK    4  A    between atoms: N_11  and  C_12
REMARK    5  A    between atoms: C_12  and  C_13
REMARK                            x       y       z     vdW  Elec       q    Type
REMARK                         _______ _______ _______ _____ _____    ______ ____
ROOT
ATOM      5  C   UNL     1       3.006   2.090   0.000  0.00  0.00    +0.096 C 
ATOM      6  N   UNL     1       3.805   1.885   0.000  0.00  0.00    -0.205 NA
ATOM      7  CA  UNL     1       4.143   1.132   0.000  0.00  0.00    +0.180 C 
ATOM      8  C   UNL     1       3.765   0.399   0.000  0.00  0.00    +0.057 C 
ATOM      9  C   UNL     1       2.956   0.237   0.000  0.00  0.00    -0.002 A 
ATOM     10  C   UNL     1       2.645  -0.527   0.000  0.00  0.00    +0.072 A 
ATOM     11  N   UNL     1       1.822  -0.468   0.000  0.00  0.00    -0.322 N 
ATOM     15  C   UNL     1       1.624   0.333   0.000  0.00  0.00    +0.060 A 
ATOM     16  C   UNL     1       2.325   0.769   0.000  0.00  0.00    +0.011 A 
ATOM     17  C   UNL     1       2.348   1.594   0.000  0.00  0.00    -0.005 A 
ATOM     18  C   UNL     1       1.571   1.982   0.000  0.00  0.00    -0.003 A 
ATOM     19  C   UNL     1       0.870   1.547   0.000  0.00  0.00    +0.001 A 
ATOM     20  C   UNL     1       0.897   0.722   0.000  0.00  0.00    +0.017 A 
ENDROOT
BRANCH   7  21
ATOM     21  C   UNL     1       4.968   1.110   0.000  0.00  0.00    +0.381 C 
ATOM     22  O   UNL     1       5.361   0.384   0.000  0.00  0.00    -0.244 OA
ATOM     23  OXT UNL     1       5.399   1.813   0.000  0.00  0.00    -0.244 OA
ENDBRANCH   7  21
BRANCH   5   4
ATOM      4  C   UNL     1       2.845   2.899   0.000  0.00  0.00    +0.022 C 
BRANCH   4   2
ATOM      1  C   UNL     1       3.303   4.253   0.000  0.00  0.00    +0.000 C 
ATOM      2  C   UNL     1       3.465   3.444   0.000  0.00  0.00    +0.002 C 
ATOM      3  C   UNL     1       4.246   3.179   0.000  0.00  0.00    +0.000 C 
ENDBRANCH   4   2
ENDBRANCH   5   4
BRANCH  11  12
ATOM     12  C   UNL     1       1.290  -1.098   0.000  0.00  0.00    +0.132 C 
BRANCH  12  13
ATOM     13  C   UNL     1       0.478  -0.953   0.000  0.00  0.00    -0.002 C 
ATOM     14  C   UNL     1      -0.053  -1.584   0.000  0.00  0.00    -0.003 C 
ENDBRANCH  12  13
ENDBRANCH  11  12
TORSDOF 5
