REMARK  Name = 
REMARK  7 active torsions:
REMARK  status: ('A' for Active; 'I' for Inactive)
REMARK    1  A    between atoms: C_3  and  C_4
REMARK    2  A    between atoms: C_4  and  N_5
REMARK    3  A    between atoms: C_9  and  C_22
REMARK    4  A    between atoms: C_11  and  C_12
REMARK    5  A    between atoms: C_12  and  C_13
REMARK    6  A    between atoms: N_24  and  C_25
REMARK    7  A    between atoms: C_25  and  C_26
REMARK                            x       y       z     vdW  Elec       q    Type
REMARK                         _______ _______ _______ _____ _____    ______ ____
ROOT
ATOM      5  N   UNL     1      -4.741   4.445   0.000  0.00  0.00    -0.315 N 
ATOM      6  C   UNL     1      -4.009   4.065   0.000  0.00  0.00    +0.072 A 
ATOM      7  C   UNL     1      -4.144   3.251   0.000  0.00  0.00    -0.002 A 
ATOM      8  C   UNL     1      -3.539   2.690   0.000  0.00  0.00    +0.055 C 
ATOM      9  C   UNL     1      -3.601   1.867   0.000  0.00  0.00    +0.155 C 
ATOM     10  N   UNL     1      -4.283   1.402   0.000  0.00  0.00    -0.207 NA
ATOM     11  C   UNL     1      -5.071   1.645   0.000  0.00  0.00    +0.095 C 
ATOM     16  C   UNL     1      -5.372   2.413   0.000  0.00  0.00    -0.005 A 
ATOM     17  C   UNL     1      -6.238   2.489   0.000  0.00  0.00    -0.003 A 
ATOM     18  C   UNL     1      -6.607   3.227   0.000  0.00  0.00    +0.001 A 
ATOM     19  C   UNL     1      -6.152   3.915   0.000  0.00  0.00    +0.017 A 
ATOM     20  C   UNL     1      -5.329   3.866   0.000  0.00  0.00    +0.060 A 
ATOM     21  C   UNL     1      -4.960   3.128   0.000  0.00  0.00    +0.011 A 
ENDROOT
BRANCH   9  22
ATOM     22  C   UNL     1      -2.887   1.455   0.000  0.00  0.00    +0.258 C 
ATOM     23  O   UNL     1      -2.887   0.630   0.000  0.00  0.00    -0.272 OA
ATOM     24  N   UNL     1      -2.172   1.867   0.000  0.00  0.00    -0.190 NA
BRANCH  24  25
ATOM     25  C   UNL     1      -1.458   1.455   0.000  0.00  0.00    +0.191 C 
BRANCH  25  26
ATOM     26  C   UNL     1      -0.743   1.867   0.000  0.00  0.00    -0.054 C 
ATOM     27  C   UNL     1      -0.029   2.280   0.000  0.00  0.00    -0.012 C 
ENDBRANCH  25  26
ENDBRANCH  24  25
ENDBRANCH   9  22
BRANCH   5   4
ATOM      4  C   UNL     1      -4.864   5.261   0.000  0.00  0.00    +0.183 C 
BRANCH   4   3
ATOM      1  C   UNL     1      -7.168   6.165   0.000  0.00  0.00    +0.090 C 
ATOM      2  C   UNL     1      -6.400   5.863   0.000  0.00  0.00    -0.088 C 
ATOM      3  C   UNL     1      -5.632   5.562   0.000  0.00  0.00    -0.066 C 
ENDBRANCH   4   3
ENDBRANCH   5   4
BRANCH  11  12
ATOM     12  C   UNL     1      -5.632   1.041   0.000  0.00  0.00    +0.022 C 
BRANCH  12  13
ATOM     13  C   UNL     1      -5.389   0.252   0.000  0.00  0.00    +0.002 C 
ATOM     14  C   UNL     1      -4.585   0.069   0.000  0.00  0.00    +0.000 C 
ATOM     15  C   UNL     1      -5.950  -0.352   0.000  0.00  0.00    +0.000 C 
ENDBRANCH  12  13
ENDBRANCH  11  12
TORSDOF 7
