REMARK  Name = 
REMARK  7 active torsions:
REMARK  status: ('A' for Active; 'I' for Inactive)
REMARK    1  A    between atoms: O_2  and  C_3
REMARK    2  A    between atoms: C_9  and  C_10
REMARK    3  A    between atoms: C_10  and  C_11
REMARK    4  A    between atoms: C_16  and  C_17
REMARK    5  A    between atoms: C_17  and  C_18
REMARK    6  A    between atoms: C_21  and  C_23
REMARK    7  A    between atoms: C_23  and  C_24
REMARK                            x       y       z     vdW  Elec       q    Type
REMARK                         _______ _______ _______ _____ _____    ______ ____
ROOT
ATOM     11  C   UNL     1       2.143   1.238   0.000  0.00  0.00    +0.026 C 
ATOM     12  C   UNL     1       2.143   2.062   0.000  0.00  0.00    +0.094 C 
ATOM     13  N   UNL     1       2.858   2.475   0.000  0.00  0.00    -0.279 N 
ATOM     14  C   UNL     1       3.572   2.062   0.000  0.00  0.00    +0.093 C 
ATOM     15  C   UNL     1       3.572   1.238   0.000  0.00  0.00    +0.022 C 
ATOM     16  C   UNL     1       2.858   0.825   0.000  0.00  0.00    +0.015 C 
ATOM     21  C   UNL     1       2.858   3.300   0.000  0.00  0.00    +0.230 C 
ATOM     22  O   UNL     1       3.572   3.712   0.000  0.00  0.00    -0.275 OA
ENDROOT
BRANCH  11  10
ATOM     10  C   UNL     1       1.429   0.825   0.000  0.00  0.00    +0.047 C 
BRANCH  10   9
ATOM      3  C   UNL     1      -0.715  -1.238   0.000  0.00  0.00    +0.138 A 
ATOM      4  C   UNL     1       0.000  -1.650   0.000  0.00  0.00    +0.033 A 
ATOM      5  C   UNL     1       0.715  -1.238   0.000  0.00  0.00    -0.016 A 
ATOM      6  C   UNL     1       0.715  -0.412   0.000  0.00  0.00    +0.009 A 
ATOM      7  C   UNL     1       0.000   0.000   0.000  0.00  0.00    +0.004 A 
ATOM      8  C   UNL     1      -0.715  -0.412   0.000  0.00  0.00    +0.037 A 
ATOM      9  C   UNL     1       1.429   0.000   0.000  0.00  0.00    +0.053 C 
ATOM     30  N   UNL     1       2.143  -0.412   0.000  0.00  0.00    -0.274 NA
ATOM     31  C   UNL     1       2.143  -1.238   0.000  0.00  0.00    +0.130 C 
ATOM     32  C   UNL     1       1.429  -1.650   0.000  0.00  0.00    +0.053 C 
BRANCH   3   2
ATOM      1  C   UNL     1      -2.143  -1.238   0.000  0.00  0.00    +0.252 C 
ATOM      2  O   UNL     1      -1.429  -1.650   0.000  0.00  0.00    -0.471 OA
ENDBRANCH   3   2
ENDBRANCH  10   9
ENDBRANCH  11  10
BRANCH  16  17
ATOM     17  C   UNL     1       2.858   0.000   0.000  0.00  0.00    +0.114 C 
BRANCH  17  18
ATOM     18  C   UNL     1       3.572  -0.412   0.000  0.00  0.00    +0.365 C 
ATOM     19  O   UNL     1       4.287   0.000   0.000  0.00  0.00    -0.246 OA
ATOM     20  O   UNL     1       3.572  -1.238   0.000  0.00  0.00    -0.246 OA
ENDBRANCH  17  18
ENDBRANCH  16  17
BRANCH  21  23
ATOM     23  C   UNL     1       2.143   3.712   0.000  0.00  0.00    +0.112 C 
BRANCH  23  24
ATOM     24  C   UNL     1       2.143   4.537   0.000  0.00  0.00    -0.013 A 
ATOM     25  C   UNL     1       1.429   4.950   0.000  0.00  0.00    -0.004 A 
ATOM     26  C   UNL     1       1.429   5.775   0.000  0.00  0.00    -0.000 A 
ATOM     27  C   UNL     1       2.143   6.188   0.000  0.00  0.00    -0.000 A 
ATOM     28  C   UNL     1       2.858   5.775   0.000  0.00  0.00    -0.000 A 
ATOM     29  C   UNL     1       2.858   4.950   0.000  0.00  0.00    -0.004 A 
ENDBRANCH  23  24
ENDBRANCH  21  23
TORSDOF 7
