REMARK  Name = 
REMARK  5 active torsions:
REMARK  status: ('A' for Active; 'I' for Inactive)
REMARK    1  A    between atoms: C_2  and  C_4
REMARK    2  A    between atoms: C_7  and  C_8
REMARK    3  A    between atoms: C_8  and  N_9
REMARK    4  A    between atoms: N_16  and  C_17
REMARK    5  A    between atoms: C_17  and  C_18
REMARK                            x       y       z     vdW  Elec       q    Type
REMARK                         _______ _______ _______ _____ _____    ______ ____
ROOT
ATOM      9  N   UNL     1       0.654  -0.698   0.000  0.00  0.00    -0.265 NA
ATOM     10  C   UNL     1       1.139  -0.030   0.000  0.00  0.00    +0.104 C 
ATOM     11  C   UNL     1       1.923  -0.285   0.000  0.00  0.00    +0.151 C 
ATOM     12  O   UNL     1       2.638   0.127   0.000  0.00  0.00    -0.344 OA
ATOM     13  C   UNL     1       3.352  -0.285   0.000  0.00  0.00    +0.227 C 
ATOM     14  C   UNL     1       3.352  -1.110   0.000  0.00  0.00    +0.256 C 
ATOM     15  O   UNL     1       4.067  -1.523   0.000  0.00  0.00    -0.272 OA
ATOM     16  N   UNL     1       2.638  -1.523   0.000  0.00  0.00    -0.271 N 
ATOM     25  C   UNL     1       1.923  -1.110   0.000  0.00  0.00    +0.120 C 
ATOM     26  C   UNL     1       1.139  -1.365   0.000  0.00  0.00    +0.095 C 
ENDROOT
BRANCH   9   8
ATOM      8  C   UNL     1      -0.171  -0.698   0.000  0.00  0.00    +0.099 C 
BRANCH   8   7
ATOM      4  C   UNL     1      -1.409   1.446   0.000  0.00  0.00    +0.080 A 
ATOM      5  C   UNL     1      -0.584   1.446   0.000  0.00  0.00    +0.006 A 
ATOM      6  C   UNL     1      -0.171   0.731   0.000  0.00  0.00    -0.003 A 
ATOM      7  C   UNL     1      -0.584   0.017   0.000  0.00  0.00    -0.006 A 
ATOM     27  C   UNL     1      -1.409   0.017   0.000  0.00  0.00    -0.003 A 
ATOM     28  C   UNL     1      -1.821   0.731   0.000  0.00  0.00    +0.006 A 
BRANCH   4   2
ATOM      1  O   UNL     1      -2.646   2.160   0.000  0.00  0.00    -0.241 OA
ATOM      2  C   UNL     1      -1.821   2.160   0.000  0.00  0.00    +0.388 C 
ATOM      3  O   UNL     1      -1.409   2.874   0.000  0.00  0.00    -0.241 OA
ENDBRANCH   4   2
ENDBRANCH   8   7
ENDBRANCH   9   8
BRANCH  16  17
ATOM     17  C   UNL     1       2.638  -2.348   0.000  0.00  0.00    +0.120 C 
BRANCH  17  18
ATOM     18  C   UNL     1       1.923  -2.760   0.000  0.00  0.00    -0.002 A 
ATOM     19  C   UNL     1       1.923  -3.585   0.000  0.00  0.00    -0.000 A 
ATOM     20  C   UNL     1       1.209  -3.998   0.000  0.00  0.00    +0.029 A 
ATOM     21  C   UNL     1       0.494  -3.585   0.000  0.00  0.00    +0.140 A 
ATOM     22  F   UNL     1      -0.220  -3.998   0.000  0.00  0.00    -0.204 F 
ATOM     23  C   UNL     1       0.494  -2.760   0.000  0.00  0.00    +0.029 A 
ATOM     24  C   UNL     1       1.209  -2.348   0.000  0.00  0.00    -0.000 A 
ENDBRANCH  17  18
ENDBRANCH  16  17
TORSDOF 5
