REMARK  Name = 
REMARK  7 active torsions:
REMARK  status: ('A' for Active; 'I' for Inactive)
REMARK    1  A    between atoms: C_2  and  C_3
REMARK    2  A    between atoms: C_3  and  C_4
REMARK    3  A    between atoms: C_9  and  C_10
REMARK    4  A    between atoms: C_10  and  C_11
REMARK    5  A    between atoms: C_14  and  C_16
REMARK    6  A    between atoms: N_22  and  C_23
REMARK    7  A    between atoms: C_23  and  C_24
REMARK                            x       y       z     vdW  Elec       q    Type
REMARK                         _______ _______ _______ _____ _____    ______ ____
ROOT
ATOM      4  C   UNL     1       5.609  -1.712   0.000  0.00  0.00    +0.012 C 
ATOM      5  C   UNL     1       6.324  -1.299   0.000  0.00  0.00    +0.019 C 
ATOM      6  C   UNL     1       7.038  -1.712   0.000  0.00  0.00    +0.089 C 
ATOM      7  N   UNL     1       7.038  -2.537   0.000  0.00  0.00    -0.218 NA
ATOM      8  C   UNL     1       6.324  -2.949   0.000  0.00  0.00    +0.089 C 
ATOM      9  C   UNL     1       5.609  -2.537   0.000  0.00  0.00    +0.024 C 
ENDROOT
BRANCH   4   3
ATOM      3  C   UNL     1       4.895  -1.299   0.000  0.00  0.00    +0.087 C 
BRANCH   3   2
ATOM      1  O   UNL     1       4.180  -0.062   0.000  0.00  0.00    -0.273 OA
ATOM      2  C   UNL     1       4.895  -0.474   0.000  0.00  0.00    +0.242 C 
ATOM     22  N   UNL     1       5.609  -0.062   0.000  0.00  0.00    -0.201 NA
BRANCH  22  23
ATOM     23  C   UNL     1       5.609   0.763   0.000  0.00  0.00    +0.141 C 
BRANCH  23  24
ATOM     24  C   UNL     1       6.324   1.176   0.000  0.00  0.00    -0.001 A 
ATOM     25  C   UNL     1       6.324   2.001   0.000  0.00  0.00    -0.003 A 
ATOM     26  C   UNL     1       7.038   2.413   0.000  0.00  0.00    -0.000 A 
ATOM     27  C   UNL     1       7.753   2.001   0.000  0.00  0.00    -0.000 A 
ATOM     28  C   UNL     1       7.753   1.176   0.000  0.00  0.00    -0.000 A 
ATOM     29  C   UNL     1       7.038   0.763   0.000  0.00  0.00    -0.003 A 
ENDBRANCH  23  24
ENDBRANCH  22  23
ENDBRANCH   3   2
ENDBRANCH   4   3
BRANCH   9  10
ATOM     10  C   UNL     1       4.895  -2.949   0.000  0.00  0.00    +0.051 C 
BRANCH  10  11
ATOM     11  C   UNL     1       4.895  -3.774   0.000  0.00  0.00    +0.101 A 
ATOM     12  N   UNL     1       5.562  -4.259   0.000  0.00  0.00    -0.081 NA
ATOM     13  O   UNL     1       5.307  -5.044   0.000  0.00  0.00    -0.352 OA
ATOM     14  C   UNL     1       4.482  -5.044   0.000  0.00  0.00    +0.194 A 
ATOM     15  C   UNL     1       4.227  -4.259   0.000  0.00  0.00    +0.060 A 
BRANCH  14  16
ATOM     16  C   UNL     1       3.997  -5.711   0.000  0.00  0.00    +0.118 A 
ATOM     17  N   UNL     1       4.333  -6.465   0.000  0.00  0.00    -0.241 NA
ATOM     18  C   UNL     1       3.848  -7.132   0.000  0.00  0.00    +0.099 A 
ATOM     19  C   UNL     1       3.027  -7.046   0.000  0.00  0.00    +0.021 A 
ATOM     20  C   UNL     1       2.692  -6.292   0.000  0.00  0.00    +0.003 A 
ATOM     21  C   UNL     1       3.177  -5.625   0.000  0.00  0.00    +0.022 A 
ENDBRANCH  14  16
ENDBRANCH  10  11
ENDBRANCH   9  10
TORSDOF 7
