REMARK  Name = 
REMARK  7 active torsions:
REMARK  status: ('A' for Active; 'I' for Inactive)
REMARK    1  A    between atoms: S_2  and  C_3
REMARK    2  A    between atoms: C_3  and  C_4
REMARK    3  A    between atoms: C_9  and  N_10
REMARK    4  A    between atoms: N_13  and  C_14
REMARK    5  A    between atoms: C_22  and  C_23
REMARK    6  A    between atoms: N_25  and  C_27
REMARK    7  A    between atoms: C_27  and  C_28
REMARK                            x       y       z     vdW  Elec       q    Type
REMARK                         _______ _______ _______ _____ _____    ______ ____
ROOT
ATOM      4  C   UNL     1      -1.757  -5.148   0.000  0.00  0.00    +0.237 C 
ATOM      5  O   UNL     1      -1.144  -5.700   0.000  0.00  0.00    -0.274 OA
ATOM      6  N   UNL     1      -1.586  -4.341   0.000  0.00  0.00    -0.271 N 
ATOM      7  C   UNL     1      -2.138  -3.728   0.000  0.00  0.00    +0.096 C 
ATOM      8  C   UNL     1      -1.725  -3.013   0.000  0.00  0.00    +0.045 C 
ATOM      9  C   UNL     1      -0.918  -3.185   0.000  0.00  0.00    +0.126 C 
ATOM     22  C   UNL     1      -0.832  -4.005   0.000  0.00  0.00    +0.172 C 
ENDROOT
BRANCH   9  10
ATOM     10  N   UNL     1      -0.305  -2.633   0.000  0.00  0.00    -0.186 NA
ATOM     11  C   UNL     1      -0.477  -1.826   0.000  0.00  0.00    +0.344 C 
ATOM     12  O   UNL     1      -1.261  -1.571   0.000  0.00  0.00    -0.249 OA
ATOM     13  N   UNL     1       0.137  -1.274   0.000  0.00  0.00    -0.159 NA
BRANCH  13  14
ATOM     14  C   UNL     1      -0.035  -0.467   0.000  0.00  0.00    +0.102 A 
ATOM     15  C   UNL     1      -0.820  -0.212   0.000  0.00  0.00    +0.158 A 
ATOM     16  F   UNL     1      -1.433  -0.764   0.000  0.00  0.00    -0.203 F 
ATOM     17  C   UNL     1      -0.991   0.595   0.000  0.00  0.00    +0.061 A 
ATOM     18  C   UNL     1      -0.378   1.147   0.000  0.00  0.00    +0.142 A 
ATOM     19  F   UNL     1      -0.550   1.954   0.000  0.00  0.00    -0.204 F 
ATOM     20  C   UNL     1       0.406   0.892   0.000  0.00  0.00    +0.031 A 
ATOM     21  C   UNL     1       0.578   0.085   0.000  0.00  0.00    +0.021 A 
ENDBRANCH  13  14
ENDBRANCH   9  10
BRANCH  22  23
ATOM     23  C   UNL     1      -0.117  -4.418   0.000  0.00  0.00    +0.246 C 
ATOM     24  O   UNL     1      -0.117  -5.243   0.000  0.00  0.00    -0.273 OA
ATOM     25  N   UNL     1       0.597  -4.005   0.000  0.00  0.00    -0.268 N 
ATOM     26  C   UNL     1       0.597  -3.180   0.000  0.00  0.00    +0.115 C 
BRANCH  25  27
ATOM     27  C   UNL     1       1.312  -4.418   0.000  0.00  0.00    +0.183 C 
BRANCH  27  28
ATOM     28  C   UNL     1       2.026  -4.005   0.000  0.00  0.00    +0.281 C 
ATOM     29  N   UNL     1       2.026  -3.180   0.000  0.00  0.00    -0.086 NA
ATOM     30  O   UNL     1       2.740  -4.418   0.000  0.00  0.00    -0.270 OA
ENDBRANCH  27  28
ENDBRANCH  25  27
ENDBRANCH  22  23
BRANCH   4   3
ATOM      3  C   UNL     1      -2.542  -5.402   0.000  0.00  0.00    +0.143 C 
BRANCH   3   2
ATOM      1  C   UNL     1      -3.498  -6.465   0.000  0.00  0.00    +0.070 C 
ATOM      2  S   UNL     1      -2.713  -6.210   0.000  0.00  0.00    -0.130 S 
ENDBRANCH   3   2
ENDBRANCH   4   3
TORSDOF 7
