REMARK  Name = 
REMARK  6 active torsions:
REMARK  status: ('A' for Active; 'I' for Inactive)
REMARK    1  A    between atoms: C_2  and  C_25
REMARK    2  A    between atoms: C_9  and  N_10
REMARK    3  A    between atoms: C_11  and  C_13
REMARK    4  A    between atoms: C_25  and  C_27
REMARK    5  A    between atoms: N_29  and  C_30
REMARK    6  A    between atoms: N_29  and  C_32
REMARK                            x       y       z     vdW  Elec       q    Type
REMARK                         _______ _______ _______ _____ _____    ______ ____
ROOT
ATOM      1  C   UNL     1       2.143  -1.238   0.000  0.00  0.00    +0.052 C 
ATOM      2  C   UNL     1       1.429  -1.650   0.000  0.00  0.00    -0.001 C 
ATOM      3  C   UNL     1       0.715  -1.238   0.000  0.00  0.00    -0.000 C 
ATOM      4  C   UNL     1       0.715  -0.412   0.000  0.00  0.00    -0.001 C 
ATOM      5  C   UNL     1       0.000  -0.825   0.000  0.00  0.00    -0.000 C 
ATOM      6  C   UNL     1       0.000   0.000   0.000  0.00  0.00    +0.002 C 
ATOM      7  C   UNL     1       0.000   0.825   0.000  0.00  0.00    +0.022 C 
ATOM      8  C   UNL     1       0.715   1.238   0.000  0.00  0.00    +0.095 C 
ATOM     18  C   UNL     1       1.429   0.825   0.000  0.00  0.00    +0.019 C 
ATOM     19  C   UNL     1       2.143   1.238   0.000  0.00  0.00    +0.002 C 
ATOM     20  C   UNL     1       1.429   0.000   0.000  0.00  0.00    +0.045 C 
ATOM     21  C   UNL     1       2.143  -0.412   0.000  0.00  0.00    +0.145 C 
ATOM     22  O   UNL     1       2.858   0.000   0.000  0.00  0.00    -0.224 OA
ENDROOT
BRANCH   8   9
ATOM      9  N   UNL     1       0.715   2.062   0.000  0.00  0.00    -0.207 NA
ATOM     10  C   UNL     1       0.000   2.475   0.000  0.00  0.00    +0.241 C 
ATOM     11  O   UNL     1      -0.715   2.062   0.000  0.00  0.00    -0.273 OA
BRANCH  10  12
ATOM     12  C   UNL     1       0.000   3.300   0.000  0.00  0.00    +0.078 C 
ATOM     13  C   UNL     1      -0.715   3.712   0.000  0.00  0.00    +0.009 C 
ATOM     14  C   UNL     1      -0.715   4.537   0.000  0.00  0.00    +0.000 C 
ATOM     15  C   UNL     1       0.000   4.950   0.000  0.00  0.00    +0.000 C 
ATOM     16  C   UNL     1       0.715   4.537   0.000  0.00  0.00    +0.000 C 
ATOM     17  C   UNL     1       0.715   3.712   0.000  0.00  0.00    +0.009 C 
ENDBRANCH  10  12
ENDBRANCH   8   9
BRANCH   1  23
ATOM     23  C   UNL     1       2.858  -1.650   0.000  0.00  0.00    +0.075 C 
ATOM     24  C   UNL     1       3.572  -1.238   0.000  0.00  0.00    +0.009 C 
BRANCH  23  25
ATOM     25  C   UNL     1       2.858  -2.475   0.000  0.00  0.00    +0.225 C 
ATOM     26  O   UNL     1       2.143  -2.888   0.000  0.00  0.00    -0.275 OA
ATOM     27  N   UNL     1       3.572  -2.888   0.000  0.00  0.00    -0.280 N 
BRANCH  27  28
ATOM     28  C   UNL     1       3.572  -3.712   0.000  0.00  0.00    +0.093 C 
ATOM     29  C   UNL     1       4.287  -4.125   0.000  0.00  0.00    +0.023 C 
ENDBRANCH  27  28
BRANCH  27  30
ATOM     30  C   UNL     1       4.287  -2.475   0.000  0.00  0.00    +0.093 C 
ATOM     31  C   UNL     1       5.001  -2.888   0.000  0.00  0.00    +0.023 C 
ENDBRANCH  27  30
ENDBRANCH  23  25
ENDBRANCH   1  23
TORSDOF 6
