REMARK  Name = 
REMARK  8 active torsions:
REMARK  status: ('A' for Active; 'I' for Inactive)
REMARK    1  A    between atoms: C_2  and  N_3
REMARK    2  A    between atoms: N_3  and  C_4
REMARK    3  A    between atoms: N_3  and  C_6
REMARK    4  A    between atoms: C_6  and  C_7
REMARK    5  A    between atoms: C_7  and  C_8
REMARK    6  A    between atoms: C_13  and  C_14
REMARK    7  A    between atoms: C_14  and  C_15
REMARK    8  A    between atoms: N_20  and  C_21
REMARK                            x       y       z     vdW  Elec       q    Type
REMARK                         _______ _______ _______ _____ _____    ______ ____
ROOT
ATOM      8  C   UNL     1       1.429  -5.775   0.000  0.00  0.00    +0.022 C 
ATOM      9  C   UNL     1       2.143  -5.362   0.000  0.00  0.00    +0.095 C 
ATOM     10  N   UNL     1       2.858  -5.775   0.000  0.00  0.00    -0.263 N 
ATOM     11  C   UNL     1       2.858  -6.600   0.000  0.00  0.00    +0.095 C 
ATOM     12  C   UNL     1       2.143  -7.013   0.000  0.00  0.00    +0.022 C 
ATOM     13  C   UNL     1       1.429  -6.600   0.000  0.00  0.00    +0.015 C 
ATOM     18  C   UNL     1       3.572  -5.362   0.000  0.00  0.00    +0.327 C 
ATOM     19  O   UNL     1       4.287  -5.775   0.000  0.00  0.00    -0.250 OA
ATOM     20  N   UNL     1       3.572  -4.537   0.000  0.00  0.00    -0.162 NA
ENDROOT
BRANCH  20  21
ATOM     21  C   UNL     1       4.287  -4.125   0.000  0.00  0.00    +0.075 A 
ATOM     22  C   UNL     1       4.287  -3.300   0.000  0.00  0.00    +0.017 A 
ATOM     23  C   UNL     1       5.001  -2.888   0.000  0.00  0.00    +0.001 A 
ATOM     24  C   UNL     1       5.716  -3.300   0.000  0.00  0.00    +0.000 A 
ATOM     25  C   UNL     1       5.716  -4.125   0.000  0.00  0.00    +0.001 A 
ATOM     26  C   UNL     1       5.001  -4.537   0.000  0.00  0.00    +0.017 A 
ENDBRANCH  20  21
BRANCH   8   7
ATOM      7  C   UNL     1       0.715  -5.362   0.000  0.00  0.00    +0.019 C 
BRANCH   7   6
ATOM      6  C   UNL     1       0.000  -5.775   0.000  0.00  0.00    +0.072 C 
BRANCH   6   3
ATOM      3  N   UNL     1      -0.715  -5.362   0.000  0.00  0.00    -0.273 NA
BRANCH   3   2
ATOM      1  C   UNL     1      -2.143  -5.362   0.000  0.00  0.00    +0.019 C 
ATOM      2  C   UNL     1      -1.429  -5.775   0.000  0.00  0.00    +0.072 C 
ENDBRANCH   3   2
BRANCH   3   4
ATOM      4  C   UNL     1      -0.715  -4.537   0.000  0.00  0.00    +0.072 C 
ATOM      5  C   UNL     1       0.000  -4.125   0.000  0.00  0.00    +0.019 C 
ENDBRANCH   3   4
ENDBRANCH   6   3
ENDBRANCH   7   6
ENDBRANCH   8   7
BRANCH  13  14
ATOM     14  C   UNL     1       0.715  -7.013   0.000  0.00  0.00    +0.114 C 
BRANCH  14  15
ATOM     15  C   UNL     1       0.715  -7.838   0.000  0.00  0.00    +0.365 C 
ATOM     16  O   UNL     1       1.429  -8.250   0.000  0.00  0.00    -0.246 OA
ATOM     17  O   UNL     1       0.000  -8.250   0.000  0.00  0.00    -0.246 OA
ENDBRANCH  14  15
ENDBRANCH  13  14
TORSDOF 8
