REMARK  Name = 
REMARK  3 active torsions:
REMARK  status: ('A' for Active; 'I' for Inactive)
REMARK    1  A    between atoms: C_2  and  N_3
REMARK    2  A    between atoms: N_6  and  C_7
REMARK    3  A    between atoms: C_13  and  C_14
REMARK                            x       y       z     vdW  Elec       q    Type
REMARK                         _______ _______ _______ _____ _____    ______ ____
ROOT
ATOM      7  C   UNL     1       5.708  -1.352   0.000  0.00  0.00    +0.130 C 
ATOM      8  C   UNL     1       5.794  -0.532   0.000  0.00  0.00    +0.202 C 
ATOM      9  O   UNL     1       5.181   0.020   0.000  0.00  0.00    -0.219 OA
ATOM     10  C   UNL     1       6.601  -0.360   0.000  0.00  0.00    +0.184 C 
ATOM     11  O   UNL     1       6.936   0.394   0.000  0.00  0.00    -0.220 OA
ATOM     12  C   UNL     1       7.013  -1.075   0.000  0.00  0.00    +0.037 C 
ATOM     13  C   UNL     1       6.461  -1.688   0.000  0.00  0.00    +0.025 C 
ENDROOT
BRANCH  13  14
ATOM     14  C   UNL     1       6.633  -2.495   0.000  0.00  0.00    +0.002 C 
ATOM     15  C   UNL     1       7.418  -2.749   0.000  0.00  0.00    +0.000 C 
ATOM     16  C   UNL     1       7.589  -3.557   0.000  0.00  0.00    +0.000 C 
ATOM     17  C   UNL     1       6.976  -4.109   0.000  0.00  0.00    +0.000 C 
ATOM     18  C   UNL     1       6.191  -3.854   0.000  0.00  0.00    +0.000 C 
ATOM     19  C   UNL     1       6.020  -3.047   0.000  0.00  0.00    +0.000 C 
ENDBRANCH  13  14
BRANCH   7   6
ATOM      3  N   UNL     1       3.564  -1.765   0.000  0.00  0.00    -0.187 NA
ATOM      4  C   UNL     1       4.279  -1.352   0.000  0.00  0.00    +0.339 C 
ATOM      5  O   UNL     1       4.279  -0.527   0.000  0.00  0.00    -0.249 OA
ATOM      6  N   UNL     1       4.993  -1.765   0.000  0.00  0.00    -0.186 NA
BRANCH   3   2
ATOM      1  C   UNL     1       2.135  -1.765   0.000  0.00  0.00    +0.025 C 
ATOM      2  C   UNL     1       2.850  -1.352   0.000  0.00  0.00    +0.117 C 
ENDBRANCH   3   2
ENDBRANCH   7   6
TORSDOF 3
