REMARK  Name = 
REMARK  7 active torsions:
REMARK  status: ('A' for Active; 'I' for Inactive)
REMARK    1  A    between atoms: O_2  and  C_3
REMARK    2  A    between atoms: C_6  and  C_9
REMARK    3  A    between atoms: C_12  and  C_13
REMARK    4  A    between atoms: C_13  and  C_14
REMARK    5  A    between atoms: C_16  and  C_17
REMARK    6  A    between atoms: C_20  and  C_21
REMARK    7  A    between atoms: C_21  and  N_22
REMARK                            x       y       z     vdW  Elec       q    Type
REMARK                         _______ _______ _______ _____ _____    ______ ____
ROOT
ATOM     14  C   UNL     1       3.177  -3.273   0.000  0.00  0.00    +0.027 C 
ATOM     15  C   UNL     1       2.692  -3.941   0.000  0.00  0.00    +0.005 C 
ATOM     16  C   UNL     1       1.871  -3.854   0.000  0.00  0.00    +0.006 C 
ATOM     20  C   UNL     1       1.536  -3.101   0.000  0.00  0.00    +0.037 C 
ATOM     29  C   UNL     1       2.021  -2.433   0.000  0.00  0.00    -0.034 C 
ATOM     30  C   UNL     1       2.841  -2.519   0.000  0.00  0.00    -0.048 C 
ATOM     31  C   UNL     1       3.326  -1.852   0.000  0.00  0.00    +0.026 C 
ENDROOT
BRANCH  16  17
ATOM     17  C   UNL     1       1.386  -4.522   0.000  0.00  0.00    +0.000 C 
ATOM     18  C   UNL     1       0.566  -4.436   0.000  0.00  0.00    +0.000 C 
ATOM     19  C   UNL     1       1.722  -5.275   0.000  0.00  0.00    +0.000 C 
ENDBRANCH  16  17
BRANCH  14  13
ATOM     13  C   UNL     1       3.997  -3.359   0.000  0.00  0.00    +0.091 C 
BRANCH  13  12
ATOM      9  C   UNL     1       4.895  -1.422   0.000  0.00  0.00    +0.250 A 
ATOM     10  N   UNL     1       5.562  -1.907   0.000  0.00  0.00    -0.107 NA
ATOM     11  N   UNL     1       5.307  -2.692   0.000  0.00  0.00    -0.111 NA
ATOM     12  C   UNL     1       4.482  -2.692   0.000  0.00  0.00    +0.227 A 
ATOM     32  O   UNL     1       4.227  -1.907   0.000  0.00  0.00    -0.420 OA
BRANCH   9   6
ATOM      3  C   UNL     1       4.895   1.053   0.000  0.00  0.00    +0.139 A 
ATOM      4  C   UNL     1       5.609   0.640   0.000  0.00  0.00    +0.037 A 
ATOM      5  C   UNL     1       5.609  -0.185   0.000  0.00  0.00    +0.008 A 
ATOM      6  C   UNL     1       4.895  -0.597   0.000  0.00  0.00    +0.055 A 
ATOM      7  C   UNL     1       4.180  -0.185   0.000  0.00  0.00    +0.008 A 
ATOM      8  C   UNL     1       4.180   0.640   0.000  0.00  0.00    +0.037 A 
BRANCH   3   2
ATOM      1  C   UNL     1       4.180   2.290   0.000  0.00  0.00    +0.252 C 
ATOM      2  O   UNL     1       4.895   1.878   0.000  0.00  0.00    -0.471 OA
ENDBRANCH   3   2
ENDBRANCH   9   6
ENDBRANCH  13  12
ENDBRANCH  14  13
BRANCH  20  21
ATOM     21  C   UNL     1       0.715  -3.014   0.000  0.00  0.00    +0.076 C 
BRANCH  21  22
ATOM     22  N   UNL     1       0.380  -2.261   0.000  0.00  0.00    -0.272 NA
ATOM     23  C   UNL     1      -0.441  -2.174   0.000  0.00  0.00    +0.075 C 
ATOM     24  C   UNL     1      -0.776  -1.421   0.000  0.00  0.00    +0.050 C 
ATOM     25  C   UNL     1      -0.291  -0.753   0.000  0.00  0.00    +0.155 C 
ATOM     26  O   UNL     1      -0.627   0.000   0.000  0.00  0.00    -0.223 OA
ATOM     27  C   UNL     1       0.529  -0.840   0.000  0.00  0.00    +0.050 C 
ATOM     28  C   UNL     1       0.865  -1.593   0.000  0.00  0.00    +0.075 C 
ENDBRANCH  21  22
ENDBRANCH  20  21
TORSDOF 7
