REMARK  Name = 
REMARK  6 active torsions:
REMARK  status: ('A' for Active; 'I' for Inactive)
REMARK    1  A    between atoms: C_8  and  C_10
REMARK    2  A    between atoms: C_10  and  C_11
REMARK    3  A    between atoms: C_16  and  C_17
REMARK    4  A    between atoms: C_17  and  C_18
REMARK    5  A    between atoms: C_21  and  C_23
REMARK    6  A    between atoms: C_26  and  C_29
REMARK                            x       y       z     vdW  Elec       q    Type
REMARK                         _______ _______ _______ _____ _____    ______ ____
ROOT
ATOM     11  C   UNL     1       1.429   0.825   0.000  0.00  0.00    +0.012 C 
ATOM     12  C   UNL     1       2.143   1.238   0.000  0.00  0.00    +0.019 C 
ATOM     13  C   UNL     1       2.858   0.825   0.000  0.00  0.00    +0.089 C 
ATOM     14  N   UNL     1       2.858   0.000   0.000  0.00  0.00    -0.218 NA
ATOM     15  C   UNL     1       2.143  -0.412   0.000  0.00  0.00    +0.089 C 
ATOM     16  C   UNL     1       1.429   0.000   0.000  0.00  0.00    +0.024 C 
ENDROOT
BRANCH  11  10
ATOM     10  C   UNL     1       0.715   1.238   0.000  0.00  0.00    +0.085 C 
BRANCH  10   8
ATOM      1  C   UNL     1      -2.143   3.712   0.000  0.00  0.00    +0.090 C 
ATOM      2  N   UNL     1      -1.429   3.300   0.000  0.00  0.00    -0.269 NA
ATOM      3  C   UNL     1      -0.715   3.712   0.000  0.00  0.00    +0.094 C 
ATOM      4  C   UNL     1       0.000   3.300   0.000  0.00  0.00    +0.111 C 
ATOM      5  N   UNL     1       0.000   2.475   0.000  0.00  0.00    -0.277 N 
ATOM      6  C   UNL     1      -0.715   2.062   0.000  0.00  0.00    +0.111 C 
ATOM      7  C   UNL     1      -1.429   2.475   0.000  0.00  0.00    +0.094 C 
ATOM      8  C   UNL     1       0.715   2.062   0.000  0.00  0.00    +0.226 C 
ATOM      9  O   UNL     1       1.429   2.475   0.000  0.00  0.00    -0.275 OA
ENDBRANCH  10   8
ENDBRANCH  11  10
BRANCH  16  17
ATOM     17  C   UNL     1       0.715  -0.412   0.000  0.00  0.00    +0.051 C 
BRANCH  17  18
ATOM     18  C   UNL     1       0.715  -1.238   0.000  0.00  0.00    +0.101 A 
ATOM     19  N   UNL     1       1.382  -1.722   0.000  0.00  0.00    -0.081 NA
ATOM     20  O   UNL     1       1.127  -2.507   0.000  0.00  0.00    -0.354 OA
ATOM     21  C   UNL     1       0.302  -2.507   0.000  0.00  0.00    +0.177 A 
ATOM     22  C   UNL     1       0.047  -1.722   0.000  0.00  0.00    +0.058 A 
BRANCH  21  23
ATOM     23  C   UNL     1      -0.183  -3.175   0.000  0.00  0.00    +0.037 A 
ATOM     24  C   UNL     1       0.153  -3.928   0.000  0.00  0.00    +0.003 A 
ATOM     25  C   UNL     1      -0.332  -4.596   0.000  0.00  0.00    -0.004 A 
ATOM     26  C   UNL     1      -1.153  -4.509   0.000  0.00  0.00    -0.023 A 
ATOM     27  C   UNL     1      -1.488  -3.756   0.000  0.00  0.00    -0.004 A 
ATOM     28  C   UNL     1      -1.003  -3.088   0.000  0.00  0.00    +0.003 A 
BRANCH  26  29
ATOM     29  C   UNL     1      -1.638  -5.177   0.000  0.00  0.00    +0.019 C 
ATOM     30  C   UNL     1      -2.123  -5.844   0.000  0.00  0.00    +0.004 C 
ATOM     31  C   UNL     1      -2.305  -4.692   0.000  0.00  0.00    +0.004 C 
ATOM     32  C   UNL     1      -0.970  -5.662   0.000  0.00  0.00    +0.004 C 
ENDBRANCH  26  29
ENDBRANCH  21  23
ENDBRANCH  17  18
ENDBRANCH  16  17
TORSDOF 6
