REMARK  Name = 
REMARK  6 active torsions:
REMARK  status: ('A' for Active; 'I' for Inactive)
REMARK    1  A    between atoms: C_2  and  C_3
REMARK    2  A    between atoms: C_5  and  C_6
REMARK    3  A    between atoms: C_6  and  C_7
REMARK    4  A    between atoms: C_10  and  C_11
REMARK    5  A    between atoms: C_11  and  O_12
REMARK    6  A    between atoms: O_12  and  C_13
REMARK                            x       y       z     vdW  Elec       q    Type
REMARK                         _______ _______ _______ _____ _____    ______ ____
ROOT
ATOM      7  C   UNL     1       1.429  -2.475   0.000  0.00  0.00    +0.103 A 
ATOM      8  N   UNL     1       2.096  -2.960   0.000  0.00  0.00    -0.082 NA
ATOM      9  O   UNL     1       1.841  -3.744   0.000  0.00  0.00    -0.354 OA
ATOM     10  C   UNL     1       1.016  -3.744   0.000  0.00  0.00    +0.198 A 
ATOM     19  C   UNL     1       0.761  -2.960   0.000  0.00  0.00    +0.057 A 
ENDROOT
BRANCH   7   6
ATOM      6  C   UNL     1       1.429  -1.650   0.000  0.00  0.00    +0.079 C 
BRANCH   6   5
ATOM      3  C   UNL     1       3.572  -1.238   0.000  0.00  0.00    +0.164 C 
ATOM      4  O   UNL     1       2.858  -1.650   0.000  0.00  0.00    -0.354 OA
ATOM      5  C   UNL     1       2.143  -1.238   0.000  0.00  0.00    +0.121 C 
ATOM     20  C   UNL     1       2.143  -0.412   0.000  0.00  0.00    +0.033 C 
ATOM     21  C   UNL     1       2.858   0.000   0.000  0.00  0.00    +0.038 C 
ATOM     22  C   UNL     1       3.572  -0.412   0.000  0.00  0.00    +0.180 C 
ATOM     23  O   UNL     1       4.287   0.000   0.000  0.00  0.00    -0.220 OA
BRANCH   3   2
ATOM      1  N   UNL     1       5.001  -1.238   0.000  0.00  0.00    -0.129 NA
ATOM      2  C   UNL     1       4.287  -1.650   0.000  0.00  0.00    +0.141 C 
ENDBRANCH   3   2
ENDBRANCH   6   5
ENDBRANCH   7   6
BRANCH  10  11
ATOM     11  C   UNL     1       0.531  -4.412   0.000  0.00  0.00    +0.272 C 
BRANCH  11  12
ATOM     12  O   UNL     1       0.867  -5.166   0.000  0.00  0.00    -0.467 OA
BRANCH  12  13
ATOM     13  C   UNL     1       0.382  -5.833   0.000  0.00  0.00    +0.139 A 
ATOM     14  C   UNL     1       0.718  -6.587   0.000  0.00  0.00    +0.037 A 
ATOM     15  C   UNL     1       0.233  -7.254   0.000  0.00  0.00    +0.003 A 
ATOM     16  C   UNL     1      -0.588  -7.168   0.000  0.00  0.00    +0.000 A 
ATOM     17  C   UNL     1      -0.923  -6.414   0.000  0.00  0.00    +0.003 A 
ATOM     18  C   UNL     1      -0.438  -5.747   0.000  0.00  0.00    +0.037 A 
ENDBRANCH  12  13
ENDBRANCH  11  12
ENDBRANCH  10  11
TORSDOF 6
