REMARK  Name = 
REMARK  4 active torsions:
REMARK  status: ('A' for Active; 'I' for Inactive)
REMARK    1  A    between atoms: C_6  and  C_7
REMARK    2  A    between atoms: C_7  and  N_8
REMARK    3  A    between atoms: C_11  and  C_13
REMARK    4  A    between atoms: C_19  and  C_22
REMARK                            x       y       z     vdW  Elec       q    Type
REMARK                         _______ _______ _______ _____ _____    ______ ____
ROOT
ATOM      8  N   UNL     1      -2.723  -1.110   0.000  0.00  0.00    -0.269 NA
ATOM      9  C   UNL     1      -2.723  -0.285   0.000  0.00  0.00    +0.073 C 
ATOM     10  C   UNL     1      -1.938  -0.030   0.000  0.00  0.00    +0.026 C 
ATOM     11  C   UNL     1      -1.453  -0.698   0.000  0.00  0.00    +0.076 C 
ATOM     12  C   UNL     1      -1.938  -1.365   0.000  0.00  0.00    +0.080 C 
ENDROOT
BRANCH  11  13
ATOM     13  C   UNL     1      -0.628  -0.698   0.000  0.00  0.00    +0.140 A 
ATOM     14  N   UNL     1      -0.143  -1.365   0.000  0.00  0.00    -0.229 NA
ATOM     15  C   UNL     1       0.641  -1.110   0.000  0.00  0.00    +0.100 A 
ATOM     16  C   UNL     1       0.641  -0.285   0.000  0.00  0.00    +0.100 A 
ATOM     17  N   UNL     1      -0.143  -0.030   0.000  0.00  0.00    -0.229 NA
ATOM     18  C   UNL     1       1.356   0.127   0.000  0.00  0.00    +0.025 A 
ATOM     19  C   UNL     1       2.070  -0.285   0.000  0.00  0.00    +0.073 A 
ATOM     20  C   UNL     1       2.070  -1.110   0.000  0.00  0.00    +0.005 A 
ATOM     21  C   UNL     1       1.356  -1.523   0.000  0.00  0.00    +0.021 A 
BRANCH  19  22
ATOM     22  C   UNL     1       2.784   0.127   0.000  0.00  0.00    +0.419 C 
ATOM     23  F   UNL     1       3.499   0.540   0.000  0.00  0.00    -0.166 F 
ATOM     24  F   UNL     1       3.197  -0.587   0.000  0.00  0.00    -0.166 F 
ATOM     25  F   UNL     1       2.372   0.842   0.000  0.00  0.00    -0.166 F 
ENDBRANCH  19  22
ENDBRANCH  11  13
BRANCH   8   7
ATOM      7  C   UNL     1      -3.390  -1.595   0.000  0.00  0.00    +0.099 C 
BRANCH   7   6
ATOM      1  F   UNL     1      -6.405  -0.253   0.000  0.00  0.00    -0.202 F 
ATOM      2  C   UNL     1      -5.651  -0.589   0.000  0.00  0.00    +0.167 A 
ATOM      3  C   UNL     1      -4.984  -0.104   0.000  0.00  0.00    +0.167 A 
ATOM      4  F   UNL     1      -5.070   0.717   0.000  0.00  0.00    -0.202 F 
ATOM      5  C   UNL     1      -4.230  -0.439   0.000  0.00  0.00    +0.029 A 
ATOM      6  C   UNL     1      -4.144  -1.260   0.000  0.00  0.00    -0.004 A 
ATOM     26  C   UNL     1      -4.811  -1.745   0.000  0.00  0.00    -0.000 A 
ATOM     27  C   UNL     1      -5.565  -1.409   0.000  0.00  0.00    +0.032 A 
ENDBRANCH   7   6
ENDBRANCH   8   7
TORSDOF 4
