REMARK  Name = 
REMARK  5 active torsions:
REMARK  status: ('A' for Active; 'I' for Inactive)
REMARK    1  A    between atoms: C_3  and  C_4
REMARK    2  A    between atoms: C_4  and  N_5
REMARK    3  A    between atoms: N_8  and  C_9
REMARK    4  A    between atoms: C_16  and  C_17
REMARK    5  A    between atoms: C_17  and  C_18
REMARK                            x       y       z     vdW  Elec       q    Type
REMARK                         _______ _______ _______ _____ _____    ______ ____
ROOT
ATOM      1  O   UNL     1       1.429  -4.125   0.000  0.00  0.00    -0.218 OA
ATOM      2  C   UNL     1       1.429  -4.950   0.000  0.00  0.00    +0.213 C 
ATOM      3  C   UNL     1       2.096  -5.435   0.000  0.00  0.00    +0.170 C 
ATOM     15  O   UNL     1       1.841  -6.220   0.000  0.00  0.00    -0.351 OA
ATOM     16  C   UNL     1       1.016  -6.220   0.000  0.00  0.00    +0.157 C 
ATOM     32  C   UNL     1       0.761  -5.435   0.000  0.00  0.00    +0.212 C 
ATOM     33  O   UNL     1      -0.023  -5.180   0.000  0.00  0.00    -0.218 OA
ENDROOT
BRANCH   3   4
ATOM      4  C   UNL     1       2.881  -5.180   0.000  0.00  0.00    +0.149 C 
BRANCH   4   5
ATOM      5  N   UNL     1       3.053  -4.373   0.000  0.00  0.00    -0.184 NA
ATOM      6  C   UNL     1       3.837  -4.118   0.000  0.00  0.00    +0.344 C 
ATOM      7  O   UNL     1       4.450  -4.670   0.000  0.00  0.00    -0.249 OA
ATOM      8  N   UNL     1       4.009  -3.311   0.000  0.00  0.00    -0.161 NA
BRANCH   8   9
ATOM      9  C   UNL     1       4.793  -3.056   0.000  0.00  0.00    +0.075 A 
ATOM     10  C   UNL     1       4.965  -2.249   0.000  0.00  0.00    +0.017 A 
ATOM     11  C   UNL     1       5.749  -1.994   0.000  0.00  0.00    +0.001 A 
ATOM     12  C   UNL     1       6.362  -2.546   0.000  0.00  0.00    +0.000 A 
ATOM     13  C   UNL     1       6.191  -3.353   0.000  0.00  0.00    +0.001 A 
ATOM     14  C   UNL     1       5.406  -3.608   0.000  0.00  0.00    +0.017 A 
ENDBRANCH   8   9
ENDBRANCH   4   5
ENDBRANCH   3   4
BRANCH  16  17
ATOM     17  C   UNL     1       0.531  -6.887   0.000  0.00  0.00    +0.117 C 
BRANCH  17  18
ATOM     18  C   UNL     1       0.867  -7.641   0.000  0.00  0.00    +0.228 C 
ATOM     19  O   UNL     1       1.688  -7.727   0.000  0.00  0.00    -0.275 OA
ATOM     20  N   UNL     1       0.382  -8.308   0.000  0.00  0.00    -0.276 N 
ATOM     21  C   UNL     1       0.718  -9.062   0.000  0.00  0.00    +0.115 C 
ATOM     22  C   UNL     1       0.233  -9.729   0.000  0.00  0.00    +0.114 C 
ATOM     23  N   UNL     1      -0.588  -9.643   0.000  0.00  0.00    -0.290 N 
ATOM     24  C   UNL     1      -0.923  -8.889   0.000  0.00  0.00    +0.114 C 
ATOM     25  C   UNL     1      -0.438  -8.222   0.000  0.00  0.00    +0.115 C 
ATOM     26  C   UNL     1      -1.073 -10.310   0.000  0.00  0.00    +0.132 A 
ATOM     27  N   UNL     1      -0.737 -11.064   0.000  0.00  0.00    -0.229 NA
ATOM     28  C   UNL     1      -1.222 -11.732   0.000  0.00  0.00    +0.100 A 
ATOM     29  C   UNL     1      -2.042 -11.645   0.000  0.00  0.00    +0.021 A 
ATOM     30  C   UNL     1      -2.378 -10.892   0.000  0.00  0.00    +0.004 A 
ATOM     31  C   UNL     1      -1.893 -10.224   0.000  0.00  0.00    +0.034 A 
ENDBRANCH  17  18
ENDBRANCH  16  17
TORSDOF 5
