REMARK  Name = 
REMARK  3 active torsions:
REMARK  status: ('A' for Active; 'I' for Inactive)
REMARK    1  A    between atoms: C_5  and  S_8
REMARK    2  A    between atoms: S_8  and  N_11
REMARK    3  A    between atoms: N_17  and  C_18
REMARK                            x       y       z     vdW  Elec       q    Type
REMARK                         _______ _______ _______ _____ _____    ______ ____
ROOT
ATOM     11  N   UNL     1       3.352   1.935   0.000  0.00  0.00    -0.152 NA
ATOM     12  C   UNL     1       3.352   1.110   0.000  0.00  0.00    +0.117 C 
ATOM     13  C   UNL     1       2.638   0.698   0.000  0.00  0.00    +0.114 C 
ATOM     14  N   UNL     1       1.923   1.110   0.000  0.00  0.00    -0.261 N 
ATOM     15  C   UNL     1       1.923   1.935   0.000  0.00  0.00    +0.114 C 
ATOM     16  C   UNL     1       1.139   2.190   0.000  0.00  0.00    +0.116 C 
ATOM     17  N   UNL     1       0.654   1.523   0.000  0.00  0.00    -0.264 N 
ATOM     24  C   UNL     1       1.139   0.856   0.000  0.00  0.00    +0.307 C 
ATOM     25  O   UNL     1       0.884   0.071   0.000  0.00  0.00    -0.252 OA
ATOM     26  C   UNL     1       2.638   2.348   0.000  0.00  0.00    +0.117 C 
ENDROOT
BRANCH  17  18
ATOM     18  C   UNL     1      -0.171   1.523   0.000  0.00  0.00    +0.077 C 
ATOM     19  C   UNL     1      -0.584   0.808   0.000  0.00  0.00    +0.020 C 
ATOM     20  C   UNL     1      -1.409   0.808   0.000  0.00  0.00    +0.002 C 
ATOM     21  C   UNL     1      -1.821   1.523   0.000  0.00  0.00    +0.000 C 
ATOM     22  C   UNL     1      -1.409   2.237   0.000  0.00  0.00    +0.002 C 
ATOM     23  C   UNL     1      -0.584   2.237   0.000  0.00  0.00    +0.020 C 
ENDBRANCH  17  18
BRANCH  11   8
ATOM      8  S   UNL     1       4.067   2.348   0.000  0.00  0.00    +0.063 S 
ATOM      9  O   UNL     1       3.654   3.062   0.000  0.00  0.00    -0.153 OA
ATOM     10  O   UNL     1       4.479   1.633   0.000  0.00  0.00    -0.153 OA
BRANCH   8   5
ATOM      1  F   UNL     1       6.925   3.998   0.000  0.00  0.00    -0.204 F 
ATOM      2  C   UNL     1       6.210   3.585   0.000  0.00  0.00    +0.140 A 
ATOM      3  C   UNL     1       6.210   2.760   0.000  0.00  0.00    +0.031 A 
ATOM      4  C   UNL     1       5.496   2.348   0.000  0.00  0.00    +0.022 A 
ATOM      5  C   UNL     1       4.781   2.760   0.000  0.00  0.00    +0.122 A 
ATOM      6  C   UNL     1       4.781   3.585   0.000  0.00  0.00    +0.022 A 
ATOM      7  C   UNL     1       5.496   3.998   0.000  0.00  0.00    +0.031 A 
ENDBRANCH   8   5
ENDBRANCH  11   8
TORSDOF 3
