REMARK  Name = 
REMARK  4 active torsions:
REMARK  status: ('A' for Active; 'I' for Inactive)
REMARK    1  A    between atoms: C_5  and  C_6
REMARK    2  A    between atoms: C_6  and  N_7
REMARK    3  A    between atoms: C_12  and  C_13
REMARK    4  A    between atoms: N_15  and  C_16
REMARK                            x       y       z     vdW  Elec       q    Type
REMARK                         _______ _______ _______ _____ _____    ______ ____
ROOT
ATOM      7  N   UNL     1       2.070   1.110   0.000  0.00  0.00    -0.257 NA
ATOM      8  C   UNL     1       1.356   0.698   0.000  0.00  0.00    +0.121 C 
ATOM      9  C   UNL     1       0.641   1.110   0.000  0.00  0.00    +0.090 A 
ATOM     10  C   UNL     1       0.641   1.935   0.000  0.00  0.00    +0.077 A 
ATOM     11  C   UNL     1       1.356   2.348   0.000  0.00  0.00    +0.072 C 
ATOM     12  C   UNL     1       2.070   1.935   0.000  0.00  0.00    +0.143 C 
ATOM     22  N   UNL     1      -0.143   2.190   0.000  0.00  0.00    -0.227 NA
ATOM     23  C   UNL     1      -0.628   1.523   0.000  0.00  0.00    +0.198 A 
ATOM     24  N   UNL     1      -0.143   0.856   0.000  0.00  0.00    -0.226 NA
ENDROOT
BRANCH  12  13
ATOM     13  C   UNL     1       2.784   2.348   0.000  0.00  0.00    +0.256 C 
ATOM     14  O   UNL     1       3.499   1.935   0.000  0.00  0.00    -0.272 OA
ATOM     15  N   UNL     1       2.784   3.173   0.000  0.00  0.00    -0.206 NA
BRANCH  15  16
ATOM     16  C   UNL     1       3.499   3.585   0.000  0.00  0.00    +0.095 C 
ATOM     17  C   UNL     1       3.499   4.410   0.000  0.00  0.00    +0.022 C 
ATOM     18  C   UNL     1       4.213   4.823   0.000  0.00  0.00    +0.002 C 
ATOM     19  C   UNL     1       4.928   4.410   0.000  0.00  0.00    +0.000 C 
ATOM     20  C   UNL     1       4.928   3.585   0.000  0.00  0.00    +0.002 C 
ATOM     21  C   UNL     1       4.213   3.173   0.000  0.00  0.00    +0.022 C 
ENDBRANCH  15  16
ENDBRANCH  12  13
BRANCH   7   6
ATOM      6  C   UNL     1       2.784   0.698   0.000  0.00  0.00    +0.100 C 
BRANCH   6   5
ATOM      1 CL   UNL     1       2.784  -2.602   0.000  0.00  0.00    -0.082 Cl
ATOM      2  C   UNL     1       2.784  -1.777   0.000  0.00  0.00    +0.058 A 
ATOM      3  C   UNL     1       2.070  -1.365   0.000  0.00  0.00    +0.011 A 
ATOM      4  C   UNL     1       2.070  -0.540   0.000  0.00  0.00    -0.002 A 
ATOM      5  C   UNL     1       2.784  -0.127   0.000  0.00  0.00    -0.006 A 
ATOM     25  C   UNL     1       3.499  -0.540   0.000  0.00  0.00    -0.002 A 
ATOM     26  C   UNL     1       3.499  -1.365   0.000  0.00  0.00    +0.011 A 
ENDBRANCH   6   5
ENDBRANCH   7   6
TORSDOF 4
