REMARK  Name = 
REMARK  5 active torsions:
REMARK  status: ('A' for Active; 'I' for Inactive)
REMARK    1  A    between atoms: C_5  and  O_6
REMARK    2  A    between atoms: O_6  and  C_7
REMARK    3  A    between atoms: C_7  and  C_8
REMARK    4  A    between atoms: C_11  and  C_13
REMARK    5  A    between atoms: C_22  and  C_24
REMARK                            x       y       z     vdW  Elec       q    Type
REMARK                         _______ _______ _______ _____ _____    ______ ____
ROOT
ATOM     13  C   UNL     1       1.127  -4.977   0.000  0.00  0.00    +0.100 C 
ATOM     14  C   UNL     1       1.382  -5.762   0.000  0.00  0.00    +0.033 C 
ATOM     15  C   UNL     1       0.715  -6.247   0.000  0.00  0.00    +0.094 C 
ATOM     16  N   UNL     1       0.047  -5.762   0.000  0.00  0.00    -0.278 N 
ATOM     17  C   UNL     1       0.302  -4.977   0.000  0.00  0.00    +0.103 C 
ATOM     18  C   UNL     1      -0.738  -6.017   0.000  0.00  0.00    +0.220 A 
ATOM     19  N   UNL     1      -0.909  -6.824   0.000  0.00  0.00    -0.212 NA
ATOM     20  C   UNL     1      -1.694  -7.079   0.000  0.00  0.00    +0.103 A 
ATOM     21  C   UNL     1      -2.307  -6.527   0.000  0.00  0.00    +0.044 A 
ATOM     22  C   UNL     1      -2.135  -5.720   0.000  0.00  0.00    +0.157 A 
ATOM     23  N   UNL     1      -1.351  -5.465   0.000  0.00  0.00    -0.210 NA
ENDROOT
BRANCH  13  11
ATOM      8  C   UNL     1       2.024  -3.041   0.000  0.00  0.00    +0.270 A 
ATOM      9  N   UNL     1       2.692  -3.525   0.000  0.00  0.00    -0.108 NA
ATOM     10  N   UNL     1       2.437  -4.310   0.000  0.00  0.00    -0.112 NA
ATOM     11  C   UNL     1       1.612  -4.310   0.000  0.00  0.00    +0.228 A 
ATOM     12  O   UNL     1       1.357  -3.525   0.000  0.00  0.00    -0.420 OA
BRANCH   8   7
ATOM      7  C   UNL     1       2.024  -2.216   0.000  0.00  0.00    +0.291 C 
BRANCH   7   6
ATOM      6  O   UNL     1       2.739  -1.803   0.000  0.00  0.00    -0.465 OA
BRANCH   6   5
ATOM      1  F   UNL     1       2.739   1.497   0.000  0.00  0.00    -0.204 F 
ATOM      2  C   UNL     1       2.739   0.672   0.000  0.00  0.00    +0.140 A 
ATOM      3  C   UNL     1       3.453   0.260   0.000  0.00  0.00    +0.033 A 
ATOM      4  C   UNL     1       3.453  -0.566   0.000  0.00  0.00    +0.039 A 
ATOM      5  C   UNL     1       2.739  -0.978   0.000  0.00  0.00    +0.139 A 
ATOM     28  C   UNL     1       2.024  -0.566   0.000  0.00  0.00    +0.039 A 
ATOM     29  C   UNL     1       2.024   0.260   0.000  0.00  0.00    +0.033 A 
ENDBRANCH   6   5
ENDBRANCH   7   6
ENDBRANCH   8   7
ENDBRANCH  13  11
BRANCH  22  24
ATOM     24  C   UNL     1      -2.748  -5.168   0.000  0.00  0.00    +0.435 C 
ATOM     25  F   UNL     1      -3.361  -4.616   0.000  0.00  0.00    -0.164 F 
ATOM     26  F   UNL     1      -2.196  -4.555   0.000  0.00  0.00    -0.164 F 
ATOM     27  F   UNL     1      -3.300  -5.781   0.000  0.00  0.00    -0.164 F 
ENDBRANCH  22  24
TORSDOF 5
