REMARK  Name = 
REMARK  6 active torsions:
REMARK  status: ('A' for Active; 'I' for Inactive)
REMARK    1  A    between atoms: C_5  and  O_6
REMARK    2  A    between atoms: O_6  and  C_7
REMARK    3  A    between atoms: C_7  and  C_8
REMARK    4  A    between atoms: C_11  and  C_13
REMARK    5  A    between atoms: N_16  and  C_17
REMARK    6  A    between atoms: C_17  and  C_18
REMARK                            x       y       z     vdW  Elec       q    Type
REMARK                         _______ _______ _______ _____ _____    ______ ____
ROOT
ATOM      8  C   UNL     1       1.429   4.704   0.000  0.00  0.00    +0.270 A 
ATOM      9  N   UNL     1       2.096   4.219   0.000  0.00  0.00    -0.108 NA
ATOM     10  N   UNL     1       1.841   3.434   0.000  0.00  0.00    -0.112 NA
ATOM     11  C   UNL     1       1.016   3.434   0.000  0.00  0.00    +0.227 A 
ATOM     12  O   UNL     1       0.761   4.219   0.000  0.00  0.00    -0.420 OA
ENDROOT
BRANCH  11  13
ATOM     13  C   UNL     1       0.531   2.767   0.000  0.00  0.00    +0.096 C 
ATOM     14  C   UNL     1       0.786   1.982   0.000  0.00  0.00    +0.028 C 
ATOM     15  C   UNL     1       0.119   1.497   0.000  0.00  0.00    +0.073 C 
ATOM     16  N   UNL     1      -0.548   1.982   0.000  0.00  0.00    -0.266 NA
ATOM     23  C   UNL     1      -0.293   2.767   0.000  0.00  0.00    +0.082 C 
BRANCH  16  17
ATOM     17  C   UNL     1      -1.333   1.727   0.000  0.00  0.00    +0.139 C 
BRANCH  17  18
ATOM     18  C   UNL     1      -1.946   2.279   0.000  0.00  0.00    +0.155 A 
ATOM     19  N   UNL     1      -2.753   2.107   0.000  0.00  0.00    -0.226 NA
ATOM     20  C   UNL     1      -3.166   2.822   0.000  0.00  0.00    +0.121 A 
ATOM     21  C   UNL     1      -2.614   3.435   0.000  0.00  0.00    +0.121 A 
ATOM     22  N   UNL     1      -1.860   3.099   0.000  0.00  0.00    -0.226 NA
ENDBRANCH  17  18
ENDBRANCH  16  17
ENDBRANCH  11  13
BRANCH   8   7
ATOM      7  C   UNL     1       1.429   5.529   0.000  0.00  0.00    +0.291 C 
BRANCH   7   6
ATOM      6  O   UNL     1       2.143   5.941   0.000  0.00  0.00    -0.465 OA
BRANCH   6   5
ATOM      1  F   UNL     1       2.143   9.241   0.000  0.00  0.00    -0.204 F 
ATOM      2  C   UNL     1       2.143   8.416   0.000  0.00  0.00    +0.140 A 
ATOM      3  C   UNL     1       2.858   8.004   0.000  0.00  0.00    +0.033 A 
ATOM      4  C   UNL     1       2.858   7.179   0.000  0.00  0.00    +0.039 A 
ATOM      5  C   UNL     1       2.143   6.766   0.000  0.00  0.00    +0.139 A 
ATOM     24  C   UNL     1       1.429   7.179   0.000  0.00  0.00    +0.039 A 
ATOM     25  C   UNL     1       1.429   8.004   0.000  0.00  0.00    +0.033 A 
ENDBRANCH   6   5
ENDBRANCH   7   6
ENDBRANCH   8   7
TORSDOF 6
