REMARK  Name = 
REMARK  6 active torsions:
REMARK  status: ('A' for Active; 'I' for Inactive)
REMARK    1  A    between atoms: C_3  and  N_18
REMARK    2  A    between atoms: C_6  and  C_7
REMARK    3  A    between atoms: C_7  and  N_8
REMARK    4  A    between atoms: N_11  and  C_12
REMARK    5  A    between atoms: N_18  and  C_19
REMARK    6  A    between atoms: C_19  and  C_20
REMARK                            x       y       z     vdW  Elec       q    Type
REMARK                         _______ _______ _______ _____ _____    ______ ____
ROOT
ATOM      1  O   UNL     1      -1.487  -6.308   0.000  0.00  0.00    -0.219 OA
ATOM      2  C   UNL     1      -1.315  -5.501   0.000  0.00  0.00    +0.199 C 
ATOM      3  C   UNL     1      -1.868  -4.888   0.000  0.00  0.00    +0.135 C 
ATOM      4  C   UNL     1      -1.455  -4.174   0.000  0.00  0.00    +0.162 C 
ATOM      5  O   UNL     1      -0.648  -4.345   0.000  0.00  0.00    -0.350 OA
ATOM      6  C   UNL     1      -0.562  -5.166   0.000  0.00  0.00    +0.169 C 
ENDROOT
BRANCH   6   7
ATOM      7  C   UNL     1       0.153  -5.578   0.000  0.00  0.00    +0.149 C 
BRANCH   7   8
ATOM      8  N   UNL     1       0.867  -5.166   0.000  0.00  0.00    -0.184 NA
ATOM      9  C   UNL     1       1.581  -5.578   0.000  0.00  0.00    +0.344 C 
ATOM     10  O   UNL     1       1.581  -6.403   0.000  0.00  0.00    -0.249 OA
ATOM     11  N   UNL     1       2.296  -5.166   0.000  0.00  0.00    -0.161 NA
BRANCH  11  12
ATOM     12  C   UNL     1       3.010  -5.578   0.000  0.00  0.00    +0.075 A 
ATOM     13  C   UNL     1       3.725  -5.166   0.000  0.00  0.00    +0.017 A 
ATOM     14  C   UNL     1       4.439  -5.578   0.000  0.00  0.00    +0.001 A 
ATOM     15  C   UNL     1       4.439  -6.403   0.000  0.00  0.00    +0.000 A 
ATOM     16  C   UNL     1       3.725  -6.816   0.000  0.00  0.00    +0.001 A 
ATOM     17  C   UNL     1       3.010  -6.403   0.000  0.00  0.00    +0.017 A 
ENDBRANCH  11  12
ENDBRANCH   7   8
ENDBRANCH   6   7
BRANCH   3  18
ATOM     18  N   UNL     1      -2.688  -4.974   0.000  0.00  0.00    -0.209 NA
BRANCH  18  19
ATOM     19  C   UNL     1      -3.024  -5.728   0.000  0.00  0.00    +0.117 C 
BRANCH  19  20
ATOM     20  C   UNL     1      -3.844  -5.814   0.000  0.00  0.00    +0.023 A 
ATOM     21  C   UNL     1      -4.180  -6.568   0.000  0.00  0.00    -0.001 A 
ATOM     22  C   UNL     1      -5.000  -6.654   0.000  0.00  0.00    -0.000 A 
ATOM     23  C   UNL     1      -5.485  -5.987   0.000  0.00  0.00    +0.002 A 
ATOM     24  C   UNL     1      -5.149  -5.233   0.000  0.00  0.00    +0.029 A 
ATOM     25  C   UNL     1      -4.329  -5.147   0.000  0.00  0.00    +0.137 A 
ATOM     26  F   UNL     1      -3.994  -4.393   0.000  0.00  0.00    -0.204 F 
ENDBRANCH  19  20
ENDBRANCH  18  19
ENDBRANCH   3  18
TORSDOF 6
