REMARK  Name = 
REMARK  5 active torsions:
REMARK  status: ('A' for Active; 'I' for Inactive)
REMARK    1  A    between atoms: C_2  and  C_5
REMARK    2  A    between atoms: C_14  and  C_16
REMARK    3  A    between atoms: C_24  and  C_25
REMARK    4  A    between atoms: C_25  and  C_26
REMARK    5  A    between atoms: N_28  and  C_29
REMARK                            x       y       z     vdW  Elec       q    Type
REMARK                         _______ _______ _______ _____ _____    ______ ____
ROOT
ATOM      5  C   UNL     1       5.365  -0.302   0.000  0.00  0.00    +0.246 C 
ATOM      6  O   UNL     1       4.952  -1.016   0.000  0.00  0.00    -0.273 OA
ATOM      7  N   UNL     1       4.952   0.412   0.000  0.00  0.00    -0.154 NA
ATOM      8  C   UNL     1       4.127   0.412   0.000  0.00  0.00    +0.185 A 
ATOM      9  N   UNL     1       3.643   1.080   0.000  0.00  0.00    -0.227 NA
ATOM     10  C   UNL     1       2.858   0.825   0.000  0.00  0.00    +0.063 A 
ATOM     11  C   UNL     1       2.858   0.000   0.000  0.00  0.00    +0.023 A 
ATOM     12  C   UNL     1       2.143  -0.412   0.000  0.00  0.00    +0.034 C 
ATOM     13  C   UNL     1       1.429   0.000   0.000  0.00  0.00    +0.010 C 
ATOM     14  C   UNL     1       0.715  -0.412   0.000  0.00  0.00    +0.059 C 
ATOM     15  C   UNL     1       1.245  -1.044   0.000  0.00  0.00    +0.005 C 
ATOM     18  C   UNL     1       0.000   0.000   0.000  0.00  0.00    +0.154 C 
ATOM     19  O   UNL     1      -0.715  -0.412   0.000  0.00  0.00    -0.223 OA
ATOM     20  C   UNL     1       0.000   0.825   0.000  0.00  0.00    +0.033 C 
ATOM     21  C   UNL     1       0.715   1.238   0.000  0.00  0.00    +0.003 C 
ATOM     22  C   UNL     1       1.429   0.825   0.000  0.00  0.00    +0.006 C 
ATOM     23  C   UNL     1       1.429   1.650   0.000  0.00  0.00    +0.000 C 
ATOM     24  C   UNL     1       2.143   1.238   0.000  0.00  0.00    +0.050 C 
ATOM     36  S   UNL     1       3.643  -0.255   0.000  0.00  0.00    -0.054 S 
ENDROOT
BRANCH   5   2
ATOM      1  C   UNL     1       7.015  -0.302   0.000  0.00  0.00    +0.009 C 
ATOM      2  C   UNL     1       6.190  -0.302   0.000  0.00  0.00    +0.071 C 
ATOM      3  C   UNL     1       6.190   0.523   0.000  0.00  0.00    +0.009 C 
ATOM      4  C   UNL     1       6.190  -1.127   0.000  0.00  0.00    +0.009 C 
ENDBRANCH   5   2
BRANCH  14  16
ATOM     16  C   UNL     1       0.184  -1.044   0.000  0.00  0.00    +0.184 C 
ATOM     17  O   UNL     1      -0.628  -0.901   0.000  0.00  0.00    -0.220 OA
ENDBRANCH  14  16
BRANCH  24  25
ATOM     25  C   UNL     1       2.143   2.062   0.000  0.00  0.00    +0.093 C 
BRANCH  25  26
ATOM     26  C   UNL     1       2.858   2.475   0.000  0.00  0.00    +0.246 C 
ATOM     27  O   UNL     1       3.572   2.062   0.000  0.00  0.00    -0.273 OA
ATOM     28  N   UNL     1       2.858   3.300   0.000  0.00  0.00    -0.179 NA
BRANCH  28  29
ATOM     29  C   UNL     1       3.572   3.712   0.000  0.00  0.00    +0.077 A 
ATOM     30  C   UNL     1       3.572   4.537   0.000  0.00  0.00    +0.059 A 
ATOM     31  C   UNL     1       4.287   4.950   0.000  0.00  0.00    +0.197 A 
ATOM     32  O   UNL     1       4.287   5.775   0.000  0.00  0.00    -0.287 OA
ATOM     33  C   UNL     1       5.001   4.537   0.000  0.00  0.00    +0.042 A 
ATOM     34  C   UNL     1       5.001   3.712   0.000  0.00  0.00    +0.005 A 
ATOM     35  C   UNL     1       4.287   3.300   0.000  0.00  0.00    +0.017 A 
ENDBRANCH  28  29
ENDBRANCH  25  26
ENDBRANCH  24  25
TORSDOF 5
