REMARK  Name = 
REMARK  4 active torsions:
REMARK  status: ('A' for Active; 'I' for Inactive)
REMARK    1  A    between atoms: N_7  and  C_10
REMARK    2  A    between atoms: C_16  and  N_17
REMARK    3  A    between atoms: N_17  and  C_18
REMARK    4  A    between atoms: C_18  and  C_19
REMARK                            x       y       z     vdW  Elec       q    Type
REMARK                         _______ _______ _______ _____ _____    ______ ____
ROOT
ATOM     10  C   UNL     1       1.387  -3.015   0.000  0.00  0.00    +0.147 C 
ATOM     11  C   UNL     1       0.639  -3.636   0.000  0.00  0.00    +0.253 C 
ATOM     12  O   UNL     1       0.695  -4.517   0.000  0.00  0.00    -0.327 OA
ATOM     13  C   UNL     1       0.931  -3.830   0.000  0.00  0.00    +0.176 C 
ATOM     14  C   UNL     1       0.725  -3.080   0.000  0.00  0.00    +0.166 C 
ATOM     15  O   UNL     1       0.012  -3.100   0.000  0.00  0.00    -0.328 OA
ATOM     16  C   UNL     1       1.429  -2.475   0.000  0.00  0.00    +0.135 C 
ATOM     28  C   UNL     1       2.058  -3.015   0.000  0.00  0.00    +0.190 C 
ATOM     29  O   UNL     1       2.831  -3.302   0.000  0.00  0.00    -0.220 OA
ENDROOT
BRANCH  10   7
ATOM      1  C   UNL     1       3.320  -6.264   0.000  0.00  0.00    +0.095 C 
ATOM      2  C   UNL     1       2.508  -6.119   0.000  0.00  0.00    +0.226 C 
ATOM      3  O   UNL     1       1.976  -6.750   0.000  0.00  0.00    -0.275 OA
ATOM      4  N   UNL     1       2.228  -5.343   0.000  0.00  0.00    -0.277 N 
ATOM      5  C   UNL     1       1.416  -5.198   0.000  0.00  0.00    +0.111 C 
ATOM      6  C   UNL     1       1.135  -4.422   0.000  0.00  0.00    +0.094 C 
ATOM      7  N   UNL     1       1.667  -3.791   0.000  0.00  0.00    -0.265 NA
ATOM      8  C   UNL     1       2.479  -3.937   0.000  0.00  0.00    +0.094 C 
ATOM      9  C   UNL     1       2.760  -4.712   0.000  0.00  0.00    +0.111 C 
ENDBRANCH  10   7
BRANCH  16  17
ATOM     17  N   UNL     1       1.429  -1.650   0.000  0.00  0.00    -0.209 NA
BRANCH  17  18
ATOM     18  C   UNL     1       0.715  -1.238   0.000  0.00  0.00    +0.115 C 
BRANCH  18  19
ATOM     19  C   UNL     1       0.715  -0.412   0.000  0.00  0.00    -0.002 A 
ATOM     20  C   UNL     1       0.000   0.000   0.000  0.00  0.00    +0.000 A 
ATOM     21  C   UNL     1       0.000   0.825   0.000  0.00  0.00    +0.040 A 
ATOM     22  C   UNL     1       0.715   1.238   0.000  0.00  0.00    +0.176 A 
ATOM     23  O   UNL     1       0.886   2.045   0.000  0.00  0.00    -0.435 OA
ATOM     24  C   UNL     1       1.706   2.131   0.000  0.00  0.00    +0.429 C 
ATOM     25  O   UNL     1       2.042   1.377   0.000  0.00  0.00    -0.435 OA
ATOM     26  C   UNL     1       1.429   0.825   0.000  0.00  0.00    +0.176 A 
ATOM     27  C   UNL     1       1.429   0.000   0.000  0.00  0.00    +0.037 A 
ENDBRANCH  18  19
ENDBRANCH  17  18
ENDBRANCH  16  17
TORSDOF 4
