REMARK  Name = 
REMARK  7 active torsions:
REMARK  status: ('A' for Active; 'I' for Inactive)
REMARK    1  A    between atoms: O_2  and  C_3
REMARK    2  A    between atoms: C_5  and  O_6
REMARK    3  A    between atoms: C_9  and  N_10
REMARK    4  A    between atoms: C_11  and  O_13
REMARK    5  A    between atoms: O_13  and  C_14
REMARK    6  A    between atoms: C_18  and  N_22
REMARK    7  A    between atoms: C_23  and  C_25
REMARK                            x       y       z     vdW  Elec       q    Type
REMARK                         _______ _______ _______ _____ _____    ______ ____
ROOT
ATOM     14  C   UNL     1       1.270  -0.922   0.000  0.00  0.00    +0.229 C 
ATOM     15  C   UNL     1       0.785  -0.255   0.000  0.00  0.00    +0.188 C 
ATOM     16  O   UNL     1       1.270   0.412   0.000  0.00  0.00    -0.348 OA
ATOM     17  C   UNL     1       2.054   0.158   0.000  0.00  0.00    +0.168 C 
ATOM     18  C   UNL     1       2.839   0.412   0.000  0.00  0.00    +0.155 C 
ATOM     19  C   UNL     1       3.324  -0.255   0.000  0.00  0.00    +0.166 C 
ATOM     20  O   UNL     1       2.839  -0.922   0.000  0.00  0.00    -0.348 OA
ATOM     21  C   UNL     1       2.054  -0.667   0.000  0.00  0.00    +0.186 C 
ENDROOT
BRANCH  18  22
ATOM     22  N   UNL     1       3.094   1.197   0.000  0.00  0.00    -0.198 NA
ATOM     23  C   UNL     1       2.542   1.810   0.000  0.00  0.00    +0.271 C 
ATOM     24  O   UNL     1       1.735   1.639   0.000  0.00  0.00    -0.268 OA
BRANCH  23  25
ATOM     25  C   UNL     1       2.797   2.595   0.000  0.00  0.00    +0.084 A 
ATOM     26  C   UNL     1       2.312   3.262   0.000  0.00  0.00    +0.012 A 
ATOM     27  C   UNL     1       2.797   3.930   0.000  0.00  0.00    +0.008 A 
ATOM     28  C   UNL     1       3.581   3.675   0.000  0.00  0.00    +0.036 A 
ATOM     29  S   UNL     1       3.581   2.850   0.000  0.00  0.00    -0.082 S 
ENDBRANCH  23  25
ENDBRANCH  18  22
BRANCH  14  13
ATOM     13  O   UNL     1       1.015  -1.707   0.000  0.00  0.00    -0.432 OA
BRANCH  13  11
ATOM     10  N   UNL     1      -0.047  -2.663   0.000  0.00  0.00    -0.142 NA
ATOM     11  C   UNL     1       0.208  -1.879   0.000  0.00  0.00    +0.425 C 
ATOM     12  O   UNL     1      -0.344  -1.265   0.000  0.00  0.00    -0.224 OA
BRANCH  10   9
ATOM      3  C   UNL     1      -1.916  -3.791   0.000  0.00  0.00    +0.143 A 
ATOM      4  C   UNL     1      -2.468  -3.178   0.000  0.00  0.00    +0.074 A 
ATOM      5  C   UNL     1      -2.213  -2.393   0.000  0.00  0.00    +0.143 A 
ATOM      8  C   UNL     1      -1.406  -2.222   0.000  0.00  0.00    +0.054 A 
ATOM      9  C   UNL     1      -0.854  -2.835   0.000  0.00  0.00    +0.083 A 
ATOM     30  C   UNL     1      -1.109  -3.619   0.000  0.00  0.00    +0.054 A 
BRANCH   3   2
ATOM      1  C   UNL     1      -2.978  -4.747   0.000  0.00  0.00    +0.252 C 
ATOM      2  O   UNL     1      -2.171  -4.575   0.000  0.00  0.00    -0.471 OA
ENDBRANCH   3   2
BRANCH   5   6
ATOM      6  O   UNL     1      -2.765  -1.780   0.000  0.00  0.00    -0.471 OA
ATOM      7  C   UNL     1      -2.510  -0.995   0.000  0.00  0.00    +0.252 C 
ENDBRANCH   5   6
ENDBRANCH  10   9
ENDBRANCH  13  11
ENDBRANCH  14  13
TORSDOF 7
