REMARK  Name = 
REMARK  8 active torsions:
REMARK  status: ('A' for Active; 'I' for Inactive)
REMARK    1  A    between atoms: C_2  and  C_3
REMARK    2  A    between atoms: C_3  and  C_4
REMARK    3  A    between atoms: C_9  and  C_10
REMARK    4  A    between atoms: C_10  and  C_11
REMARK    5  A    between atoms: C_14  and  C_15
REMARK    6  A    between atoms: C_15  and  O_16
REMARK    7  A    between atoms: O_16  and  C_17
REMARK    8  A    between atoms: C_27  and  N_30
REMARK                            x       y       z     vdW  Elec       q    Type
REMARK                         _______ _______ _______ _____ _____    ______ ____
ROOT
ATOM      4  C   UNL     1       0.416  -5.902   0.000  0.00  0.00    +0.012 C 
ATOM      5  C   UNL     1       0.968  -6.515   0.000  0.00  0.00    +0.019 C 
ATOM      6  C   UNL     1       0.713  -7.299   0.000  0.00  0.00    +0.089 C 
ATOM      7  N   UNL     1      -0.094  -7.471   0.000  0.00  0.00    -0.218 NA
ATOM      8  C   UNL     1      -0.646  -6.858   0.000  0.00  0.00    +0.089 C 
ATOM      9  C   UNL     1      -0.391  -6.073   0.000  0.00  0.00    +0.024 C 
ENDROOT
BRANCH   4   3
ATOM      3  C   UNL     1       0.671  -5.117   0.000  0.00  0.00    +0.085 C 
BRANCH   3   2
ATOM      1  O   UNL     1      -0.688  -4.675   0.000  0.00  0.00    -0.275 OA
ATOM      2  C   UNL     1       0.119  -4.504   0.000  0.00  0.00    +0.226 C 
ATOM     24  N   UNL     1       0.374  -3.719   0.000  0.00  0.00    -0.279 N 
ATOM     25  C   UNL     1      -0.178  -3.106   0.000  0.00  0.00    +0.095 C 
ATOM     26  C   UNL     1       0.077  -2.321   0.000  0.00  0.00    +0.044 C 
ATOM     27  C   UNL     1       0.884  -2.150   0.000  0.00  0.00    +0.093 C 
ATOM     28  C   UNL     1       1.436  -2.763   0.000  0.00  0.00    +0.044 C 
ATOM     29  C   UNL     1       1.181  -3.548   0.000  0.00  0.00    +0.095 C 
BRANCH  27  30
ATOM     30  N   UNL     1       1.139  -1.365   0.000  0.00  0.00    -0.280 N 
ATOM     31  C   UNL     1       0.654  -0.698   0.000  0.00  0.00    +0.350 A 
ATOM     32  O   UNL     1      -0.171  -0.698   0.000  0.00  0.00    -0.244 OA
ATOM     33  N   UNL     1       1.139  -0.030   0.000  0.00  0.00    -0.191 NA
ATOM     34  C   UNL     1       1.923  -0.285   0.000  0.00  0.00    +0.102 A 
ATOM     35  C   UNL     1       2.638   0.127   0.000  0.00  0.00    +0.021 A 
ATOM     36  C   UNL     1       3.352  -0.285   0.000  0.00  0.00    +0.002 A 
ATOM     37  C   UNL     1       3.352  -1.110   0.000  0.00  0.00    +0.002 A 
ATOM     38  C   UNL     1       2.638  -1.523   0.000  0.00  0.00    +0.019 A 
ATOM     39  C   UNL     1       1.923  -1.110   0.000  0.00  0.00    +0.082 A 
ENDBRANCH  27  30
ENDBRANCH   3   2
ENDBRANCH   4   3
BRANCH   9  10
ATOM     10  C   UNL     1      -0.943  -5.460   0.000  0.00  0.00    +0.051 C 
BRANCH  10  11
ATOM     11  C   UNL     1      -1.750  -5.631   0.000  0.00  0.00    +0.100 A 
ATOM     12  N   UNL     1      -2.086  -6.385   0.000  0.00  0.00    -0.082 NA
ATOM     13  O   UNL     1      -2.906  -6.299   0.000  0.00  0.00    -0.354 OA
ATOM     14  C   UNL     1      -3.078  -5.492   0.000  0.00  0.00    +0.198 A 
ATOM     23  C   UNL     1      -2.363  -5.080   0.000  0.00  0.00    +0.057 A 
BRANCH  14  15
ATOM     15  C   UNL     1      -3.831  -5.157   0.000  0.00  0.00    +0.272 C 
BRANCH  15  16
ATOM     16  O   UNL     1      -4.499  -5.641   0.000  0.00  0.00    -0.467 OA
BRANCH  16  17
ATOM     17  C   UNL     1      -5.252  -5.306   0.000  0.00  0.00    +0.139 A 
ATOM     18  C   UNL     1      -5.920  -5.791   0.000  0.00  0.00    +0.037 A 
ATOM     19  C   UNL     1      -6.673  -5.455   0.000  0.00  0.00    +0.003 A 
ATOM     20  C   UNL     1      -6.760  -4.635   0.000  0.00  0.00    +0.000 A 
ATOM     21  C   UNL     1      -6.092  -4.150   0.000  0.00  0.00    +0.003 A 
ATOM     22  C   UNL     1      -5.338  -4.485   0.000  0.00  0.00    +0.037 A 
ENDBRANCH  16  17
ENDBRANCH  15  16
ENDBRANCH  14  15
ENDBRANCH  10  11
ENDBRANCH   9  10
TORSDOF 8
