REMARK  Name = 
REMARK  8 active torsions:
REMARK  status: ('A' for Active; 'I' for Inactive)
REMARK    1  A    between atoms: O_2  and  C_3
REMARK    2  A    between atoms: C_6  and  C_9
REMARK    3  A    between atoms: N_11  and  C_12
REMARK    4  A    between atoms: C_12  and  C_13
REMARK    5  A    between atoms: C_20  and  C_21
REMARK    6  A    between atoms: C_23  and  C_27
REMARK    7  A    between atoms: C_30  and  O_31
REMARK    8  A    between atoms: C_33  and  O_34
REMARK                            x       y       z     vdW  Elec       q    Type
REMARK                         _______ _______ _______ _____ _____    ______ ____
ROOT
ATOM     13  C   UNL     1       1.814  -2.106   0.000  0.00  0.00    +0.079 C 
ATOM     14  C   UNL     1       1.661  -1.343   0.000  0.00  0.00    +0.018 C 
ATOM     15  C   UNL     1       0.923  -1.010   0.000  0.00  0.00    +0.010 C 
ATOM     16  C   UNL     1       0.961  -0.114   0.000  0.00  0.00    +0.018 C 
ATOM     17  C   UNL     1       1.205  -0.720   0.000  0.00  0.00    +0.072 C 
ATOM     18  N   UNL     1       1.065  -1.759   0.000  0.00  0.00    -0.272 NA
ATOM     19  C   UNL     1       0.226  -2.118   0.000  0.00  0.00    +0.078 C 
ATOM     20  C   UNL     1       0.119  -1.362   0.000  0.00  0.00    +0.056 C 
ENDROOT
BRANCH  20  21
ATOM     21  C   UNL     1      -0.602  -0.960   0.000  0.00  0.00    +0.058 A 
ATOM     22  C   UNL     1      -1.350  -1.307   0.000  0.00  0.00    +0.035 A 
ATOM     23  C   UNL     1      -1.911  -0.703   0.000  0.00  0.00    +0.102 A 
ATOM     24  N   UNL     1      -1.510   0.018   0.000  0.00  0.00    -0.170 NA
ATOM     25  N   UNL     1      -0.700  -0.141   0.000  0.00  0.00    -0.253 N 
ATOM     26  C   UNL     1      -0.095   0.420   0.000  0.00  0.00    +0.153 C 
BRANCH  23  27
ATOM     27  C   UNL     1      -2.730  -0.801   0.000  0.00  0.00    +0.023 A 
ATOM     28  C   UNL     1      -3.055  -1.560   0.000  0.00  0.00    +0.005 A 
ATOM     29  C   UNL     1      -3.874  -1.658   0.000  0.00  0.00    +0.040 A 
ATOM     30  C   UNL     1      -4.369  -0.998   0.000  0.00  0.00    +0.172 A 
ATOM     33  C   UNL     1      -4.044  -0.239   0.000  0.00  0.00    +0.172 A 
ATOM     36  C   UNL     1      -3.225  -0.141   0.000  0.00  0.00    +0.042 A 
BRANCH  30  31
ATOM     31  O   UNL     1      -5.188  -1.097   0.000  0.00  0.00    -0.468 OA
ATOM     32  C   UNL     1      -5.683  -0.437   0.000  0.00  0.00    +0.253 C 
ENDBRANCH  30  31
BRANCH  33  34
ATOM     34  O   UNL     1      -4.539   0.421   0.000  0.00  0.00    -0.468 OA
ATOM     35  C   UNL     1      -4.215   1.179   0.000  0.00  0.00    +0.253 C 
ENDBRANCH  33  34
ENDBRANCH  23  27
ENDBRANCH  20  21
BRANCH  13  12
ATOM     12  C   UNL     1       2.324  -2.754   0.000  0.00  0.00    +0.131 C 
BRANCH  12  11
ATOM      9  C   UNL     1       2.529  -4.168   0.000  0.00  0.00    +0.265 C 
ATOM     10  O   UNL     1       3.345  -4.050   0.000  0.00  0.00    -0.268 OA
ATOM     11  N   UNL     1       2.018  -3.520   0.000  0.00  0.00    -0.200 NA
BRANCH   9   6
ATOM      3  C   UNL     1       1.611  -6.466   0.000  0.00  0.00    +0.139 A 
ATOM      4  C   UNL     1       1.100  -5.818   0.000  0.00  0.00    +0.037 A 
ATOM      5  C   UNL     1       1.406  -5.052   0.000  0.00  0.00    +0.008 A 
ATOM      6  C   UNL     1       2.223  -4.934   0.000  0.00  0.00    +0.055 A 
ATOM      7  C   UNL     1       2.733  -5.582   0.000  0.00  0.00    +0.008 A 
ATOM      8  C   UNL     1       2.427  -6.348   0.000  0.00  0.00    +0.037 A 
BRANCH   3   2
ATOM      1  C   UNL     1       1.815  -7.880   0.000  0.00  0.00    +0.252 C 
ATOM      2  O   UNL     1       1.304  -7.232   0.000  0.00  0.00    -0.471 OA
ENDBRANCH   3   2
ENDBRANCH   9   6
ENDBRANCH  12  11
ENDBRANCH  13  12
TORSDOF 8
