REMARK  Name = 
REMARK  6 active torsions:
REMARK  status: ('A' for Active; 'I' for Inactive)
REMARK    1  A    between atoms: N_4  and  C_5
REMARK    2  A    between atoms: C_5  and  C_6
REMARK    3  A    between atoms: C_9  and  N_10
REMARK    4  A    between atoms: N_10  and  C_11
REMARK    5  A    between atoms: C_11  and  C_12
REMARK    6  A    between atoms: C_15  and  S_18
REMARK                            x       y       z     vdW  Elec       q    Type
REMARK                         _______ _______ _______ _____ _____    ______ ____
ROOT
ATOM     10  N   UNL     1       0.531  -4.412   0.000  0.00  0.00    -0.209 NA
ENDROOT
BRANCH  10   9
ATOM      6  C   UNL     1       1.429  -2.475   0.000  0.00  0.00    +0.169 C 
ATOM      7  O   UNL     1       2.096  -2.960   0.000  0.00  0.00    -0.350 OA
ATOM      8  C   UNL     1       1.841  -3.744   0.000  0.00  0.00    +0.162 C 
ATOM      9  C   UNL     1       1.016  -3.744   0.000  0.00  0.00    +0.135 C 
ATOM     22  C   UNL     1       0.761  -2.960   0.000  0.00  0.00    +0.199 C 
ATOM     23  O   UNL     1      -0.023  -2.705   0.000  0.00  0.00    -0.219 OA
BRANCH   6   5
ATOM      5  C   UNL     1       1.429  -1.650   0.000  0.00  0.00    +0.147 C 
BRANCH   5   4
ATOM      1  C   UNL     1       2.858   0.000   0.000  0.00  0.00    +0.096 C 
ATOM      2  C   UNL     1       2.143  -0.412   0.000  0.00  0.00    +0.242 C 
ATOM      3  O   UNL     1       1.429   0.000   0.000  0.00  0.00    -0.273 OA
ATOM      4  N   UNL     1       2.143  -1.238   0.000  0.00  0.00    -0.203 NA
ENDBRANCH   5   4
ENDBRANCH   6   5
ENDBRANCH  10   9
BRANCH  10  11
ATOM     11  C   UNL     1       0.867  -5.166   0.000  0.00  0.00    +0.115 C 
BRANCH  11  12
ATOM     12  C   UNL     1       0.382  -5.833   0.000  0.00  0.00    -0.005 A 
ATOM     13  C   UNL     1       0.718  -6.587   0.000  0.00  0.00    -0.002 A 
ATOM     14  C   UNL     1       0.233  -7.254   0.000  0.00  0.00    +0.018 A 
ATOM     15  C   UNL     1      -0.588  -7.168   0.000  0.00  0.00    +0.106 A 
ATOM     16  C   UNL     1      -0.923  -6.414   0.000  0.00  0.00    +0.018 A 
ATOM     17  C   UNL     1      -0.438  -5.747   0.000  0.00  0.00    -0.002 A 
BRANCH  15  18
ATOM     18  S   UNL     1      -1.073  -7.835   0.000  0.00  0.00    +0.010 S 
ATOM     19  C   UNL     1      -1.558  -8.503   0.000  0.00  0.00    +0.182 C 
ATOM     20  O   UNL     1      -1.740  -7.351   0.000  0.00  0.00    -0.169 OA
ATOM     21  O   UNL     1      -0.405  -8.320   0.000  0.00  0.00    -0.169 OA
ENDBRANCH  15  18
ENDBRANCH  11  12
ENDBRANCH  10  11
TORSDOF 6
