REMARK  Name = 
REMARK  2 active torsions:
REMARK  status: ('A' for Active; 'I' for Inactive)
REMARK    1  A    between atoms: N_4  and  C_5
REMARK    2  A    between atoms: C_8  and  C_9
REMARK                            x       y       z     vdW  Elec       q    Type
REMARK                         _______ _______ _______ _____ _____    ______ ____
ROOT
ATOM      5  C   UNL     1       0.568   1.114   0.000  0.00  0.00    +0.158 C 
ATOM      6  C   UNL     1       1.235   0.629   0.000  0.00  0.00    +0.166 C 
ATOM      7  O   UNL     1       0.980  -0.155   0.000  0.00  0.00    -0.349 OA
ATOM      8  C   UNL     1       0.155  -0.155   0.000  0.00  0.00    +0.180 C 
ATOM     11  C   UNL     1      -0.100   0.629   0.000  0.00  0.00    +0.204 C 
ATOM     12  O   UNL     1      -0.884   0.884   0.000  0.00  0.00    -0.219 OA
ENDROOT
BRANCH   5   4
ATOM      1  C   UNL     1       1.282   3.177   0.000  0.00  0.00    +0.096 C 
ATOM      2  C   UNL     1       1.282   2.352   0.000  0.00  0.00    +0.242 C 
ATOM      3  O   UNL     1       1.997   1.939   0.000  0.00  0.00    -0.273 OA
ATOM      4  N   UNL     1       0.568   1.939   0.000  0.00  0.00    -0.202 NA
ENDBRANCH   5   4
BRANCH   8   9
ATOM      9  C   UNL     1      -0.330  -0.823   0.000  0.00  0.00    +0.214 C 
ATOM     10  O   UNL     1       0.006  -1.576   0.000  0.00  0.00    -0.218 OA
ENDBRANCH   8   9
TORSDOF 2
