REMARK  Name = 
REMARK  3 active torsions:
REMARK  status: ('A' for Active; 'I' for Inactive)
REMARK    1  A    between atoms: C_1  and  N_2
REMARK    2  A    between atoms: C_1  and  C_16
REMARK    3  A    between atoms: C_5  and  C_7
REMARK                            x       y       z     vdW  Elec       q    Type
REMARK                         _______ _______ _______ _____ _____    ______ ____
ROOT
ATOM      2  N   UNL     1      -2.723  -1.110   0.000  0.00  0.00    -0.266 NA
ATOM      3  C   UNL     1      -2.723  -0.285   0.000  0.00  0.00    +0.073 C 
ATOM      4  C   UNL     1      -1.938  -0.030   0.000  0.00  0.00    +0.026 C 
ATOM      5  C   UNL     1      -1.453  -0.698   0.000  0.00  0.00    +0.076 C 
ATOM      6  C   UNL     1      -1.938  -1.365   0.000  0.00  0.00    +0.080 C 
ENDROOT
BRANCH   5   7
ATOM      7  C   UNL     1      -0.628  -0.698   0.000  0.00  0.00    +0.140 A 
ATOM      8  N   UNL     1      -0.143  -1.365   0.000  0.00  0.00    -0.229 NA
ATOM      9  C   UNL     1       0.641  -1.110   0.000  0.00  0.00    +0.100 A 
ATOM     10  C   UNL     1       0.641  -0.285   0.000  0.00  0.00    +0.100 A 
ATOM     11  N   UNL     1      -0.143  -0.030   0.000  0.00  0.00    -0.229 NA
ATOM     12  C   UNL     1       1.356   0.127   0.000  0.00  0.00    +0.021 A 
ATOM     13  C   UNL     1       2.070  -0.285   0.000  0.00  0.00    +0.002 A 
ATOM     14  C   UNL     1       2.070  -1.110   0.000  0.00  0.00    +0.002 A 
ATOM     15  C   UNL     1       1.356  -1.523   0.000  0.00  0.00    +0.021 A 
ENDBRANCH   5   7
BRANCH   2   1
ATOM      1  C   UNL     1      -3.390  -1.595   0.000  0.00  0.00    +0.139 C 
BRANCH   1  16
ATOM     16  C   UNL     1      -4.144  -1.260   0.000  0.00  0.00    +0.155 A 
ATOM     17  N   UNL     1      -4.859  -1.672   0.000  0.00  0.00    -0.226 NA
ATOM     18  C   UNL     1      -5.472  -1.120   0.000  0.00  0.00    +0.121 A 
ATOM     19  C   UNL     1      -5.136  -0.367   0.000  0.00  0.00    +0.121 A 
ATOM     20  N   UNL     1      -4.316  -0.453   0.000  0.00  0.00    -0.226 NA
ENDBRANCH   1  16
ENDBRANCH   2   1
TORSDOF 3
