REMARK  Name = 
REMARK  6 active torsions:
REMARK  status: ('A' for Active; 'I' for Inactive)
REMARK    1  A    between atoms: C_2  and  C_3
REMARK    2  A    between atoms: C_2  and  C_18
REMARK    3  A    between atoms: N_9  and  C_10
REMARK    4  A    between atoms: C_10  and  C_11
REMARK    5  A    between atoms: C_21  and  N_22
REMARK    6  A    between atoms: N_25  and  C_26
REMARK                            x       y       z     vdW  Elec       q    Type
REMARK                         _______ _______ _______ _____ _____    ______ ____
ROOT
ATOM      1  O   UNL     1       5.001  -1.238   0.000  0.00  0.00    -0.216 OA
ATOM      2  C   UNL     1       5.716  -1.650   0.000  0.00  0.00    +0.195 C 
ENDROOT
BRANCH   2   3
ATOM      3  C   UNL     1       5.716  -2.475   0.000  0.00  0.00    +0.140 C 
ATOM      4  C   UNL     1       6.430  -2.888   0.000  0.00  0.00    +0.165 C 
ATOM      5  O   UNL     1       6.430  -3.712   0.000  0.00  0.00    -0.343 OA
ATOM      6  C   UNL     1       5.716  -4.125   0.000  0.00  0.00    +0.227 C 
ATOM      7  C   UNL     1       5.001  -3.712   0.000  0.00  0.00    +0.256 C 
ATOM      8  O   UNL     1       4.287  -4.125   0.000  0.00  0.00    -0.272 OA
ATOM      9  N   UNL     1       5.001  -2.888   0.000  0.00  0.00    -0.270 N 
BRANCH   9  10
ATOM     10  C   UNL     1       4.287  -2.475   0.000  0.00  0.00    +0.123 C 
BRANCH  10  11
ATOM     11  C   UNL     1       3.572  -2.888   0.000  0.00  0.00    +0.025 A 
ATOM     12  C   UNL     1       3.572  -3.712   0.000  0.00  0.00    -0.000 A 
ATOM     13  C   UNL     1       2.858  -4.125   0.000  0.00  0.00    -0.000 A 
ATOM     14  C   UNL     1       2.143  -3.712   0.000  0.00  0.00    +0.002 A 
ATOM     15  C   UNL     1       2.143  -2.888   0.000  0.00  0.00    +0.029 A 
ATOM     16  C   UNL     1       2.858  -2.475   0.000  0.00  0.00    +0.138 A 
ATOM     17  F   UNL     1       2.858  -1.650   0.000  0.00  0.00    -0.204 F 
ENDBRANCH  10  11
ENDBRANCH   9  10
ENDBRANCH   2   3
BRANCH   2  18
ATOM     18  C   UNL     1       6.430  -1.238   0.000  0.00  0.00    +0.010 A 
ATOM     19  C   UNL     1       6.430  -0.412   0.000  0.00  0.00    -0.000 A 
ATOM     20  C   UNL     1       7.145   0.000   0.000  0.00  0.00    +0.016 A 
ATOM     21  C   UNL     1       7.859  -0.412   0.000  0.00  0.00    +0.075 A 
ATOM     32  C   UNL     1       7.859  -1.238   0.000  0.00  0.00    +0.016 A 
ATOM     33  C   UNL     1       7.145  -1.650   0.000  0.00  0.00    -0.000 A 
BRANCH  21  22
ATOM     22  N   UNL     1       8.574   0.000   0.000  0.00  0.00    -0.161 NA
ATOM     23  C   UNL     1       9.288  -0.412   0.000  0.00  0.00    +0.348 C 
ATOM     24  O   UNL     1       9.288  -1.238   0.000  0.00  0.00    -0.248 OA
ATOM     25  N   UNL     1      10.003   0.000   0.000  0.00  0.00    -0.161 NA
BRANCH  25  26
ATOM     26  C   UNL     1      10.717  -0.412   0.000  0.00  0.00    +0.075 A 
ATOM     27  C   UNL     1      11.431   0.000   0.000  0.00  0.00    +0.017 A 
ATOM     28  C   UNL     1      12.146  -0.412   0.000  0.00  0.00    +0.001 A 
ATOM     29  C   UNL     1      12.146  -1.238   0.000  0.00  0.00    +0.000 A 
ATOM     30  C   UNL     1      11.431  -1.650   0.000  0.00  0.00    +0.001 A 
ATOM     31  C   UNL     1      10.717  -1.238   0.000  0.00  0.00    +0.017 A 
ENDBRANCH  25  26
ENDBRANCH  21  22
ENDBRANCH   2  18
TORSDOF 6
