REMARK  Name = 
REMARK  6 active torsions:
REMARK  status: ('A' for Active; 'I' for Inactive)
REMARK    1  A    between atoms: S_2  and  N_5
REMARK    2  A    between atoms: N_5  and  C_6
REMARK    3  A    between atoms: C_6  and  C_7
REMARK    4  A    between atoms: C_9  and  C_10
REMARK    5  A    between atoms: C_10  and  C_11
REMARK    6  A    between atoms: N_16  and  C_19
REMARK                            x       y       z     vdW  Elec       q    Type
REMARK                         _______ _______ _______ _____ _____    ______ ____
ROOT
ATOM     10  C   UNL     1       2.326  -6.887   0.000  0.00  0.00    +0.117 C 
ENDROOT
BRANCH  10  11
ATOM     11  C   UNL     1       3.147  -6.801   0.000  0.00  0.00    +0.228 C 
ATOM     12  O   UNL     1       3.482  -6.047   0.000  0.00  0.00    -0.275 OA
ATOM     13  N   UNL     1       3.632  -7.468   0.000  0.00  0.00    -0.276 N 
ATOM     14  C   UNL     1       4.452  -7.382   0.000  0.00  0.00    +0.115 C 
ATOM     15  C   UNL     1       4.937  -8.049   0.000  0.00  0.00    +0.114 C 
ATOM     16  N   UNL     1       4.602  -8.803   0.000  0.00  0.00    -0.290 N 
ATOM     17  C   UNL     1       3.781  -8.889   0.000  0.00  0.00    +0.114 C 
ATOM     18  C   UNL     1       3.296  -8.222   0.000  0.00  0.00    +0.115 C 
BRANCH  16  19
ATOM     19  C   UNL     1       5.087  -9.470   0.000  0.00  0.00    +0.132 A 
ATOM     20  C   UNL     1       5.907  -9.384   0.000  0.00  0.00    +0.034 A 
ATOM     21  C   UNL     1       6.392 -10.052   0.000  0.00  0.00    +0.004 A 
ATOM     22  C   UNL     1       6.056 -10.805   0.000  0.00  0.00    +0.021 A 
ATOM     23  C   UNL     1       5.236 -10.892   0.000  0.00  0.00    +0.100 A 
ATOM     24  N   UNL     1       4.751 -10.224   0.000  0.00  0.00    -0.229 NA
ENDBRANCH  16  19
ENDBRANCH  10  11
BRANCH  10   9
ATOM      7  C   UNL     1       1.429  -4.950   0.000  0.00  0.00    +0.167 C 
ATOM      8  O   UNL     1       2.096  -5.435   0.000  0.00  0.00    -0.351 OA
ATOM      9  C   UNL     1       1.841  -6.220   0.000  0.00  0.00    +0.157 C 
ATOM     25  C   UNL     1       1.016  -6.220   0.000  0.00  0.00    +0.212 C 
ATOM     26  O   UNL     1       0.531  -6.887   0.000  0.00  0.00    -0.218 OA
ATOM     27  C   UNL     1       0.761  -5.435   0.000  0.00  0.00    +0.213 C 
ATOM     28  O   UNL     1      -0.023  -5.180   0.000  0.00  0.00    -0.218 OA
BRANCH   7   6
ATOM      6  C   UNL     1       1.429  -4.125   0.000  0.00  0.00    +0.147 C 
BRANCH   6   5
ATOM      5  N   UNL     1       0.715  -3.712   0.000  0.00  0.00    -0.079 NA
BRANCH   5   2
ATOM      1  C   UNL     1       0.715  -2.062   0.000  0.00  0.00    +0.197 C 
ATOM      2  S   UNL     1       0.715  -2.888   0.000  0.00  0.00    +0.059 S 
ATOM      3  O   UNL     1      -0.111  -2.888   0.000  0.00  0.00    -0.156 OA
ATOM      4  O   UNL     1       1.540  -2.888   0.000  0.00  0.00    -0.156 OA
ENDBRANCH   5   2
ENDBRANCH   6   5
ENDBRANCH   7   6
ENDBRANCH  10   9
TORSDOF 6
