REMARK  Name = 
REMARK  6 active torsions:
REMARK  status: ('A' for Active; 'I' for Inactive)
REMARK    1  A    between atoms: C_5  and  S_8
REMARK    2  A    between atoms: S_8  and  N_11
REMARK    3  A    between atoms: N_11  and  C_12
REMARK    4  A    between atoms: C_16  and  O_20
REMARK    5  A    between atoms: O_20  and  C_21
REMARK    6  A    between atoms: N_23  and  C_24
REMARK                            x       y       z     vdW  Elec       q    Type
REMARK                         _______ _______ _______ _____ _____    ______ ____
ROOT
ATOM     12  C   UNL     1      -2.059  -4.067   0.000  0.00  0.00    +0.157 C 
ATOM     13  C   UNL     1      -1.973  -3.247   0.000  0.00  0.00    +0.164 C 
ATOM     14  O   UNL     1      -1.166  -3.075   0.000  0.00  0.00    -0.348 OA
ATOM     15  C   UNL     1      -0.754  -3.789   0.000  0.00  0.00    +0.186 C 
ATOM     16  C   UNL     1       0.000  -4.125   0.000  0.00  0.00    +0.229 C 
ATOM     17  C   UNL     1      -0.086  -4.946   0.000  0.00  0.00    +0.188 C 
ATOM     18  O   UNL     1      -0.893  -5.117   0.000  0.00  0.00    -0.348 OA
ATOM     19  C   UNL     1      -1.306  -4.402   0.000  0.00  0.00    +0.166 C 
ENDROOT
BRANCH  12  11
ATOM     11  N   UNL     1      -2.774  -4.479   0.000  0.00  0.00    -0.074 NA
BRANCH  11   8
ATOM      8  S   UNL     1      -3.488  -4.067   0.000  0.00  0.00    +0.077 S 
ATOM      9  O   UNL     1      -3.901  -4.781   0.000  0.00  0.00    -0.152 OA
ATOM     10  O   UNL     1      -3.076  -3.353   0.000  0.00  0.00    -0.152 OA
BRANCH   8   5
ATOM      1 CL   UNL     1      -6.346  -2.417   0.000  0.00  0.00    -0.082 Cl
ATOM      2  C   UNL     1      -5.632  -2.829   0.000  0.00  0.00    +0.058 A 
ATOM      3  C   UNL     1      -4.917  -2.417   0.000  0.00  0.00    +0.013 A 
ATOM      4  C   UNL     1      -4.203  -2.829   0.000  0.00  0.00    +0.021 A 
ATOM      5  C   UNL     1      -4.203  -3.655   0.000  0.00  0.00    +0.124 A 
ATOM      6  C   UNL     1      -4.917  -4.067   0.000  0.00  0.00    +0.021 A 
ATOM      7  C   UNL     1      -5.632  -3.655   0.000  0.00  0.00    +0.013 A 
ENDBRANCH   8   5
ENDBRANCH  11   8
ENDBRANCH  12  11
BRANCH  16  20
ATOM     20  O   UNL     1       0.715  -3.712   0.000  0.00  0.00    -0.432 OA
BRANCH  20  21
ATOM     21  C   UNL     1       0.715  -2.888   0.000  0.00  0.00    +0.425 C 
ATOM     22  O   UNL     1       0.000  -2.475   0.000  0.00  0.00    -0.224 OA
ATOM     23  N   UNL     1       1.429  -2.475   0.000  0.00  0.00    -0.142 NA
BRANCH  23  24
ATOM     24  C   UNL     1       1.429  -1.650   0.000  0.00  0.00    +0.077 A 
ATOM     25  C   UNL     1       0.715  -1.238   0.000  0.00  0.00    +0.017 A 
ATOM     26  C   UNL     1       0.715  -0.412   0.000  0.00  0.00    +0.001 A 
ATOM     27  C   UNL     1       1.429   0.000   0.000  0.00  0.00    +0.000 A 
ATOM     28  C   UNL     1       2.143  -0.412   0.000  0.00  0.00    +0.001 A 
ATOM     29  C   UNL     1       2.858   0.000   0.000  0.00  0.00    +0.000 A 
ATOM     30  C   UNL     1       3.572  -0.412   0.000  0.00  0.00    +0.000 A 
ATOM     31  C   UNL     1       3.572  -1.238   0.000  0.00  0.00    +0.000 A 
ATOM     32  C   UNL     1       2.858  -1.650   0.000  0.00  0.00    +0.001 A 
ATOM     33  C   UNL     1       2.143  -1.238   0.000  0.00  0.00    +0.015 A 
ENDBRANCH  23  24
ENDBRANCH  20  21
ENDBRANCH  16  20
TORSDOF 6
