REMARK  Name = 
REMARK  3 active torsions:
REMARK  status: ('A' for Active; 'I' for Inactive)
REMARK    1  A    between atoms: C_3  and  N_4
REMARK    2  A    between atoms: N_7  and  C_8
REMARK    3  A    between atoms: C_20  and  N_21
REMARK                            x       y       z     vdW  Elec       q    Type
REMARK                         _______ _______ _______ _____ _____    ______ ____
ROOT
ATOM      1  O   UNL     1       2.539  -2.074   0.000  0.00  0.00    -0.220 OA
ATOM      2  C   UNL     1       2.127  -1.359   0.000  0.00  0.00    +0.194 C 
ATOM      3  C   UNL     1       1.989  -0.542   0.000  0.00  0.00    +0.158 C 
ATOM     15  C   UNL     1       1.060  -0.557   0.000  0.00  0.00    +0.170 C 
ATOM     16  C   UNL     1       0.740  -1.266   0.000  0.00  0.00    +0.176 C 
ATOM     17  O   UNL     1       0.120  -1.643   0.000  0.00  0.00    -0.327 OA
ATOM     18  C   UNL     1       0.640  -0.930   0.000  0.00  0.00    +0.253 C 
ATOM     19  O   UNL     1       0.500  -0.117   0.000  0.00  0.00    -0.327 OA
ATOM     20  C   UNL     1       1.611  -0.930   0.000  0.00  0.00    +0.147 C 
ENDROOT
BRANCH  20  21
ATOM     21  N   UNL     1       1.331  -1.706   0.000  0.00  0.00    -0.268 NA
ATOM     22  C   UNL     1       1.794  -2.389   0.000  0.00  0.00    +0.072 C 
ATOM     23  C   UNL     1       1.288  -3.041   0.000  0.00  0.00    +0.019 C 
ATOM     24  C   UNL     1       0.512  -2.760   0.000  0.00  0.00    +0.019 C 
ATOM     25  C   UNL     1       0.539  -1.936   0.000  0.00  0.00    +0.072 C 
ENDBRANCH  20  21
BRANCH   3   4
ATOM      4  N   UNL     1       2.517   0.093   0.000  0.00  0.00    -0.183 NA
ATOM      5  C   UNL     1       2.231   0.867   0.000  0.00  0.00    +0.344 C 
ATOM      6  O   UNL     1       1.417   1.006   0.000  0.00  0.00    -0.249 OA
ATOM      7  N   UNL     1       2.758   1.501   0.000  0.00  0.00    -0.161 NA
BRANCH   7   8
ATOM      8  C   UNL     1       2.472   2.275   0.000  0.00  0.00    +0.075 A 
ATOM      9  C   UNL     1       1.659   2.414   0.000  0.00  0.00    +0.019 A 
ATOM     10  C   UNL     1       1.373   3.188   0.000  0.00  0.00    +0.031 A 
ATOM     11  C   UNL     1       1.900   3.823   0.000  0.00  0.00    +0.140 A 
ATOM     12  F   UNL     1       1.614   4.597   0.000  0.00  0.00    -0.204 F 
ATOM     13  C   UNL     1       2.713   3.683   0.000  0.00  0.00    +0.031 A 
ATOM     14  C   UNL     1       2.999   2.910   0.000  0.00  0.00    +0.019 A 
ENDBRANCH   7   8
ENDBRANCH   3   4
TORSDOF 3
