REMARK  Name = 
REMARK  8 active torsions:
REMARK  status: ('A' for Active; 'I' for Inactive)
REMARK    1  A    between atoms: O_2  and  C_3
REMARK    2  A    between atoms: C_6  and  C_7
REMARK    3  A    between atoms: C_7  and  N_8
REMARK    4  A    between atoms: C_9  and  C_11
REMARK    5  A    between atoms: C_11  and  C_12
REMARK    6  A    between atoms: C_12  and  C_13
REMARK    7  A    between atoms: N_22  and  C_23
REMARK    8  A    between atoms: C_23  and  C_24
REMARK                            x       y       z     vdW  Elec       q    Type
REMARK                         _______ _______ _______ _____ _____    ______ ____
ROOT
ATOM     13  C   UNL     1       2.090  -3.001   0.000  0.00  0.00    +0.080 C 
ATOM     14  C   UNL     1       2.028  -2.179   0.000  0.00  0.00    +0.131 C 
ATOM     15  N   UNL     1       2.633  -1.617   0.000  0.00  0.00    -0.203 NA
ATOM     16  C   UNL     1       3.449  -1.740   0.000  0.00  0.00    +0.257 C 
ATOM     17  O   UNL     1       3.914  -1.059   0.000  0.00  0.00    -0.272 OA
ATOM     18  C   UNL     1       3.861  -2.455   0.000  0.00  0.00    +0.151 C 
ATOM     19  C   UNL     1       3.560  -3.223   0.000  0.00  0.00    +0.083 C 
ATOM     20  C   UNL     1       4.197  -3.747   0.000  0.00  0.00    +0.035 C 
ATOM     21  C   UNL     1       4.892  -3.303   0.000  0.00  0.00    +0.074 C 
ATOM     22  N   UNL     1       4.685  -2.504   0.000  0.00  0.00    -0.262 NA
ATOM     31  N   UNL     1       2.772  -3.466   0.000  0.00  0.00    -0.271 NA
ATOM     32  C   UNL     1       2.649  -4.282   0.000  0.00  0.00    +0.090 C 
ENDROOT
BRANCH  13  12
ATOM     12  C   UNL     1       1.375  -3.414   0.000  0.00  0.00    +0.027 C 
BRANCH  12  11
ATOM     11  C   UNL     1       0.661  -3.001   0.000  0.00  0.00    +0.088 C 
BRANCH  11   9
ATOM      8  N   UNL     1      -0.768  -3.001   0.000  0.00  0.00    -0.201 NA
ATOM      9  C   UNL     1      -0.053  -3.414   0.000  0.00  0.00    +0.242 C 
ATOM     10  O   UNL     1      -0.053  -4.239   0.000  0.00  0.00    -0.273 OA
BRANCH   8   7
ATOM      7  C   UNL     1      -1.482  -3.414   0.000  0.00  0.00    +0.141 C 
BRANCH   7   6
ATOM      3  C   UNL     1      -3.626  -2.176   0.000  0.00  0.00    +0.139 A 
ATOM      4  C   UNL     1      -2.911  -1.764   0.000  0.00  0.00    +0.037 A 
ATOM      5  C   UNL     1      -2.197  -2.176   0.000  0.00  0.00    +0.001 A 
ATOM      6  C   UNL     1      -2.197  -3.001   0.000  0.00  0.00    -0.000 A 
ATOM     33  C   UNL     1      -2.911  -3.414   0.000  0.00  0.00    +0.001 A 
ATOM     34  C   UNL     1      -3.626  -3.001   0.000  0.00  0.00    +0.037 A 
BRANCH   3   2
ATOM      1  C   UNL     1      -5.055  -2.176   0.000  0.00  0.00    +0.252 C 
ATOM      2  O   UNL     1      -4.340  -1.764   0.000  0.00  0.00    -0.471 OA
ENDBRANCH   3   2
ENDBRANCH   7   6
ENDBRANCH   8   7
ENDBRANCH  11   9
ENDBRANCH  12  11
ENDBRANCH  13  12
BRANCH  22  23
ATOM     23  C   UNL     1       5.209  -1.867   0.000  0.00  0.00    +0.100 C 
BRANCH  23  24
ATOM     24  C   UNL     1       6.023  -2.002   0.000  0.00  0.00    -0.006 A 
ATOM     25  C   UNL     1       6.547  -1.365   0.000  0.00  0.00    +0.000 A 
ATOM     26  C   UNL     1       7.361  -1.500   0.000  0.00  0.00    +0.042 A 
ATOM     27  C   UNL     1       7.650  -2.272   0.000  0.00  0.00    +0.196 A 
ATOM     28  O   UNL     1       8.464  -2.408   0.000  0.00  0.00    -0.287 OA
ATOM     29  C   UNL     1       7.126  -2.910   0.000  0.00  0.00    +0.042 A 
ATOM     30  C   UNL     1       6.313  -2.774   0.000  0.00  0.00    +0.000 A 
ENDBRANCH  23  24
ENDBRANCH  22  23
TORSDOF 8
