REMARK  Name = 
REMARK  5 active torsions:
REMARK  status: ('A' for Active; 'I' for Inactive)
REMARK    1  A    between atoms: C_1  and  N_2
REMARK    2  A    between atoms: C_1  and  C_23
REMARK    3  A    between atoms: N_2  and  C_3
REMARK    4  A    between atoms: C_7  and  N_11
REMARK    5  A    between atoms: C_14  and  C_18
REMARK                            x       y       z     vdW  Elec       q    Type
REMARK                         _______ _______ _______ _____ _____    ______ ____
ROOT
ATOM      3  C   UNL     1       1.270  -0.922   0.000  0.00  0.00    +0.132 C 
ATOM      4  C   UNL     1       0.785  -0.255   0.000  0.00  0.00    +0.162 C 
ATOM      5  O   UNL     1       1.270   0.412   0.000  0.00  0.00    -0.350 OA
ATOM      6  C   UNL     1       2.054   0.158   0.000  0.00  0.00    +0.166 C 
ATOM      7  C   UNL     1       2.839   0.412   0.000  0.00  0.00    +0.154 C 
ATOM      8  C   UNL     1       3.324  -0.255   0.000  0.00  0.00    +0.166 C 
ATOM      9  O   UNL     1       2.839  -0.922   0.000  0.00  0.00    -0.350 OA
ATOM     10  C   UNL     1       2.054  -0.667   0.000  0.00  0.00    +0.162 C 
ENDROOT
BRANCH   7  11
ATOM     11  N   UNL     1       3.094   1.197   0.000  0.00  0.00    -0.200 NA
ATOM     12  C   UNL     1       3.901   1.369   0.000  0.00  0.00    +0.237 A 
ATOM     13  N   UNL     1       4.156   2.153   0.000  0.00  0.00    -0.212 NA
ATOM     14  C   UNL     1       4.963   2.325   0.000  0.00  0.00    +0.092 A 
ATOM     15  C   UNL     1       5.515   1.712   0.000  0.00  0.00    +0.040 A 
ATOM     16  C   UNL     1       5.260   0.927   0.000  0.00  0.00    +0.103 A 
ATOM     17  N   UNL     1       4.453   0.756   0.000  0.00  0.00    -0.211 NA
BRANCH  14  18
ATOM     18  C   UNL     1       5.218   3.109   0.000  0.00  0.00    +0.047 A 
ATOM     19  C   UNL     1       4.733   3.777   0.000  0.00  0.00    +0.009 A 
ATOM     20  C   UNL     1       5.218   4.444   0.000  0.00  0.00    +0.008 A 
ATOM     21  C   UNL     1       6.002   4.189   0.000  0.00  0.00    +0.035 A 
ATOM     22  S   UNL     1       6.002   3.364   0.000  0.00  0.00    -0.085 S 
ENDBRANCH  14  18
ENDBRANCH   7  11
BRANCH   3   2
ATOM      2  N   UNL     1       1.015  -1.707   0.000  0.00  0.00    -0.214 NA
BRANCH   2   1
ATOM      1  C   UNL     1       1.567  -2.320   0.000  0.00  0.00    +0.089 C 
BRANCH   1  23
ATOM     23  C   UNL     1       1.312  -3.105   0.000  0.00  0.00    +0.017 C 
ATOM     24  C   UNL     1       1.864  -3.718   0.000  0.00  0.00    +0.001 C 
ATOM     25  C   UNL     1       1.609  -4.502   0.000  0.00  0.00    +0.000 C 
ATOM     26  C   UNL     1       0.802  -4.674   0.000  0.00  0.00    +0.000 C 
ATOM     27  C   UNL     1       0.250  -4.061   0.000  0.00  0.00    +0.000 C 
ATOM     28  C   UNL     1       0.505  -3.276   0.000  0.00  0.00    +0.001 C 
ENDBRANCH   1  23
ENDBRANCH   2   1
ENDBRANCH   3   2
TORSDOF 5
