REMARK  Name = 
REMARK  8 active torsions:
REMARK  status: ('A' for Active; 'I' for Inactive)
REMARK    1  A    between atoms: C_2  and  C_4
REMARK    2  A    between atoms: C_4  and  C_5
REMARK    3  A    between atoms: C_5  and  N_6
REMARK    4  A    between atoms: C_5  and  C_32
REMARK    5  A    between atoms: C_7  and  C_9
REMARK    6  A    between atoms: C_11  and  N_23
REMARK    7  A    between atoms: C_15  and  C_17
REMARK    8  A    between atoms: C_24  and  C_26
REMARK                            x       y       z     vdW  Elec       q    Type
REMARK                         _______ _______ _______ _____ _____    ______ ____
ROOT
ATOM      9  C   UNL     1       5.716  -4.125   0.000  0.00  0.00    +0.155 C 
ATOM     10  C   UNL     1       6.430  -3.712   0.000  0.00  0.00    +0.051 C 
ATOM     11  C   UNL     1       7.145  -4.125   0.000  0.00  0.00    +0.100 C 
ATOM     12  C   UNL     1       7.145  -4.950   0.000  0.00  0.00    +0.043 C 
ATOM     13  C   UNL     1       6.430  -5.362   0.000  0.00  0.00    +0.096 C 
ATOM     14  N   UNL     1       5.716  -4.950   0.000  0.00  0.00    -0.268 N 
ATOM     15  C   UNL     1       5.001  -5.362   0.000  0.00  0.00    +0.268 C 
ATOM     16  O   UNL     1       4.287  -4.950   0.000  0.00  0.00    -0.268 OA
ENDROOT
BRANCH  15  17
ATOM     17  C   UNL     1       5.001  -6.188   0.000  0.00  0.00    +0.141 A 
ATOM     18  C   UNL     1       5.669  -6.672   0.000  0.00  0.00    +0.060 A 
ATOM     19  S   UNL     1       5.414  -7.457   0.000  0.00  0.00    -0.070 S 
ATOM     20  C   UNL     1       4.589  -7.457   0.000  0.00  0.00    +0.089 A 
ATOM     21  C   UNL     1       4.104  -8.124   0.000  0.00  0.00    +0.059 C 
ATOM     22  N   UNL     1       4.334  -6.672   0.000  0.00  0.00    -0.238 NA
ENDBRANCH  15  17
BRANCH   9   7
ATOM      6  N   UNL     1       4.287  -4.125   0.000  0.00  0.00    -0.196 NA
ATOM      7  C   UNL     1       5.001  -3.712   0.000  0.00  0.00    +0.260 C 
ATOM      8  O   UNL     1       5.001  -2.888   0.000  0.00  0.00    -0.272 OA
BRANCH   6   5
ATOM      5  C   UNL     1       3.572  -3.712   0.000  0.00  0.00    +0.174 C 
BRANCH   5  32
ATOM     32  C   UNL     1       3.572  -2.888   0.000  0.00  0.00    +0.281 C 
ATOM     33  N   UNL     1       4.287  -2.475   0.000  0.00  0.00    -0.086 NA
ATOM     34  O   UNL     1       2.858  -2.475   0.000  0.00  0.00    -0.270 OA
ENDBRANCH   5  32
BRANCH   5   4
ATOM      4  C   UNL     1       2.858  -4.125   0.000  0.00  0.00    +0.031 C 
BRANCH   4   2
ATOM      1  C   UNL     1       1.429  -4.125   0.000  0.00  0.00    +0.000 C 
ATOM      2  C   UNL     1       2.143  -3.712   0.000  0.00  0.00    +0.002 C 
ATOM      3  C   UNL     1       2.143  -2.888   0.000  0.00  0.00    +0.000 C 
ENDBRANCH   4   2
ENDBRANCH   5   4
ENDBRANCH   6   5
ENDBRANCH   9   7
BRANCH  11  23
ATOM     23  N   UNL     1       7.859  -3.712   0.000  0.00  0.00    -0.203 NA
ATOM     24  C   UNL     1       8.574  -4.125   0.000  0.00  0.00    +0.273 C 
ATOM     25  O   UNL     1       9.288  -3.712   0.000  0.00  0.00    -0.268 OA
BRANCH  24  26
ATOM     26  C   UNL     1       8.574  -4.950   0.000  0.00  0.00    +0.119 A 
ATOM     27  C   UNL     1       9.241  -5.435   0.000  0.00  0.00    +0.093 A 
ATOM     28  C   UNL     1      10.026  -5.180   0.000  0.00  0.00    +0.055 C 
ATOM     29  N   UNL     1       8.986  -6.220   0.000  0.00  0.00    -0.145 NA
ATOM     30  N   UNL     1       8.161  -6.220   0.000  0.00  0.00    -0.110 NA
ATOM     31  S   UNL     1       7.906  -5.435   0.000  0.00  0.00    +0.042 S 
ENDBRANCH  24  26
ENDBRANCH  11  23
TORSDOF 8
