REMARK  Name = 
REMARK  8 active torsions:
REMARK  status: ('A' for Active; 'I' for Inactive)
REMARK    1  A    between atoms: C_3  and  C_7
REMARK    2  A    between atoms: N_9  and  C_10
REMARK    3  A    between atoms: C_14  and  C_16
REMARK    4  A    between atoms: N_18  and  C_19
REMARK    5  A    between atoms: C_19  and  C_20
REMARK    6  A    between atoms: C_19  and  C_30
REMARK    7  A    between atoms: C_20  and  C_21
REMARK    8  A    between atoms: C_33  and  C_35
REMARK                            x       y       z     vdW  Elec       q    Type
REMARK                         _______ _______ _______ _____ _____    ______ ____
ROOT
ATOM     10  C   UNL     1      -3.584   3.623   0.000  0.00  0.00    +0.100 C 
ATOM     11  C   UNL     1      -3.032   4.236   0.000  0.00  0.00    +0.043 C 
ATOM     12  C   UNL     1      -2.225   4.064   0.000  0.00  0.00    +0.096 C 
ATOM     13  N   UNL     1      -1.970   3.280   0.000  0.00  0.00    -0.267 N 
ATOM     14  C   UNL     1      -2.522   2.666   0.000  0.00  0.00    +0.155 C 
ATOM     15  C   UNL     1      -3.329   2.838   0.000  0.00  0.00    +0.051 C 
ATOM     33  C   UNL     1      -1.163   3.108   0.000  0.00  0.00    +0.284 C 
ATOM     34  O   UNL     1      -0.908   2.323   0.000  0.00  0.00    -0.267 OA
ENDROOT
BRANCH  33  35
ATOM     35  C   UNL     1      -0.611   3.721   0.000  0.00  0.00    +0.199 A 
ATOM     36  C   UNL     1      -0.783   4.528   0.000  0.00  0.00    +0.045 A 
ATOM     37  C   UNL     1      -0.068   4.941   0.000  0.00  0.00    +0.044 A 
ATOM     38  C   UNL     1       0.545   4.388   0.000  0.00  0.00    +0.180 A 
ATOM     39  O   UNL     1       0.209   3.635   0.000  0.00  0.00    -0.446 OA
ENDBRANCH  33  35
BRANCH  10   9
ATOM      7  C   UNL     1      -4.646   4.579   0.000  0.00  0.00    +0.273 C 
ATOM      8  O   UNL     1      -4.094   5.192   0.000  0.00  0.00    -0.268 OA
ATOM      9  N   UNL     1      -4.391   3.794   0.000  0.00  0.00    -0.203 NA
BRANCH   7   3
ATOM      1  C   UNL     1      -5.376   6.218   0.000  0.00  0.00    +0.055 C 
ATOM      2  C   UNL     1      -5.789   5.504   0.000  0.00  0.00    +0.093 A 
ATOM      3  C   UNL     1      -5.453   4.750   0.000  0.00  0.00    +0.119 A 
ATOM      4  S   UNL     1      -6.066   4.198   0.000  0.00  0.00    +0.042 S 
ATOM      5  N   UNL     1      -6.781   4.611   0.000  0.00  0.00    -0.110 NA
ATOM      6  N   UNL     1      -6.609   5.418   0.000  0.00  0.00    -0.145 NA
ENDBRANCH   7   3
ENDBRANCH  10   9
BRANCH  14  16
ATOM     16  C   UNL     1      -2.267   1.882   0.000  0.00  0.00    +0.260 C 
ATOM     17  O   UNL     1      -2.819   1.269   0.000  0.00  0.00    -0.272 OA
ATOM     18  N   UNL     1      -1.460   1.710   0.000  0.00  0.00    -0.196 NA
BRANCH  18  19
ATOM     19  C   UNL     1      -1.205   0.926   0.000  0.00  0.00    +0.179 C 
BRANCH  19  30
ATOM     30  C   UNL     1      -1.758   0.313   0.000  0.00  0.00    +0.281 C 
ATOM     31  N   UNL     1      -1.502  -0.472   0.000  0.00  0.00    -0.086 NA
ATOM     32  O   UNL     1      -2.564   0.484   0.000  0.00  0.00    -0.270 OA
ENDBRANCH  19  30
BRANCH  19  20
ATOM     20  C   UNL     1      -0.398   0.754   0.000  0.00  0.00    +0.059 C 
BRANCH  20  21
ATOM     21  C   UNL     1      -0.143  -0.030   0.000  0.00  0.00    +0.001 A 
ATOM     22  C   UNL     1      -0.628  -0.698   0.000  0.00  0.00    +0.095 A 
ATOM     23  N   UNL     1      -0.143  -1.365   0.000  0.00  0.00    -0.244 NA
ATOM     24  C   UNL     1       0.641  -1.110   0.000  0.00  0.00    +0.081 A 
ATOM     25  C   UNL     1       0.641  -0.285   0.000  0.00  0.00    +0.015 A 
ATOM     26  C   UNL     1       1.356   0.127   0.000  0.00  0.00    +0.001 A 
ATOM     27  C   UNL     1       2.070  -0.285   0.000  0.00  0.00    +0.000 A 
ATOM     28  C   UNL     1       2.070  -1.110   0.000  0.00  0.00    +0.002 A 
ATOM     29  C   UNL     1       1.356  -1.523   0.000  0.00  0.00    +0.019 A 
ENDBRANCH  20  21
ENDBRANCH  19  20
ENDBRANCH  18  19
ENDBRANCH  14  16
TORSDOF 8
