REMARK  Name = 
REMARK  6 active torsions:
REMARK  status: ('A' for Active; 'I' for Inactive)
REMARK    1  A    between atoms: C_5  and  C_8
REMARK    2  A    between atoms: C_11  and  C_13
REMARK    3  A    between atoms: N_16  and  C_17
REMARK    4  A    between atoms: C_17  and  C_18
REMARK    5  A    between atoms: C_21  and  O_22
REMARK    6  A    between atoms: O_22  and  C_23
REMARK                            x       y       z     vdW  Elec       q    Type
REMARK                         _______ _______ _______ _____ _____    ______ ____
ROOT
ATOM     13  C   UNL     1       3.356  -3.003   0.000  0.00  0.00    +0.096 C 
ATOM     14  C   UNL     1       3.611  -3.788   0.000  0.00  0.00    +0.028 C 
ATOM     15  C   UNL     1       2.943  -4.273   0.000  0.00  0.00    +0.073 C 
ATOM     16  N   UNL     1       2.276  -3.788   0.000  0.00  0.00    -0.268 NA
ATOM     29  C   UNL     1       2.531  -3.003   0.000  0.00  0.00    +0.082 C 
ENDROOT
BRANCH  13  11
ATOM      8  C   UNL     1       4.253  -1.066   0.000  0.00  0.00    +0.250 A 
ATOM      9  N   UNL     1       4.920  -1.551   0.000  0.00  0.00    -0.107 NA
ATOM     10  N   UNL     1       4.666  -2.336   0.000  0.00  0.00    -0.111 NA
ATOM     11  C   UNL     1       3.841  -2.336   0.000  0.00  0.00    +0.227 A 
ATOM     12  O   UNL     1       3.586  -1.551   0.000  0.00  0.00    -0.419 OA
BRANCH   8   5
ATOM      1  C   UNL     1       4.253   2.234   0.000  0.00  0.00    +0.031 C 
ATOM      2  C   UNL     1       4.253   1.409   0.000  0.00  0.00    -0.022 A 
ATOM      3  C   UNL     1       4.968   0.996   0.000  0.00  0.00    -0.004 A 
ATOM      4  C   UNL     1       4.968   0.171   0.000  0.00  0.00    +0.004 A 
ATOM      5  C   UNL     1       4.253  -0.241   0.000  0.00  0.00    +0.055 A 
ATOM      6  C   UNL     1       3.539   0.171   0.000  0.00  0.00    +0.004 A 
ATOM      7  C   UNL     1       3.539   0.996   0.000  0.00  0.00    -0.004 A 
ENDBRANCH   8   5
ENDBRANCH  13  11
BRANCH  16  17
ATOM     17  C   UNL     1       1.491  -4.043   0.000  0.00  0.00    +0.099 C 
BRANCH  17  18
ATOM     18  C   UNL     1       0.878  -3.491   0.000  0.00  0.00    -0.006 A 
ATOM     19  C   UNL     1       0.093  -3.746   0.000  0.00  0.00    +0.000 A 
ATOM     20  C   UNL     1      -0.520  -3.194   0.000  0.00  0.00    +0.037 A 
ATOM     21  C   UNL     1      -0.348  -2.387   0.000  0.00  0.00    +0.147 A 
ATOM     27  C   UNL     1       0.436  -2.132   0.000  0.00  0.00    +0.037 A 
ATOM     28  C   UNL     1       1.050  -2.684   0.000  0.00  0.00    +0.000 A 
BRANCH  21  22
ATOM     22  O   UNL     1      -0.961  -1.835   0.000  0.00  0.00    -0.404 OA
BRANCH  22  23
ATOM     23  C   UNL     1      -1.746  -2.090   0.000  0.00  0.00    +0.575 C 
ATOM     24  F   UNL     1      -2.530  -2.344   0.000  0.00  0.00    -0.133 F 
ATOM     25  F   UNL     1      -2.001  -1.305   0.000  0.00  0.00    -0.133 F 
ATOM     26  F   UNL     1      -1.491  -2.874   0.000  0.00  0.00    -0.133 F 
ENDBRANCH  22  23
ENDBRANCH  21  22
ENDBRANCH  17  18
ENDBRANCH  16  17
TORSDOF 6
