REMARK  Name = 
REMARK  5 active torsions:
REMARK  status: ('A' for Active; 'I' for Inactive)
REMARK    1  A    between atoms: C_4  and  C_16
REMARK    2  A    between atoms: N_5  and  C_6
REMARK    3  A    between atoms: C_6  and  C_7
REMARK    4  A    between atoms: C_11  and  C_13
REMARK    5  A    between atoms: C_18  and  C_21
REMARK                            x       y       z     vdW  Elec       q    Type
REMARK                         _______ _______ _______ _____ _____    ______ ____
ROOT
ATOM      1  O   UNL     1      -0.596  -2.216   0.000  0.00  0.00    -0.222 OA
ATOM      2  C   UNL     1      -0.596  -3.041   0.000  0.00  0.00    +0.170 C 
ATOM      3  C   UNL     1       0.072  -3.525   0.000  0.00  0.00    +0.060 C 
ATOM      4  C   UNL     1      -0.183  -4.310   0.000  0.00  0.00    +0.140 C 
ATOM      5  N   UNL     1      -1.008  -4.310   0.000  0.00  0.00    -0.260 NA
ATOM     15  C   UNL     1      -1.263  -3.525   0.000  0.00  0.00    +0.106 C 
ENDROOT
BRANCH   4  16
ATOM     16  C   UNL     1       0.302  -4.977   0.000  0.00  0.00    +0.251 A 
ATOM     17  N   UNL     1       1.127  -4.977   0.000  0.00  0.00    -0.190 NA
ATOM     18  C   UNL     1       1.382  -5.762   0.000  0.00  0.00    +0.205 A 
ATOM     19  N   UNL     1       0.715  -6.247   0.000  0.00  0.00    -0.056 NA
ATOM     20  O   UNL     1       0.047  -5.762   0.000  0.00  0.00    -0.336 OA
BRANCH  18  21
ATOM     21  C   UNL     1       2.167  -6.017   0.000  0.00  0.00    +0.058 A 
ATOM     22  C   UNL     1       2.780  -5.465   0.000  0.00  0.00    +0.006 A 
ATOM     23  C   UNL     1       3.564  -5.720   0.000  0.00  0.00    +0.021 A 
ATOM     24  C   UNL     1       3.736  -6.527   0.000  0.00  0.00    +0.099 A 
ATOM     25  N   UNL     1       3.123  -7.079   0.000  0.00  0.00    -0.242 NA
ATOM     26  C   UNL     1       2.338  -6.824   0.000  0.00  0.00    +0.102 A 
ENDBRANCH  18  21
ENDBRANCH   4  16
BRANCH   5   6
ATOM      6  C   UNL     1      -1.493  -4.977   0.000  0.00  0.00    +0.100 C 
BRANCH   6   7
ATOM      7  C   UNL     1      -2.313  -4.891   0.000  0.00  0.00    -0.005 A 
ATOM      8  C   UNL     1      -2.798  -5.559   0.000  0.00  0.00    -0.003 A 
ATOM      9  C   UNL     1      -3.619  -5.472   0.000  0.00  0.00    +0.000 A 
ATOM     10  C   UNL     1      -3.954  -4.719   0.000  0.00  0.00    +0.010 A 
ATOM     11  C   UNL     1      -3.469  -4.051   0.000  0.00  0.00    +0.068 A 
ATOM     12  C   UNL     1      -2.649  -4.138   0.000  0.00  0.00    +0.007 A 
BRANCH  11  13
ATOM     13  C   UNL     1      -3.805  -3.298   0.000  0.00  0.00    +0.100 C 
ATOM     14  N   UNL     1      -4.141  -2.544   0.000  0.00  0.00    -0.191 NA
ENDBRANCH  11  13
ENDBRANCH   6   7
ENDBRANCH   5   6
TORSDOF 5
