REMARK  Name = 
REMARK  6 active torsions:
REMARK  status: ('A' for Active; 'I' for Inactive)
REMARK    1  A    between atoms: C_5  and  C_8
REMARK    2  A    between atoms: N_10  and  C_11
REMARK    3  A    between atoms: N_19  and  C_20
REMARK    4  A    between atoms: C_20  and  C_21
REMARK    5  A    between atoms: C_21  and  C_22
REMARK    6  A    between atoms: C_22  and  C_23
REMARK                            x       y       z     vdW  Elec       q    Type
REMARK                         _______ _______ _______ _____ _____    ______ ____
ROOT
ATOM     11  C   UNL     1      -1.296  -1.150   0.000  0.00  0.00    +0.130 A 
ATOM     12  C   UNL     1      -1.167  -0.335   0.000  0.00  0.00    +0.023 A 
ATOM     13  C   UNL     1      -0.397  -0.039   0.000  0.00  0.00    +0.014 A 
ATOM     14  C   UNL     1       0.244  -0.558   0.000  0.00  0.00    +0.041 A 
ATOM     15  C   UNL     1       1.163  -0.557   0.000  0.00  0.00    +0.054 C 
ATOM     16  C   UNL     1       1.713  -0.121   0.000  0.00  0.00    +0.011 C 
ATOM     17  C   UNL     1       1.582  -0.925   0.000  0.00  0.00    +0.039 C 
ATOM     18  C   UNL     1       1.629  -1.912   0.000  0.00  0.00    +0.074 C 
ATOM     19  N   UNL     1       0.813  -2.091   0.000  0.00  0.00    -0.272 NA
ATOM     29  C   UNL     1       1.225  -1.510   0.000  0.00  0.00    +0.078 C 
ATOM     30  C   UNL     1       0.622  -0.936   0.000  0.00  0.00    +0.110 C 
ATOM     31  N   UNL     1       0.115  -1.373   0.000  0.00  0.00    -0.298 N 
ATOM     32  C   UNL     1      -0.655  -1.669   0.000  0.00  0.00    +0.276 A 
ATOM     33  O   UNL     1      -0.784  -2.484   0.000  0.00  0.00    -0.266 OA
ENDROOT
BRANCH  11  10
ATOM      8  C   UNL     1      -2.195  -2.260   0.000  0.00  0.00    +0.269 C 
ATOM      9  O   UNL     1      -1.554  -2.779   0.000  0.00  0.00    -0.268 OA
ATOM     10  N   UNL     1      -2.066  -1.445   0.000  0.00  0.00    -0.171 NA
BRANCH   8   5
ATOM      1  F   UNL     1      -5.276  -3.443   0.000  0.00  0.00    -0.204 F 
ATOM      2  C   UNL     1      -4.505  -3.147   0.000  0.00  0.00    +0.140 A 
ATOM      3  C   UNL     1      -4.377  -2.333   0.000  0.00  0.00    +0.030 A 
ATOM      4  C   UNL     1      -3.606  -2.037   0.000  0.00  0.00    +0.007 A 
ATOM      5  C   UNL     1      -2.965  -2.556   0.000  0.00  0.00    +0.056 A 
ATOM      6  C   UNL     1      -3.094  -3.371   0.000  0.00  0.00    +0.007 A 
ATOM      7  C   UNL     1      -3.864  -3.667   0.000  0.00  0.00    +0.030 A 
ENDBRANCH   8   5
ENDBRANCH  11  10
BRANCH  19  20
ATOM     20  C   UNL     1       0.125  -2.547   0.000  0.00  0.00    +0.072 C 
BRANCH  20  21
ATOM     21  C   UNL     1       0.176  -3.370   0.000  0.00  0.00    +0.022 C 
BRANCH  21  22
ATOM     22  C   UNL     1       0.914  -3.738   0.000  0.00  0.00    +0.028 C 
BRANCH  22  23
ATOM     23  C   UNL     1       1.602  -3.283   0.000  0.00  0.00    -0.022 A 
ATOM     24  C   UNL     1       1.551  -2.459   0.000  0.00  0.00    -0.004 A 
ATOM     25  C   UNL     1       2.239  -2.004   0.000  0.00  0.00    -0.000 A 
ATOM     26  C   UNL     1       2.977  -2.371   0.000  0.00  0.00    -0.000 A 
ATOM     27  C   UNL     1       3.028  -3.195   0.000  0.00  0.00    -0.000 A 
ATOM     28  C   UNL     1       2.340  -3.650   0.000  0.00  0.00    -0.004 A 
ENDBRANCH  22  23
ENDBRANCH  21  22
ENDBRANCH  20  21
ENDBRANCH  19  20
TORSDOF 6
