REMARK  Name = 
REMARK  7 active torsions:
REMARK  status: ('A' for Active; 'I' for Inactive)
REMARK    1  A    between atoms: O_2  and  C_3
REMARK    2  A    between atoms: C_3  and  C_4
REMARK    3  A    between atoms: C_4  and  O_5
REMARK    4  A    between atoms: O_5  and  C_6
REMARK    5  A    between atoms: C_7  and  C_12
REMARK    6  A    between atoms: C_15  and  C_17
REMARK    7  A    between atoms: N_21  and  C_22
REMARK                            x       y       z     vdW  Elec       q    Type
REMARK                         _______ _______ _______ _____ _____    ______ ____
ROOT
ATOM     12  C   UNL     1      -5.212   2.251   0.000  0.00  0.00    +0.208 A 
ATOM     13  N   UNL     1      -5.467   3.036   0.000  0.00  0.00    -0.056 NA
ATOM     14  O   UNL     1      -4.800   3.521   0.000  0.00  0.00    -0.336 OA
ATOM     15  C   UNL     1      -4.132   3.036   0.000  0.00  0.00    +0.251 A 
ATOM     16  N   UNL     1      -4.387   2.251   0.000  0.00  0.00    -0.189 NA
ENDROOT
BRANCH  12   7
ATOM      6  C   UNL     1      -6.518   1.670   0.000  0.00  0.00    +0.228 A 
ATOM      7  C   UNL     1      -5.697   1.584   0.000  0.00  0.00    +0.092 A 
ATOM      8  C   UNL     1      -5.362   0.830   0.000  0.00  0.00    +0.009 A 
ATOM      9  C   UNL     1      -5.847   0.162   0.000  0.00  0.00    +0.021 A 
ATOM     10  C   UNL     1      -6.667   0.249   0.000  0.00  0.00    +0.102 A 
ATOM     11  N   UNL     1      -7.003   1.002   0.000  0.00  0.00    -0.210 NA
BRANCH   6   5
ATOM      5  O   UNL     1      -6.853   2.424   0.000  0.00  0.00    -0.457 OA
BRANCH   5   4
ATOM      4  C   UNL     1      -7.674   2.510   0.000  0.00  0.00    +0.239 C 
BRANCH   4   3
ATOM      3  C   UNL     1      -8.009   3.263   0.000  0.00  0.00    +0.189 C 
BRANCH   3   2
ATOM      1  C   UNL     1      -9.165   4.103   0.000  0.00  0.00    +0.174 C 
ATOM      2  O   UNL     1      -8.830   3.350   0.000  0.00  0.00    -0.347 OA
ENDBRANCH   3   2
ENDBRANCH   4   3
ENDBRANCH   5   4
ENDBRANCH   6   5
ENDBRANCH  12   7
BRANCH  15  17
ATOM     17  C   UNL     1      -3.348   3.291   0.000  0.00  0.00    +0.138 C 
ATOM     18  C   UNL     1      -3.093   4.075   0.000  0.00  0.00    +0.027 C 
ATOM     19  C   UNL     1      -2.268   4.075   0.000  0.00  0.00    +0.019 C 
ATOM     20  C   UNL     1      -2.013   3.291   0.000  0.00  0.00    +0.072 C 
ATOM     21  N   UNL     1      -2.680   2.806   0.000  0.00  0.00    -0.268 NA
BRANCH  21  22
ATOM     22  C   UNL     1      -2.680   1.981   0.000  0.00  0.00    +0.058 C 
ATOM     23  C   UNL     1      -2.097   1.397   0.000  0.00  0.00    +0.016 C 
ATOM     24  C   UNL     1      -2.680   0.814   0.000  0.00  0.00    +0.003 C 
ATOM     25  C   UNL     1      -3.264   1.397   0.000  0.00  0.00    +0.016 C 
ENDBRANCH  21  22
ENDBRANCH  15  17
TORSDOF 7
