REMARK  Name = 
REMARK  6 active torsions:
REMARK  status: ('A' for Active; 'I' for Inactive)
REMARK    1  A    between atoms: C_2  and  C_4
REMARK    2  A    between atoms: C_6  and  C_7
REMARK    3  A    between atoms: C_7  and  C_8
REMARK    4  A    between atoms: C_22  and  C_23
REMARK    5  A    between atoms: C_23  and  N_24
REMARK    6  A    between atoms: C_25  and  C_27
REMARK                            x       y       z     vdW  Elec       q    Type
REMARK                         _______ _______ _______ _____ _____    ______ ____
ROOT
ATOM      4  C   UNL     1      -3.985  -4.299   0.000  0.00  0.00    +0.006 C 
ATOM      5  C   UNL     1      -4.699  -3.887   0.000  0.00  0.00    +0.005 C 
ATOM      6  C   UNL     1      -4.699  -3.062   0.000  0.00  0.00    +0.027 C 
ATOM     19  C   UNL     1      -3.985  -2.649   0.000  0.00  0.00    -0.048 C 
ATOM     20  C   UNL     1      -3.985  -1.824   0.000  0.00  0.00    +0.026 C 
ATOM     21  C   UNL     1      -3.270  -3.062   0.000  0.00  0.00    -0.033 C 
ATOM     22  C   UNL     1      -3.270  -3.887   0.000  0.00  0.00    +0.043 C 
ENDROOT
BRANCH   4   2
ATOM      1  C   UNL     1      -3.270  -5.537   0.000  0.00  0.00    +0.000 C 
ATOM      2  C   UNL     1      -3.985  -5.124   0.000  0.00  0.00    +0.000 C 
ATOM      3  C   UNL     1      -4.699  -5.537   0.000  0.00  0.00    +0.000 C 
ENDBRANCH   4   2
BRANCH   6   7
ATOM      7  C   UNL     1      -5.414  -2.649   0.000  0.00  0.00    +0.089 C 
BRANCH   7   8
ATOM      8  C   UNL     1      -5.414  -1.824   0.000  0.00  0.00    +0.226 C 
ATOM      9  O   UNL     1      -4.699  -1.412   0.000  0.00  0.00    -0.275 OA
ATOM     10  N   UNL     1      -6.128  -1.412   0.000  0.00  0.00    -0.276 N 
ATOM     11  C   UNL     1      -6.843  -1.824   0.000  0.00  0.00    +0.115 C 
ATOM     12  C   UNL     1      -7.557  -1.412   0.000  0.00  0.00    +0.115 C 
ATOM     13  N   UNL     1      -7.557  -0.587   0.000  0.00  0.00    -0.276 N 
ATOM     14  C   UNL     1      -6.843  -0.174   0.000  0.00  0.00    +0.115 C 
ATOM     15  C   UNL     1      -6.128  -0.587   0.000  0.00  0.00    +0.115 C 
ATOM     16  C   UNL     1      -8.272  -0.174   0.000  0.00  0.00    +0.226 C 
ATOM     17  C   UNL     1      -8.272   0.651   0.000  0.00  0.00    +0.095 C 
ATOM     18  O   UNL     1      -8.986  -0.587   0.000  0.00  0.00    -0.275 OA
ENDBRANCH   7   8
ENDBRANCH   6   7
BRANCH  22  23
ATOM     23  C   UNL     1      -2.556  -4.299   0.000  0.00  0.00    +0.119 C 
BRANCH  23  24
ATOM     24  N   UNL     1      -2.556  -5.124   0.000  0.00  0.00    -0.205 NA
ATOM     25  C   UNL     1      -1.841  -5.537   0.000  0.00  0.00    +0.241 C 
ATOM     26  O   UNL     1      -1.127  -5.124   0.000  0.00  0.00    -0.273 OA
BRANCH  25  27
ATOM     27  C   UNL     1      -1.841  -6.362   0.000  0.00  0.00    +0.078 C 
ATOM     28  C   UNL     1      -1.429  -7.076   0.000  0.00  0.00    +0.010 C 
ATOM     29  C   UNL     1      -2.254  -7.076   0.000  0.00  0.00    +0.010 C 
ENDBRANCH  25  27
ENDBRANCH  23  24
ENDBRANCH  22  23
TORSDOF 6
