REMARK  Name = 
REMARK  6 active torsions:
REMARK  status: ('A' for Active; 'I' for Inactive)
REMARK    1  A    between atoms: O_2  and  C_3
REMARK    2  A    between atoms: C_6  and  N_7
REMARK    3  A    between atoms: N_10  and  C_11
REMARK    4  A    between atoms: C_13  and  C_16
REMARK    5  A    between atoms: N_19  and  C_23
REMARK    6  A    between atoms: C_26  and  C_29
REMARK                            x       y       z     vdW  Elec       q    Type
REMARK                         _______ _______ _______ _____ _____    ______ ____
ROOT
ATOM     11  C   UNL     1      -0.596  -3.041   0.000  0.00  0.00    +0.119 C 
ATOM     12  C   UNL     1       0.072  -3.525   0.000  0.00  0.00    +0.035 C 
ATOM     13  C   UNL     1      -0.183  -4.310   0.000  0.00  0.00    +0.048 C 
ATOM     14  C   UNL     1      -1.008  -4.310   0.000  0.00  0.00    -0.025 C 
ATOM     15  C   UNL     1      -1.263  -3.525   0.000  0.00  0.00    -0.009 C 
ENDROOT
BRANCH  13  16
ATOM     16  C   UNL     1       0.302  -4.977   0.000  0.00  0.00    +0.010 A 
ATOM     17  C   UNL     1       1.127  -4.977   0.000  0.00  0.00    +0.058 A 
ATOM     18  C   UNL     1       1.612  -4.310   0.000  0.00  0.00    +0.052 C 
ATOM     19  N   UNL     1       1.382  -5.762   0.000  0.00  0.00    -0.234 N 
ATOM     20  N   UNL     1       0.715  -6.247   0.000  0.00  0.00    -0.170 NA
ATOM     21  C   UNL     1       0.047  -5.762   0.000  0.00  0.00    +0.077 A 
ATOM     22  C   UNL     1      -0.738  -6.017   0.000  0.00  0.00    +0.054 C 
BRANCH  19  23
ATOM     23  C   UNL     1       2.167  -6.017   0.000  0.00  0.00    +0.082 A 
ATOM     24  C   UNL     1       2.780  -5.465   0.000  0.00  0.00    +0.019 A 
ATOM     25  C   UNL     1       3.564  -5.720   0.000  0.00  0.00    -0.003 A 
ATOM     26  C   UNL     1       3.736  -6.527   0.000  0.00  0.00    -0.022 A 
ATOM     27  C   UNL     1       3.123  -7.079   0.000  0.00  0.00    -0.003 A 
ATOM     28  C   UNL     1       2.338  -6.824   0.000  0.00  0.00    +0.019 A 
BRANCH  26  29
ATOM     29  C   UNL     1       4.520  -6.782   0.000  0.00  0.00    +0.022 C 
ATOM     30  C   UNL     1       5.133  -6.230   0.000  0.00  0.00    +0.005 C 
ATOM     31  C   UNL     1       4.692  -7.589   0.000  0.00  0.00    +0.005 C 
ENDBRANCH  26  29
ENDBRANCH  19  23
ENDBRANCH  13  16
BRANCH  11  10
ATOM      7  N   UNL     1      -1.310  -0.978   0.000  0.00  0.00    -0.161 NA
ATOM      8  C   UNL     1      -1.310  -1.803   0.000  0.00  0.00    +0.344 C 
ATOM      9  O   UNL     1      -2.024  -2.216   0.000  0.00  0.00    -0.249 OA
ATOM     10  N   UNL     1      -0.596  -2.216   0.000  0.00  0.00    -0.184 NA
BRANCH   7   6
ATOM      3  C   UNL     1      -3.453   0.260   0.000  0.00  0.00    +0.139 A 
ATOM      4  C   UNL     1      -2.739   0.672   0.000  0.00  0.00    +0.038 A 
ATOM      5  C   UNL     1      -2.024   0.260   0.000  0.00  0.00    +0.020 A 
ATOM      6  C   UNL     1      -2.024  -0.566   0.000  0.00  0.00    +0.075 A 
ATOM     32  C   UNL     1      -2.739  -0.978   0.000  0.00  0.00    +0.020 A 
ATOM     33  C   UNL     1      -3.453  -0.566   0.000  0.00  0.00    +0.038 A 
BRANCH   3   2
ATOM      1  C   UNL     1      -4.882   0.260   0.000  0.00  0.00    +0.252 C 
ATOM      2  O   UNL     1      -4.168   0.672   0.000  0.00  0.00    -0.471 OA
ENDBRANCH   3   2
ENDBRANCH   7   6
ENDBRANCH  11  10
TORSDOF 6
