REMARK  Name = 
REMARK  5 active torsions:
REMARK  status: ('A' for Active; 'I' for Inactive)
REMARK    1  A    between atoms: C_8  and  C_10
REMARK    2  A    between atoms: C_10  and  C_11
REMARK    3  A    between atoms: C_11  and  C_12
REMARK    4  A    between atoms: C_19  and  N_22
REMARK    5  A    between atoms: N_25  and  C_26
REMARK                            x       y       z     vdW  Elec       q    Type
REMARK                         _______ _______ _______ _____ _____    ______ ____
ROOT
ATOM     12  C   UNL     1       3.279   1.238   0.000  0.00  0.00    +0.080 C 
ATOM     13  C   UNL     1       3.993   0.825   0.000  0.00  0.00    +0.131 C 
ATOM     14  N   UNL     1       3.993   0.000   0.000  0.00  0.00    -0.203 NA
ATOM     15  C   UNL     1       3.279  -0.412   0.000  0.00  0.00    +0.256 C 
ATOM     16  O   UNL     1       3.279  -1.238   0.000  0.00  0.00    -0.272 OA
ATOM     17  C   UNL     1       2.564   0.000   0.000  0.00  0.00    +0.138 C 
ATOM     18  C   UNL     1       1.780  -0.255   0.000  0.00  0.00    +0.049 C 
ATOM     19  C   UNL     1       1.295   0.412   0.000  0.00  0.00    +0.115 C 
ATOM     20  C   UNL     1       1.780   1.080   0.000  0.00  0.00    +0.094 C 
ATOM     21  N   UNL     1       2.564   0.825   0.000  0.00  0.00    -0.265 NA
ENDROOT
BRANCH  19  22
ATOM     22  N   UNL     1       0.470   0.412   0.000  0.00  0.00    -0.187 NA
ATOM     23  C   UNL     1       0.057   1.127   0.000  0.00  0.00    +0.343 C 
ATOM     24  O   UNL     1       0.470   1.841   0.000  0.00  0.00    -0.249 OA
ATOM     25  N   UNL     1      -0.768   1.127   0.000  0.00  0.00    -0.161 NA
BRANCH  25  26
ATOM     26  C   UNL     1      -1.180   1.841   0.000  0.00  0.00    +0.076 A 
ATOM     27  C   UNL     1      -2.005   1.841   0.000  0.00  0.00    +0.028 A 
ATOM     28  C   UNL     1      -2.418   2.556   0.000  0.00  0.00    +0.059 A 
ATOM     29 CL   UNL     1      -3.243   2.556   0.000  0.00  0.00    -0.082 Cl
ATOM     30  C   UNL     1      -2.005   3.270   0.000  0.00  0.00    +0.011 A 
ATOM     31  C   UNL     1      -1.180   3.270   0.000  0.00  0.00    +0.002 A 
ATOM     32  C   UNL     1      -0.768   2.556   0.000  0.00  0.00    +0.017 A 
ENDBRANCH  25  26
ENDBRANCH  19  22
BRANCH  12  11
ATOM     11  C   UNL     1       3.279   2.062   0.000  0.00  0.00    +0.027 C 
BRANCH  11  10
ATOM     10  C   UNL     1       3.993   2.475   0.000  0.00  0.00    +0.087 C 
BRANCH  10   8
ATOM      1  O   UNL     1       6.851   4.950   0.000  0.00  0.00    -0.223 OA
ATOM      2  C   UNL     1       6.137   4.537   0.000  0.00  0.00    +0.155 C 
ATOM      3  C   UNL     1       6.137   3.712   0.000  0.00  0.00    +0.054 C 
ATOM      4  C   UNL     1       5.422   3.300   0.000  0.00  0.00    +0.096 C 
ATOM      5  N   UNL     1       4.708   3.712   0.000  0.00  0.00    -0.279 N 
ATOM      6  C   UNL     1       4.708   4.537   0.000  0.00  0.00    +0.096 C 
ATOM      7  C   UNL     1       5.422   4.950   0.000  0.00  0.00    +0.054 C 
ATOM      8  C   UNL     1       3.993   3.300   0.000  0.00  0.00    +0.226 C 
ATOM      9  O   UNL     1       3.279   3.712   0.000  0.00  0.00    -0.275 OA
ENDBRANCH  10   8
ENDBRANCH  11  10
ENDBRANCH  12  11
TORSDOF 5
