REMARK  Name = 
REMARK  4 active torsions:
REMARK  status: ('A' for Active; 'I' for Inactive)
REMARK    1  A    between atoms: C_2  and  N_4
REMARK    2  A    between atoms: C_16  and  C_21
REMARK    3  A    between atoms: C_26  and  C_27
REMARK    4  A    between atoms: C_27  and  N_28
REMARK                            x       y       z     vdW  Elec       q    Type
REMARK                         _______ _______ _______ _____ _____    ______ ____
ROOT
ATOM      4  N   UNL     1      -0.318  -2.147   0.000  0.00  0.00    -0.190 NA
ATOM      5  C   UNL     1       0.343  -2.770   0.000  0.00  0.00    +0.323 C 
ATOM      6  O   UNL     1       0.624  -3.591   0.000  0.00  0.00    -0.251 OA
ATOM      7  N   UNL     1       0.813  -2.091   0.000  0.00  0.00    -0.262 N 
ATOM      8  C   UNL     1       1.629  -1.912   0.000  0.00  0.00    +0.097 C 
ATOM      9  C   UNL     1       1.582  -0.925   0.000  0.00  0.00    +0.043 C 
ATOM     10  C   UNL     1       1.713  -0.121   0.000  0.00  0.00    +0.011 C 
ATOM     11  C   UNL     1       1.163  -0.557   0.000  0.00  0.00    +0.058 C 
ATOM     12  C   UNL     1       1.225  -1.510   0.000  0.00  0.00    +0.101 C 
ATOM     13  C   UNL     1       0.244  -0.558   0.000  0.00  0.00    +0.041 A 
ATOM     14  C   UNL     1      -0.397  -0.039   0.000  0.00  0.00    +0.013 A 
ATOM     15  C   UNL     1      -1.167  -0.335   0.000  0.00  0.00    +0.006 A 
ATOM     16  C   UNL     1      -1.296  -1.150   0.000  0.00  0.00    +0.056 A 
ATOM     17  C   UNL     1      -0.655  -1.669   0.000  0.00  0.00    +0.261 A 
ATOM     18  O   UNL     1      -1.124  -2.386   0.000  0.00  0.00    -0.267 OA
ATOM     19  N   UNL     1       0.115  -1.373   0.000  0.00  0.00    -0.299 N 
ATOM     20  C   UNL     1       0.622  -0.936   0.000  0.00  0.00    +0.110 C 
ENDROOT
BRANCH  16  21
ATOM     21  C   UNL     1      -2.066  -1.445   0.000  0.00  0.00    +0.002 A 
ATOM     22  C   UNL     1      -2.707  -0.926   0.000  0.00  0.00    -0.000 A 
ATOM     23  C   UNL     1      -3.478  -1.222   0.000  0.00  0.00    -0.000 A 
ATOM     24  C   UNL     1      -3.606  -2.037   0.000  0.00  0.00    -0.000 A 
ATOM     25  C   UNL     1      -2.965  -2.556   0.000  0.00  0.00    -0.003 A 
ATOM     26  C   UNL     1      -2.195  -2.260   0.000  0.00  0.00    -0.006 A 
BRANCH  26  27
ATOM     27  C   UNL     1      -2.201  -3.184   0.000  0.00  0.00    +0.099 C 
BRANCH  27  28
ATOM     28  N   UNL     1      -2.662  -3.913   0.000  0.00  0.00    -0.267 NA
ATOM     29  C   UNL     1      -3.486  -3.880   0.000  0.00  0.00    +0.090 C 
ATOM     30  C   UNL     1      -2.278  -4.643   0.000  0.00  0.00    +0.090 C 
ENDBRANCH  27  28
ENDBRANCH  26  27
ENDBRANCH  16  21
BRANCH   4   2
ATOM      1  C   UNL     1      -1.644  -0.706   0.000  0.00  0.00    +0.023 C 
ATOM      2  C   UNL     1      -0.747  -1.179   0.000  0.00  0.00    +0.097 C 
ATOM      3  C   UNL     1      -0.224  -0.513   0.000  0.00  0.00    +0.023 C 
ENDBRANCH   4   2
TORSDOF 4
