REMARK  Name = 
REMARK  2 active torsions:
REMARK  status: ('A' for Active; 'I' for Inactive)
REMARK    1  A    between atoms: C_5  and  O_8
REMARK    2  A    between atoms: O_8  and  C_9
REMARK                            x       y       z     vdW  Elec       q    Type
REMARK                         _______ _______ _______ _____ _____    ______ ____
ROOT
ATOM      1  C   UNL     1      -2.616   0.229   0.000  0.00  0.00    +0.164 C 
ATOM      2  C   UNL     1      -1.811   0.045   0.000  0.00  0.00    +0.125 C 
ATOM      3  N   UNL     1      -1.453  -0.698   0.000  0.00  0.00    -0.282 N 
ATOM      4  C   UNL     1      -1.811  -1.441   0.000  0.00  0.00    +0.139 C 
ATOM      5  C   UNL     1      -2.616  -1.625   0.000  0.00  0.00    +0.215 C 
ATOM      6  C   UNL     1      -3.261  -1.110   0.000  0.00  0.00    +0.187 C 
ATOM      7  O   UNL     1      -3.261  -0.285   0.000  0.00  0.00    -0.348 OA
ATOM     15  C   UNL     1      -0.628  -0.698   0.000  0.00  0.00    +0.163 A 
ATOM     16  N   UNL     1      -0.143  -1.365   0.000  0.00  0.00    -0.224 NA
ATOM     17  C   UNL     1       0.641  -1.110   0.000  0.00  0.00    +0.089 A 
ATOM     18  C   UNL     1       0.641  -0.285   0.000  0.00  0.00    +0.050 A 
ATOM     19  S   UNL     1      -0.143  -0.030   0.000  0.00  0.00    -0.052 S 
ATOM     20  C   UNL     1       1.356   0.127   0.000  0.00  0.00    +0.008 A 
ATOM     21  C   UNL     1       2.070  -0.285   0.000  0.00  0.00    +0.001 A 
ATOM     22  C   UNL     1       2.070  -1.110   0.000  0.00  0.00    +0.002 A 
ATOM     23  C   UNL     1       1.356  -1.523   0.000  0.00  0.00    +0.020 A 
ENDROOT
BRANCH   5   8
ATOM      8  O   UNL     1      -2.799  -2.429   0.000  0.00  0.00    -0.475 OA
BRANCH   8   9
ATOM      9  C   UNL     1      -3.588  -2.672   0.000  0.00  0.00    +0.139 A 
ATOM     10  C   UNL     1      -3.771  -3.477   0.000  0.00  0.00    +0.037 A 
ATOM     11  C   UNL     1      -4.560  -3.720   0.000  0.00  0.00    +0.003 A 
ATOM     12  C   UNL     1      -5.164  -3.159   0.000  0.00  0.00    +0.000 A 
ATOM     13  C   UNL     1      -4.981  -2.354   0.000  0.00  0.00    +0.003 A 
ATOM     14  C   UNL     1      -4.192  -2.111   0.000  0.00  0.00    +0.037 A 
ENDBRANCH   8   9
ENDBRANCH   5   8
TORSDOF 2
