REMARK  Name = 
REMARK  4 active torsions:
REMARK  status: ('A' for Active; 'I' for Inactive)
REMARK    1  A    between atoms: C_4  and  N_18
REMARK    2  A    between atoms: C_6  and  C_7
REMARK    3  A    between atoms: C_9  and  C_12
REMARK    4  A    between atoms: C_19  and  C_21
REMARK                            x       y       z     vdW  Elec       q    Type
REMARK                         _______ _______ _______ _____ _____    ______ ____
ROOT
ATOM      1  C   UNL     1       1.429  -1.650   0.000  0.00  0.00    +0.090 C 
ATOM      2  N   UNL     1       1.429  -2.475   0.000  0.00  0.00    -0.264 NA
ATOM      3  C   UNL     1       2.096  -2.960   0.000  0.00  0.00    +0.094 C 
ATOM      4  C   UNL     1       1.841  -3.744   0.000  0.00  0.00    +0.113 C 
ATOM      5  C   UNL     1       1.016  -3.744   0.000  0.00  0.00    +0.049 C 
ATOM      6  C   UNL     1       0.761  -2.960   0.000  0.00  0.00    +0.139 C 
ENDROOT
BRANCH   6   7
ATOM      7  C   UNL     1      -0.023  -2.705   0.000  0.00  0.00    +0.251 A 
ATOM      8  N   UNL     1      -0.691  -3.190   0.000  0.00  0.00    -0.188 NA
ATOM      9  C   UNL     1      -1.358  -2.705   0.000  0.00  0.00    +0.223 A 
ATOM     10  N   UNL     1      -1.103  -1.920   0.000  0.00  0.00    -0.054 NA
ATOM     11  O   UNL     1      -0.278  -1.920   0.000  0.00  0.00    -0.336 OA
BRANCH   9  12
ATOM     12  C   UNL     1      -2.143  -2.960   0.000  0.00  0.00    +0.139 A 
ATOM     13  C   UNL     1      -2.314  -3.767   0.000  0.00  0.00    +0.121 A 
ATOM     14  N   UNL     1      -3.099  -4.022   0.000  0.00  0.00    -0.239 NA
ATOM     15  C   UNL     1      -3.712  -3.470   0.000  0.00  0.00    +0.120 A 
ATOM     16  C   UNL     1      -3.540  -2.663   0.000  0.00  0.00    +0.120 A 
ATOM     17  N   UNL     1      -2.756  -2.408   0.000  0.00  0.00    -0.237 NA
ENDBRANCH   9  12
ENDBRANCH   6   7
BRANCH   4  18
ATOM     18  N   UNL     1       2.326  -4.412   0.000  0.00  0.00    -0.202 NA
ATOM     19  C   UNL     1       3.147  -4.326   0.000  0.00  0.00    +0.265 C 
ATOM     20  O   UNL     1       3.482  -3.572   0.000  0.00  0.00    -0.268 OA
BRANCH  19  21
ATOM     21  C   UNL     1       3.632  -4.993   0.000  0.00  0.00    +0.055 A 
ATOM     22  C   UNL     1       4.452  -4.907   0.000  0.00  0.00    +0.005 A 
ATOM     23  C   UNL     1       4.937  -5.574   0.000  0.00  0.00    +0.000 A 
ATOM     24  C   UNL     1       4.602  -6.328   0.000  0.00  0.00    +0.000 A 
ATOM     25  C   UNL     1       3.781  -6.414   0.000  0.00  0.00    +0.000 A 
ATOM     26  C   UNL     1       3.296  -5.747   0.000  0.00  0.00    +0.005 A 
ENDBRANCH  19  21
ENDBRANCH   4  18
TORSDOF 4
