REMARK  Name = 
REMARK  4 active torsions:
REMARK  status: ('A' for Active; 'I' for Inactive)
REMARK    1  A    between atoms: C_2  and  C_26
REMARK    2  A    between atoms: C_9  and  N_10
REMARK    3  A    between atoms: C_11  and  C_13
REMARK    4  A    between atoms: C_26  and  C_28
REMARK                            x       y       z     vdW  Elec       q    Type
REMARK                         _______ _______ _______ _____ _____    ______ ____
ROOT
ATOM      1  C   UNL     1       0.715  -1.238   0.000  0.00  0.00    +0.052 C 
ATOM      2  C   UNL     1       0.715  -0.412   0.000  0.00  0.00    -0.001 C 
ATOM      3  C   UNL     1       1.429   0.000   0.000  0.00  0.00    -0.000 C 
ATOM      4  C   UNL     1       2.143  -0.412   0.000  0.00  0.00    -0.001 C 
ATOM      5  C   UNL     1       2.143   0.412   0.000  0.00  0.00    -0.000 C 
ATOM      6  C   UNL     1       2.858   0.000   0.000  0.00  0.00    +0.002 C 
ATOM      7  C   UNL     1       3.572  -0.412   0.000  0.00  0.00    +0.022 C 
ATOM      8  C   UNL     1       3.572  -1.238   0.000  0.00  0.00    +0.095 C 
ATOM     19  C   UNL     1       2.858  -1.650   0.000  0.00  0.00    +0.019 C 
ATOM     20  C   UNL     1       2.858  -2.475   0.000  0.00  0.00    +0.002 C 
ATOM     21  C   UNL     1       2.143  -1.238   0.000  0.00  0.00    +0.045 C 
ATOM     22  C   UNL     1       1.429  -1.650   0.000  0.00  0.00    +0.145 C 
ATOM     23  O   UNL     1       1.429  -2.475   0.000  0.00  0.00    -0.224 OA
ENDROOT
BRANCH   8   9
ATOM      9  N   UNL     1       4.287  -1.650   0.000  0.00  0.00    -0.203 NA
ATOM     10  C   UNL     1       5.001  -1.238   0.000  0.00  0.00    +0.265 C 
ATOM     11  O   UNL     1       5.001  -0.412   0.000  0.00  0.00    -0.268 OA
BRANCH  10  12
ATOM     12  C   UNL     1       5.716  -1.650   0.000  0.00  0.00    +0.057 A 
ATOM     13  C   UNL     1       6.430  -1.238   0.000  0.00  0.00    +0.005 A 
ATOM     14  C   UNL     1       7.145  -1.650   0.000  0.00  0.00    +0.002 A 
ATOM     15  C   UNL     1       7.145  -2.475   0.000  0.00  0.00    +0.030 A 
ATOM     16  C   UNL     1       6.430  -2.888   0.000  0.00  0.00    +0.140 A 
ATOM     17  F   UNL     1       6.430  -3.712   0.000  0.00  0.00    -0.204 F 
ATOM     18  C   UNL     1       5.716  -2.475   0.000  0.00  0.00    +0.034 A 
ENDBRANCH  10  12
ENDBRANCH   8   9
BRANCH   1  24
ATOM     24  C   UNL     1       0.000  -1.650   0.000  0.00  0.00    +0.075 C 
ATOM     25  C   UNL     1      -0.715  -1.238   0.000  0.00  0.00    +0.009 C 
BRANCH  24  26
ATOM     26  C   UNL     1       0.000  -2.475   0.000  0.00  0.00    +0.225 C 
ATOM     27  O   UNL     1       0.715  -2.888   0.000  0.00  0.00    -0.275 OA
ATOM     28  N   UNL     1      -0.715  -2.888   0.000  0.00  0.00    -0.280 N 
ATOM     29  C   UNL     1      -0.801  -3.708   0.000  0.00  0.00    +0.093 C 
ATOM     30  C   UNL     1      -1.608  -3.880   0.000  0.00  0.00    +0.023 C 
ATOM     31  C   UNL     1      -2.020  -3.165   0.000  0.00  0.00    +0.023 C 
ATOM     32  C   UNL     1      -1.468  -2.552   0.000  0.00  0.00    +0.093 C 
ENDBRANCH  24  26
ENDBRANCH   1  24
TORSDOF 4
