REMARK  Name = 
REMARK  7 active torsions:
REMARK  status: ('A' for Active; 'I' for Inactive)
REMARK    1  A    between atoms: O_2  and  C_3
REMARK    2  A    between atoms: C_8  and  N_9
REMARK    3  A    between atoms: C_15  and  C_17
REMARK    4  A    between atoms: C_17  and  C_18
REMARK    5  A    between atoms: C_23  and  C_24
REMARK    6  A    between atoms: C_24  and  C_25
REMARK    7  A    between atoms: C_28  and  C_30
REMARK                            x       y       z     vdW  Elec       q    Type
REMARK                         _______ _______ _______ _____ _____    ______ ____
ROOT
ATOM     18  C   UNL     1       1.429   0.825   0.000  0.00  0.00    +0.012 C 
ATOM     19  C   UNL     1       2.143   1.238   0.000  0.00  0.00    +0.019 C 
ATOM     20  C   UNL     1       2.858   0.825   0.000  0.00  0.00    +0.089 C 
ATOM     21  N   UNL     1       2.858   0.000   0.000  0.00  0.00    -0.218 NA
ATOM     22  C   UNL     1       2.143  -0.412   0.000  0.00  0.00    +0.089 C 
ATOM     23  C   UNL     1       1.429   0.000   0.000  0.00  0.00    +0.024 C 
ENDROOT
BRANCH  18  17
ATOM     17  C   UNL     1       0.715   1.238   0.000  0.00  0.00    +0.085 C 
BRANCH  17  15
ATOM      9  N   UNL     1      -1.429   3.300   0.000  0.00  0.00    -0.302 N 
ATOM     10  C   UNL     1      -0.715   3.712   0.000  0.00  0.00    +0.112 C 
ATOM     11  C   UNL     1       0.000   3.300   0.000  0.00  0.00    +0.115 C 
ATOM     12  N   UNL     1       0.000   2.475   0.000  0.00  0.00    -0.276 N 
ATOM     13  C   UNL     1      -0.715   2.062   0.000  0.00  0.00    +0.115 C 
ATOM     14  C   UNL     1      -1.429   2.475   0.000  0.00  0.00    +0.112 C 
ATOM     15  C   UNL     1       0.715   2.062   0.000  0.00  0.00    +0.226 C 
ATOM     16  O   UNL     1       1.429   2.475   0.000  0.00  0.00    -0.275 OA
BRANCH   9   8
ATOM      3  C   UNL     1      -2.858   3.300   0.000  0.00  0.00    +0.152 A 
ATOM      4  C   UNL     1      -3.572   3.712   0.000  0.00  0.00    +0.038 A 
ATOM      5  C   UNL     1      -3.572   4.537   0.000  0.00  0.00    +0.003 A 
ATOM      6  C   UNL     1      -2.858   4.950   0.000  0.00  0.00    +0.001 A 
ATOM      7  C   UNL     1      -2.143   4.537   0.000  0.00  0.00    +0.018 A 
ATOM      8  C   UNL     1      -2.143   3.712   0.000  0.00  0.00    +0.082 A 
BRANCH   3   2
ATOM      1  C   UNL     1      -3.572   2.062   0.000  0.00  0.00    +0.253 C 
ATOM      2  O   UNL     1      -2.858   2.475   0.000  0.00  0.00    -0.470 OA
ENDBRANCH   3   2
ENDBRANCH   9   8
ENDBRANCH  17  15
ENDBRANCH  18  17
BRANCH  23  24
ATOM     24  C   UNL     1       0.715  -0.412   0.000  0.00  0.00    +0.051 C 
BRANCH  24  25
ATOM     25  C   UNL     1       0.715  -1.238   0.000  0.00  0.00    +0.101 A 
ATOM     26  N   UNL     1       1.382  -1.722   0.000  0.00  0.00    -0.081 NA
ATOM     27  O   UNL     1       1.127  -2.507   0.000  0.00  0.00    -0.354 OA
ATOM     28  C   UNL     1       0.302  -2.507   0.000  0.00  0.00    +0.177 A 
ATOM     29  C   UNL     1       0.047  -1.722   0.000  0.00  0.00    +0.058 A 
BRANCH  28  30
ATOM     30  C   UNL     1      -0.183  -3.175   0.000  0.00  0.00    +0.037 A 
ATOM     31  C   UNL     1       0.153  -3.928   0.000  0.00  0.00    +0.005 A 
ATOM     32  C   UNL     1      -0.332  -4.596   0.000  0.00  0.00    +0.030 A 
ATOM     33  C   UNL     1      -1.153  -4.509   0.000  0.00  0.00    +0.140 A 
ATOM     34  F   UNL     1      -1.638  -5.177   0.000  0.00  0.00    -0.204 F 
ATOM     35  C   UNL     1      -1.488  -3.756   0.000  0.00  0.00    +0.030 A 
ATOM     36  C   UNL     1      -1.003  -3.088   0.000  0.00  0.00    +0.005 A 
ENDBRANCH  28  30
ENDBRANCH  24  25
ENDBRANCH  23  24
TORSDOF 7
