REMARK  Name = 
REMARK  3 active torsions:
REMARK  status: ('A' for Active; 'I' for Inactive)
REMARK    1  A    between atoms: C_7  and  C_8
REMARK    2  A    between atoms: C_14  and  N_15
REMARK    3  A    between atoms: N_15  and  S_16
REMARK                            x       y       z     vdW  Elec       q    Type
REMARK                         _______ _______ _______ _____ _____    ______ ____
ROOT
ATOM      8  C   UNL     1       2.751  -0.062   0.000  0.00  0.00    +0.045 C 
ATOM      9  C   UNL     1       3.419  -0.546   0.000  0.00  0.00    +0.041 C 
ATOM     10  C   UNL     1       3.164  -1.331   0.000  0.00  0.00    +0.184 C 
ATOM     11  O   UNL     1       3.649  -1.999   0.000  0.00  0.00    -0.220 OA
ATOM     12  C   UNL     1       2.339  -1.331   0.000  0.00  0.00    +0.200 C 
ATOM     13  O   UNL     1       1.854  -1.999   0.000  0.00  0.00    -0.219 OA
ATOM     14  C   UNL     1       2.084  -0.546   0.000  0.00  0.00    +0.134 C 
ENDROOT
BRANCH   8   7
ATOM      1  C   UNL     1       1.322   0.763   0.000  0.00  0.00    +0.031 C 
ATOM      2  C   UNL     1       2.037   1.176   0.000  0.00  0.00    -0.026 A 
ATOM      3  C   UNL     1       2.037   2.001   0.000  0.00  0.00    -0.005 A 
ATOM      4  C   UNL     1       2.751   2.413   0.000  0.00  0.00    -0.000 A 
ATOM      5  C   UNL     1       3.466   2.001   0.000  0.00  0.00    -0.000 A 
ATOM      6  C   UNL     1       3.466   1.176   0.000  0.00  0.00    -0.005 A 
ATOM      7  C   UNL     1       2.751   0.763   0.000  0.00  0.00    -0.025 A 
ENDBRANCH   8   7
BRANCH  14  15
ATOM     15  N   UNL     1       1.299  -0.292   0.000  0.00  0.00    -0.080 NA
BRANCH  15  16
ATOM     16  S   UNL     1       0.686  -0.844   0.000  0.00  0.00    +0.059 S 
ATOM     17  C   UNL     1       0.073  -1.396   0.000  0.00  0.00    +0.197 C 
ATOM     18  O   UNL     1       0.134  -0.231   0.000  0.00  0.00    -0.156 OA
ATOM     19  O   UNL     1       1.238  -1.457   0.000  0.00  0.00    -0.156 OA
ENDBRANCH  15  16
ENDBRANCH  14  15
TORSDOF 3
