REMARK  Name = 
REMARK  3 active torsions:
REMARK  status: ('A' for Active; 'I' for Inactive)
REMARK    1  A    between atoms: C_7  and  N_10
REMARK    2  A    between atoms: C_17  and  N_18
REMARK    3  A    between atoms: C_19  and  C_21
REMARK                            x       y       z     vdW  Elec       q    Type
REMARK                         _______ _______ _______ _____ _____    ______ ____
ROOT
ATOM     10  N   UNL     1       0.813  -2.091   0.000  0.00  0.00    -0.273 NA
ATOM     11  C   UNL     1       1.629  -1.912   0.000  0.00  0.00    +0.074 C 
ATOM     12  C   UNL     1       1.582  -0.925   0.000  0.00  0.00    +0.039 C 
ATOM     13  C   UNL     1       1.713  -0.121   0.000  0.00  0.00    +0.011 C 
ATOM     14  C   UNL     1       1.163  -0.557   0.000  0.00  0.00    +0.056 C 
ATOM     15  C   UNL     1       1.225  -1.510   0.000  0.00  0.00    +0.078 C 
ATOM     16  C   UNL     1       0.244  -0.558   0.000  0.00  0.00    +0.056 A 
ATOM     17  C   UNL     1      -0.397  -0.039   0.000  0.00  0.00    +0.086 A 
ATOM     27  C   UNL     1      -1.167  -0.335   0.000  0.00  0.00    +0.023 A 
ATOM     28  C   UNL     1      -1.296  -1.150   0.000  0.00  0.00    +0.062 A 
ATOM     29  C   UNL     1      -0.655  -1.669   0.000  0.00  0.00    +0.261 A 
ATOM     30  O   UNL     1      -1.238  -2.252   0.000  0.00  0.00    -0.267 OA
ATOM     31  N   UNL     1       0.115  -1.373   0.000  0.00  0.00    -0.298 N 
ATOM     32  C   UNL     1       0.622  -0.936   0.000  0.00  0.00    +0.110 C 
ENDROOT
BRANCH  10   7
ATOM      1  C   UNL     1      -1.888  -4.737   0.000  0.00  0.00    +0.095 C 
ATOM      2  C   UNL     1      -1.938  -3.914   0.000  0.00  0.00    +0.226 C 
ATOM      3  O   UNL     1      -2.677  -3.546   0.000  0.00  0.00    -0.275 OA
ATOM      4  N   UNL     1      -1.251  -3.458   0.000  0.00  0.00    -0.279 N 
ATOM      5  C   UNL     1      -1.301  -2.635   0.000  0.00  0.00    +0.095 C 
ATOM      6  C   UNL     1      -0.614  -2.179   0.000  0.00  0.00    +0.038 C 
ATOM      7  C   UNL     1       0.125  -2.547   0.000  0.00  0.00    +0.061 C 
ATOM      8  C   UNL     1       0.176  -3.370   0.000  0.00  0.00    +0.038 C 
ATOM      9  C   UNL     1      -0.512  -3.826   0.000  0.00  0.00    +0.095 C 
ENDBRANCH  10   7
BRANCH  17  18
ATOM     18  N   UNL     1      -0.268   0.776   0.000  0.00  0.00    -0.173 NA
ATOM     19  C   UNL     1      -0.909   1.295   0.000  0.00  0.00    +0.288 C 
ATOM     20  O   UNL     1      -1.679   0.999   0.000  0.00  0.00    -0.266 OA
BRANCH  19  21
ATOM     21  C   UNL     1      -0.780   2.110   0.000  0.00  0.00    +0.156 A 
ATOM     22  C   UNL     1      -1.421   2.629   0.000  0.00  0.00    +0.123 A 
ATOM     23  N   UNL     1      -1.292   3.444   0.000  0.00  0.00    -0.239 NA
ATOM     24  C   UNL     1      -0.522   3.740   0.000  0.00  0.00    +0.120 A 
ATOM     25  C   UNL     1       0.119   3.220   0.000  0.00  0.00    +0.120 A 
ATOM     26  N   UNL     1      -0.010   2.406   0.000  0.00  0.00    -0.236 NA
ENDBRANCH  19  21
ENDBRANCH  17  18
TORSDOF 3
