REMARK  Name = 
REMARK  8 active torsions:
REMARK  status: ('A' for Active; 'I' for Inactive)
REMARK    1  A    between atoms: C_4  and  C_5
REMARK    2  A    between atoms: C_10  and  N_11
REMARK    3  A    between atoms: N_14  and  C_15
REMARK    4  A    between atoms: C_23  and  C_24
REMARK    5  A    between atoms: N_26  and  C_27
REMARK    6  A    between atoms: C_27  and  C_28
REMARK    7  A    between atoms: C_27  and  C_35
REMARK    8  A    between atoms: C_28  and  C_29
REMARK                            x       y       z     vdW  Elec       q    Type
REMARK                         _______ _______ _______ _____ _____    ______ ____
ROOT
ATOM      5  C   UNL     1       1.241  -5.085   0.000  0.00  0.00    +0.249 C 
ATOM      6  O   UNL     1       1.070  -5.892   0.000  0.00  0.00    -0.270 OA
ATOM      7  N   UNL     1       0.628  -4.533   0.000  0.00  0.00    -0.268 N 
ATOM      8  C   UNL     1      -0.179  -4.705   0.000  0.00  0.00    +0.096 C 
ATOM      9  C   UNL     1      -0.591  -3.990   0.000  0.00  0.00    +0.045 C 
ATOM     10  C   UNL     1      -0.039  -3.377   0.000  0.00  0.00    +0.126 C 
ATOM     23  C   UNL     1       0.715  -3.712   0.000  0.00  0.00    +0.174 C 
ENDROOT
BRANCH   5   4
ATOM      1  C   UNL     1       2.467  -6.189   0.000  0.00  0.00    +0.027 C 
ATOM      2  C   UNL     1       2.639  -5.382   0.000  0.00  0.00    -0.039 C 
ATOM      3  C   UNL     1       3.424  -5.127   0.000  0.00  0.00    +0.027 C 
ATOM      4  C   UNL     1       2.026  -4.830   0.000  0.00  0.00    +0.049 C 
ENDBRANCH   5   4
BRANCH  10  11
ATOM     11  N   UNL     1      -0.211  -2.570   0.000  0.00  0.00    -0.186 NA
ATOM     12  C   UNL     1      -0.995  -2.315   0.000  0.00  0.00    +0.344 C 
ATOM     13  O   UNL     1      -1.608  -2.867   0.000  0.00  0.00    -0.249 OA
ATOM     14  N   UNL     1      -1.167  -1.508   0.000  0.00  0.00    -0.159 NA
BRANCH  14  15
ATOM     15  C   UNL     1      -1.952  -1.253   0.000  0.00  0.00    +0.102 A 
ATOM     16  C   UNL     1      -2.565  -1.805   0.000  0.00  0.00    +0.158 A 
ATOM     17  F   UNL     1      -2.393  -2.612   0.000  0.00  0.00    -0.203 F 
ATOM     18  C   UNL     1      -3.349  -1.550   0.000  0.00  0.00    +0.061 A 
ATOM     19  C   UNL     1      -3.521  -0.743   0.000  0.00  0.00    +0.142 A 
ATOM     20  F   UNL     1      -4.305  -0.488   0.000  0.00  0.00    -0.204 F 
ATOM     21  C   UNL     1      -2.908  -0.191   0.000  0.00  0.00    +0.031 A 
ATOM     22  C   UNL     1      -2.123  -0.446   0.000  0.00  0.00    +0.021 A 
ENDBRANCH  14  15
ENDBRANCH  10  11
BRANCH  23  24
ATOM     24  C   UNL     1       1.429  -3.300   0.000  0.00  0.00    +0.262 C 
ATOM     25  O   UNL     1       2.143  -3.712   0.000  0.00  0.00    -0.271 OA
ATOM     26  N   UNL     1       1.429  -2.475   0.000  0.00  0.00    -0.196 NA
BRANCH  26  27
ATOM     27  C   UNL     1       2.143  -2.062   0.000  0.00  0.00    +0.179 C 
BRANCH  27  35
ATOM     35  C   UNL     1       2.858  -2.475   0.000  0.00  0.00    +0.281 C 
ATOM     36  N   UNL     1       3.572  -2.062   0.000  0.00  0.00    -0.086 NA
ATOM     37  O   UNL     1       2.858  -3.300   0.000  0.00  0.00    -0.270 OA
ENDBRANCH  27  35
BRANCH  27  28
ATOM     28  C   UNL     1       2.143  -1.238   0.000  0.00  0.00    +0.057 C 
BRANCH  28  29
ATOM     29  C   UNL     1       2.858  -0.825   0.000  0.00  0.00    -0.020 A 
ATOM     30  C   UNL     1       2.858   0.000   0.000  0.00  0.00    -0.004 A 
ATOM     31  C   UNL     1       3.572   0.412   0.000  0.00  0.00    -0.000 A 
ATOM     32  C   UNL     1       4.287   0.000   0.000  0.00  0.00    -0.000 A 
ATOM     33  C   UNL     1       4.287  -0.825   0.000  0.00  0.00    -0.000 A 
ATOM     34  C   UNL     1       3.572  -1.238   0.000  0.00  0.00    -0.004 A 
ENDBRANCH  28  29
ENDBRANCH  27  28
ENDBRANCH  26  27
ENDBRANCH  23  24
TORSDOF 8
