REMARK  Name = 
REMARK  6 active torsions:
REMARK  status: ('A' for Active; 'I' for Inactive)
REMARK    1  A    between atoms: O_2  and  C_3
REMARK    2  A    between atoms: C_3  and  C_4
REMARK    3  A    between atoms: C_4  and  C_5
REMARK    4  A    between atoms: N_7  and  C_8
REMARK    5  A    between atoms: N_20  and  C_21
REMARK    6  A    between atoms: C_24  and  O_25
REMARK                            x       y       z     vdW  Elec       q    Type
REMARK                         _______ _______ _______ _____ _____    ______ ____
ROOT
ATOM      8  C   UNL     1      -1.296  -1.150   0.000  0.00  0.00    +0.129 A 
ATOM      9  C   UNL     1      -1.167  -0.335   0.000  0.00  0.00    +0.023 A 
ATOM     10  C   UNL     1      -0.397  -0.039   0.000  0.00  0.00    +0.014 A 
ATOM     11  C   UNL     1       0.244  -0.558   0.000  0.00  0.00    +0.041 A 
ATOM     12  C   UNL     1       1.163  -0.557   0.000  0.00  0.00    +0.058 C 
ATOM     13  C   UNL     1       1.713  -0.121   0.000  0.00  0.00    +0.011 C 
ATOM     14  C   UNL     1       1.582  -0.925   0.000  0.00  0.00    +0.043 C 
ATOM     15  C   UNL     1       1.629  -1.912   0.000  0.00  0.00    +0.097 C 
ATOM     16  N   UNL     1       0.813  -2.091   0.000  0.00  0.00    -0.262 N 
ATOM     17  C   UNL     1       1.225  -1.510   0.000  0.00  0.00    +0.101 C 
ATOM     18  C   UNL     1       0.125  -2.547   0.000  0.00  0.00    +0.327 C 
ATOM     19  O   UNL     1      -0.614  -2.179   0.000  0.00  0.00    -0.250 OA
ATOM     20  N   UNL     1       0.176  -3.370   0.000  0.00  0.00    -0.162 NA
ATOM     29  C   UNL     1       0.622  -0.936   0.000  0.00  0.00    +0.110 C 
ATOM     30  N   UNL     1       0.115  -1.373   0.000  0.00  0.00    -0.298 N 
ATOM     31  C   UNL     1      -0.655  -1.669   0.000  0.00  0.00    +0.276 A 
ATOM     32  O   UNL     1      -1.029  -2.404   0.000  0.00  0.00    -0.266 OA
ENDROOT
BRANCH  20  21
ATOM     21  C   UNL     1       0.914  -3.738   0.000  0.00  0.00    +0.075 A 
ATOM     22  C   UNL     1       1.602  -3.283   0.000  0.00  0.00    +0.020 A 
ATOM     23  C   UNL     1       2.340  -3.650   0.000  0.00  0.00    +0.038 A 
ATOM     24  C   UNL     1       2.391  -4.474   0.000  0.00  0.00    +0.139 A 
ATOM     27  C   UNL     1       1.703  -4.929   0.000  0.00  0.00    +0.038 A 
ATOM     28  C   UNL     1       0.965  -4.562   0.000  0.00  0.00    +0.020 A 
BRANCH  24  25
ATOM     25  O   UNL     1       3.130  -4.842   0.000  0.00  0.00    -0.471 OA
ATOM     26  C   UNL     1       3.817  -4.386   0.000  0.00  0.00    +0.252 C 
ENDBRANCH  24  25
ENDBRANCH  20  21
BRANCH   8   7
ATOM      5  C   UNL     1      -2.195  -2.260   0.000  0.00  0.00    +0.248 C 
ATOM      6  O   UNL     1      -1.554  -2.779   0.000  0.00  0.00    -0.273 OA
ATOM      7  N   UNL     1      -2.066  -1.445   0.000  0.00  0.00    -0.174 NA
BRANCH   5   4
ATOM      4  C   UNL     1      -2.965  -2.556   0.000  0.00  0.00    +0.119 C 
BRANCH   4   3
ATOM      3  C   UNL     1      -3.094  -3.371   0.000  0.00  0.00    +0.152 C 
BRANCH   3   2
ATOM      1  C   UNL     1      -3.993  -4.481   0.000  0.00  0.00    +0.174 C 
ATOM      2  O   UNL     1      -3.864  -3.667   0.000  0.00  0.00    -0.351 OA
ENDBRANCH   3   2
ENDBRANCH   4   3
ENDBRANCH   5   4
ENDBRANCH   8   7
TORSDOF 6
