REMARK  Name = 
REMARK  7 active torsions:
REMARK  status: ('A' for Active; 'I' for Inactive)
REMARK    1  A    between atoms: C_2  and  C_4
REMARK    2  A    between atoms: C_6  and  C_7
REMARK    3  A    between atoms: C_7  and  C_8
REMARK    4  A    between atoms: C_11  and  C_13
REMARK    5  A    between atoms: C_22  and  C_23
REMARK    6  A    between atoms: C_23  and  N_24
REMARK    7  A    between atoms: C_27  and  C_30
REMARK                            x       y       z     vdW  Elec       q    Type
REMARK                         _______ _______ _______ _____ _____    ______ ____
ROOT
ATOM      4  C   UNL     1       1.429  -2.475   0.000  0.00  0.00    +0.006 C 
ATOM      5  C   UNL     1       2.143  -2.888   0.000  0.00  0.00    +0.005 C 
ATOM      6  C   UNL     1       2.858  -2.475   0.000  0.00  0.00    +0.027 C 
ATOM     19  C   UNL     1       2.858  -1.650   0.000  0.00  0.00    -0.048 C 
ATOM     20  C   UNL     1       3.572  -1.238   0.000  0.00  0.00    +0.026 C 
ATOM     21  C   UNL     1       2.143  -1.238   0.000  0.00  0.00    -0.034 C 
ATOM     22  C   UNL     1       1.429  -1.650   0.000  0.00  0.00    +0.037 C 
ENDROOT
BRANCH   4   2
ATOM      1  C   UNL     1       0.000  -2.475   0.000  0.00  0.00    +0.000 C 
ATOM      2  C   UNL     1       0.715  -2.888   0.000  0.00  0.00    +0.000 C 
ATOM      3  C   UNL     1       0.715  -3.712   0.000  0.00  0.00    +0.000 C 
ENDBRANCH   4   2
BRANCH   6   7
ATOM      7  C   UNL     1       3.572  -2.888   0.000  0.00  0.00    +0.091 C 
BRANCH   7   8
ATOM      8  C   UNL     1       3.572  -3.712   0.000  0.00  0.00    +0.227 A 
ATOM      9  N   UNL     1       4.240  -4.197   0.000  0.00  0.00    -0.111 NA
ATOM     10  N   UNL     1       3.985  -4.982   0.000  0.00  0.00    -0.107 NA
ATOM     11  C   UNL     1       3.160  -4.982   0.000  0.00  0.00    +0.250 A 
ATOM     12  O   UNL     1       2.905  -4.197   0.000  0.00  0.00    -0.420 OA
BRANCH  11  13
ATOM     13  C   UNL     1       2.675  -5.649   0.000  0.00  0.00    +0.055 A 
ATOM     14  C   UNL     1       3.010  -6.403   0.000  0.00  0.00    +0.005 A 
ATOM     15  C   UNL     1       2.526  -7.071   0.000  0.00  0.00    +0.000 A 
ATOM     16  C   UNL     1       1.705  -6.984   0.000  0.00  0.00    +0.000 A 
ATOM     17  C   UNL     1       1.369  -6.231   0.000  0.00  0.00    +0.000 A 
ATOM     18  C   UNL     1       1.855  -5.563   0.000  0.00  0.00    +0.005 A 
ENDBRANCH  11  13
ENDBRANCH   7   8
ENDBRANCH   6   7
BRANCH  22  23
ATOM     23  C   UNL     1       0.715  -1.238   0.000  0.00  0.00    +0.076 C 
BRANCH  23  24
ATOM     24  N   UNL     1       0.715  -0.412   0.000  0.00  0.00    -0.272 NA
ATOM     25  C   UNL     1       0.000   0.000   0.000  0.00  0.00    +0.073 C 
ATOM     26  C   UNL     1       0.000   0.825   0.000  0.00  0.00    +0.027 C 
ATOM     27  C   UNL     1       0.715   1.238   0.000  0.00  0.00    +0.083 C 
ATOM     28  C   UNL     1       1.429   0.825   0.000  0.00  0.00    +0.027 C 
ATOM     29  C   UNL     1       1.429   0.000   0.000  0.00  0.00    +0.073 C 
BRANCH  27  30
ATOM     30  C   UNL     1       0.715   2.062   0.000  0.00  0.00    +0.260 C 
ATOM     31  N   UNL     1       0.000   2.475   0.000  0.00  0.00    -0.088 NA
ATOM     32  O   UNL     1       1.429   2.475   0.000  0.00  0.00    -0.272 OA
ENDBRANCH  27  30
ENDBRANCH  23  24
ENDBRANCH  22  23
TORSDOF 7
