REMARK  Name = 
REMARK  3 active torsions:
REMARK  status: ('A' for Active; 'I' for Inactive)
REMARK    1  A    between atoms: S_2  and  N_5
REMARK    2  A    between atoms: C_10  and  C_11
REMARK    3  A    between atoms: N_13  and  C_14
REMARK                            x       y       z     vdW  Elec       q    Type
REMARK                         _______ _______ _______ _____ _____    ______ ____
ROOT
ATOM      5  N   UNL     1       2.143  -1.238   0.000  0.00  0.00    -0.148 NA
ATOM      6  C   UNL     1       2.858  -1.650   0.000  0.00  0.00    +0.117 C 
ATOM      7  C   UNL     1       2.858  -2.475   0.000  0.00  0.00    +0.114 C 
ATOM      8  N   UNL     1       2.143  -2.888   0.000  0.00  0.00    -0.261 N 
ATOM      9  C   UNL     1       1.429  -2.475   0.000  0.00  0.00    +0.122 C 
ATOM     10  C   UNL     1       1.429  -1.650   0.000  0.00  0.00    +0.177 C 
ATOM     21  C   UNL     1       2.143  -3.712   0.000  0.00  0.00    +0.307 C 
ATOM     22  O   UNL     1       2.858  -4.125   0.000  0.00  0.00    -0.252 OA
ATOM     23  N   UNL     1       1.429  -4.125   0.000  0.00  0.00    -0.259 N 
ATOM     24  C   UNL     1       1.429  -4.950   0.000  0.00  0.00    +0.127 C 
ATOM     25  C   UNL     1       0.715  -5.362   0.000  0.00  0.00    +0.164 C 
ATOM     26  O   UNL     1       0.000  -4.950   0.000  0.00  0.00    -0.350 OA
ATOM     27  C   UNL     1       0.000  -4.125   0.000  0.00  0.00    +0.164 C 
ATOM     28  C   UNL     1       0.715  -3.712   0.000  0.00  0.00    +0.127 C 
ENDROOT
BRANCH   5   2
ATOM      1  C   UNL     1       2.143   0.412   0.000  0.00  0.00    +0.196 C 
ATOM      2  S   UNL     1       2.143  -0.412   0.000  0.00  0.00    +0.046 S 
ATOM      3  O   UNL     1       1.318  -0.412   0.000  0.00  0.00    -0.157 OA
ATOM      4  O   UNL     1       2.968  -0.412   0.000  0.00  0.00    -0.157 OA
ENDBRANCH   5   2
BRANCH  10  11
ATOM     11  C   UNL     1       0.715  -1.238   0.000  0.00  0.00    +0.260 C 
ATOM     12  O   UNL     1       0.000  -1.650   0.000  0.00  0.00    -0.272 OA
ATOM     13  N   UNL     1       0.715  -0.412   0.000  0.00  0.00    -0.197 NA
BRANCH  13  14
ATOM     14  C   UNL     1       0.000   0.000   0.000  0.00  0.00    +0.173 C 
ATOM     15  C   UNL     1      -0.715  -0.412   0.000  0.00  0.00    +0.033 C 
ATOM     16  C   UNL     1      -1.429   0.000   0.000  0.00  0.00    +0.026 C 
ATOM     17  C   UNL     1      -1.429   0.825   0.000  0.00  0.00    +0.115 C 
ATOM     18  N   UNL     1      -0.715   1.238   0.000  0.00  0.00    -0.204 NA
ATOM     19  C   UNL     1       0.000   0.825   0.000  0.00  0.00    +0.261 C 
ATOM     20  O   UNL     1       0.715   1.238   0.000  0.00  0.00    -0.271 OA
ENDBRANCH  13  14
ENDBRANCH  10  11
TORSDOF 3
