REMARK  Name = 
REMARK  6 active torsions:
REMARK  status: ('A' for Active; 'I' for Inactive)
REMARK    1  A    between atoms: C_2  and  C_5
REMARK    2  A    between atoms: C_8  and  C_11
REMARK    3  A    between atoms: C_13  and  C_14
REMARK    4  A    between atoms: C_14  and  C_15
REMARK    5  A    between atoms: C_20  and  C_21
REMARK    6  A    between atoms: C_21  and  C_22
REMARK                            x       y       z     vdW  Elec       q    Type
REMARK                         _______ _______ _______ _____ _____    ______ ____
ROOT
ATOM     15  C   UNL     1      -3.572  -0.412   0.000  0.00  0.00    +0.024 C 
ATOM     16  C   UNL     1      -4.287   0.000   0.000  0.00  0.00    +0.089 C 
ATOM     17  N   UNL     1      -4.287   0.825   0.000  0.00  0.00    -0.218 NA
ATOM     18  C   UNL     1      -3.572   1.238   0.000  0.00  0.00    +0.089 C 
ATOM     19  C   UNL     1      -2.858   0.825   0.000  0.00  0.00    +0.019 C 
ATOM     20  C   UNL     1      -2.858   0.000   0.000  0.00  0.00    +0.012 C 
ENDROOT
BRANCH  15  14
ATOM     14  C   UNL     1      -3.572  -1.238   0.000  0.00  0.00    +0.051 C 
BRANCH  14  13
ATOM     11  C   UNL     1      -5.593  -1.927   0.000  0.00  0.00    +0.177 A 
ATOM     12  C   UNL     1      -5.040  -1.314   0.000  0.00  0.00    +0.058 A 
ATOM     13  C   UNL     1      -4.287  -1.650   0.000  0.00  0.00    +0.101 A 
ATOM     34  N   UNL     1      -4.373  -2.470   0.000  0.00  0.00    -0.081 NA
ATOM     35  O   UNL     1      -5.180  -2.642   0.000  0.00  0.00    -0.354 OA
BRANCH  11   8
ATOM      5  C   UNL     1      -8.054  -1.669   0.000  0.00  0.00    -0.023 A 
ATOM      6  C   UNL     1      -7.569  -1.001   0.000  0.00  0.00    -0.004 A 
ATOM      7  C   UNL     1      -6.749  -1.088   0.000  0.00  0.00    +0.003 A 
ATOM      8  C   UNL     1      -6.413  -1.841   0.000  0.00  0.00    +0.037 A 
ATOM      9  C   UNL     1      -6.898  -2.509   0.000  0.00  0.00    +0.003 A 
ATOM     10  C   UNL     1      -7.718  -2.422   0.000  0.00  0.00    -0.004 A 
BRANCH   5   2
ATOM      1  C   UNL     1      -9.695  -1.496   0.000  0.00  0.00    +0.004 C 
ATOM      2  C   UNL     1      -8.874  -1.583   0.000  0.00  0.00    +0.019 C 
ATOM      3  C   UNL     1      -8.961  -2.403   0.000  0.00  0.00    +0.004 C 
ATOM      4  C   UNL     1      -8.788  -0.762   0.000  0.00  0.00    +0.004 C 
ENDBRANCH   5   2
ENDBRANCH  11   8
ENDBRANCH  14  13
ENDBRANCH  15  14
BRANCH  20  21
ATOM     21  C   UNL     1      -2.143  -0.412   0.000  0.00  0.00    +0.085 C 
BRANCH  21  22
ATOM     22  C   UNL     1      -1.429   0.000   0.000  0.00  0.00    +0.226 C 
ATOM     23  O   UNL     1      -1.429   0.825   0.000  0.00  0.00    -0.275 OA
ATOM     24  N   UNL     1      -0.715  -0.412   0.000  0.00  0.00    -0.275 N 
ATOM     25  C   UNL     1      -0.715  -1.238   0.000  0.00  0.00    +0.098 C 
ATOM     26  C   UNL     1       0.000  -1.650   0.000  0.00  0.00    +0.048 C 
ATOM     27  C   UNL     1       0.715  -1.238   0.000  0.00  0.00    -0.023 A 
ATOM     28  C   UNL     1       0.715  -0.412   0.000  0.00  0.00    -0.006 A 
ATOM     29  C   UNL     1       0.000   0.000   0.000  0.00  0.00    +0.120 C 
ATOM     30  C   UNL     1       1.429   0.000   0.000  0.00  0.00    -0.003 A 
ATOM     31  C   UNL     1       2.143  -0.412   0.000  0.00  0.00    -0.000 A 
ATOM     32  C   UNL     1       2.143  -1.238   0.000  0.00  0.00    -0.000 A 
ATOM     33  C   UNL     1       1.429  -1.650   0.000  0.00  0.00    -0.004 A 
ENDBRANCH  21  22
ENDBRANCH  20  21
TORSDOF 6
