REMARK  Name = 
REMARK  5 active torsions:
REMARK  status: ('A' for Active; 'I' for Inactive)
REMARK    1  A    between atoms: C_4  and  C_5
REMARK    2  A    between atoms: C_5  and  C_6
REMARK    3  A    between atoms: C_9  and  C_10
REMARK    4  A    between atoms: C_14  and  N_15
REMARK    5  A    between atoms: N_15  and  C_16
REMARK                            x       y       z     vdW  Elec       q    Type
REMARK                         _______ _______ _______ _____ _____    ______ ____
ROOT
ATOM      1  C   UNL     1       2.518  -0.775   0.000  0.00  0.00    +0.001 C 
ATOM      2  C   UNL     1       1.934  -1.358   0.000  0.00  0.00    +0.015 C 
ATOM      3  C   UNL     1       1.351  -0.775   0.000  0.00  0.00    +0.001 C 
ATOM      4  C   UNL     1       2.518  -1.942   0.000  0.00  0.00    +0.009 C 
ATOM     13  C   UNL     1       1.934  -2.525   0.000  0.00  0.00    +0.018 C 
ATOM     14  C   UNL     1       1.351  -1.942   0.000  0.00  0.00    +0.073 C 
ENDROOT
BRANCH   4   5
ATOM      5  C   UNL     1       3.342  -1.942   0.000  0.00  0.00    +0.049 C 
BRANCH   5   6
ATOM      6  C   UNL     1       3.755  -2.656   0.000  0.00  0.00    +0.100 A 
ATOM      7  N   UNL     1       4.575  -2.742   0.000  0.00  0.00    -0.082 NA
ATOM      8  O   UNL     1       4.747  -3.549   0.000  0.00  0.00    -0.355 OA
ATOM      9  C   UNL     1       4.032  -3.962   0.000  0.00  0.00    +0.187 A 
ATOM     12  C   UNL     1       3.420  -3.410   0.000  0.00  0.00    +0.056 A 
BRANCH   9  10
ATOM     10  C   UNL     1       3.946  -4.782   0.000  0.00  0.00    +0.249 C 
ATOM     11  O   UNL     1       4.614  -5.267   0.000  0.00  0.00    -0.212 OA
ENDBRANCH   9  10
ENDBRANCH   5   6
ENDBRANCH   4   5
BRANCH  14  15
ATOM     15  N   UNL     1       0.526  -1.942   0.000  0.00  0.00    -0.221 NA
BRANCH  15  16
ATOM     16  C   UNL     1       0.113  -1.227   0.000  0.00  0.00    +0.073 C 
ATOM     17  C   UNL     1      -0.712  -1.227   0.000  0.00  0.00    +0.017 C 
ATOM     18  C   UNL     1      -1.124  -0.513   0.000  0.00  0.00    +0.001 C 
ATOM     19  C   UNL     1      -0.712   0.202   0.000  0.00  0.00    +0.000 C 
ATOM     20  C   UNL     1       0.113   0.202   0.000  0.00  0.00    +0.001 C 
ATOM     21  C   UNL     1       0.526  -0.513   0.000  0.00  0.00    +0.017 C 
ENDBRANCH  15  16
ENDBRANCH  14  15
TORSDOF 5
