REMARK  Name = 
REMARK  6 active torsions:
REMARK  status: ('A' for Active; 'I' for Inactive)
REMARK    1  A    between atoms: C_5  and  C_6
REMARK    2  A    between atoms: C_6  and  C_7
REMARK    3  A    between atoms: C_22  and  C_23
REMARK    4  A    between atoms: C_23  and  N_24
REMARK    5  A    between atoms: N_24  and  S_25
REMARK    6  A    between atoms: S_25  and  C_28
REMARK                            x       y       z     vdW  Elec       q    Type
REMARK                         _______ _______ _______ _____ _____    ______ ____
ROOT
ATOM      1  O   UNL     1       1.429  -2.475   0.000  0.00  0.00    -0.218 OA
ATOM      2  C   UNL     1       1.429  -3.300   0.000  0.00  0.00    +0.213 C 
ATOM      3  C   UNL     1       2.096  -3.785   0.000  0.00  0.00    +0.212 C 
ATOM      4  O   UNL     1       2.881  -3.530   0.000  0.00  0.00    -0.218 OA
ATOM      5  C   UNL     1       1.841  -4.569   0.000  0.00  0.00    +0.157 C 
ATOM     21  O   UNL     1       1.016  -4.569   0.000  0.00  0.00    -0.351 OA
ATOM     22  C   UNL     1       0.761  -3.785   0.000  0.00  0.00    +0.167 C 
ENDROOT
BRANCH   5   6
ATOM      6  C   UNL     1       2.326  -5.237   0.000  0.00  0.00    +0.117 C 
BRANCH   6   7
ATOM      7  C   UNL     1       3.147  -5.151   0.000  0.00  0.00    +0.228 C 
ATOM      8  O   UNL     1       3.482  -4.397   0.000  0.00  0.00    -0.275 OA
ATOM      9  N   UNL     1       3.632  -5.818   0.000  0.00  0.00    -0.276 N 
ATOM     10  C   UNL     1       4.452  -5.732   0.000  0.00  0.00    +0.115 C 
ATOM     11  C   UNL     1       4.937  -6.399   0.000  0.00  0.00    +0.114 C 
ATOM     12  N   UNL     1       4.602  -7.153   0.000  0.00  0.00    -0.290 N 
ATOM     13  C   UNL     1       3.781  -7.239   0.000  0.00  0.00    +0.114 C 
ATOM     14  C   UNL     1       3.296  -6.572   0.000  0.00  0.00    +0.115 C 
ATOM     15  C   UNL     1       5.087  -7.821   0.000  0.00  0.00    +0.132 A 
ATOM     16  N   UNL     1       5.907  -7.734   0.000  0.00  0.00    -0.229 NA
ATOM     17  C   UNL     1       6.392  -8.402   0.000  0.00  0.00    +0.100 A 
ATOM     18  C   UNL     1       6.056  -9.155   0.000  0.00  0.00    +0.021 A 
ATOM     19  C   UNL     1       5.236  -9.242   0.000  0.00  0.00    +0.004 A 
ATOM     20  C   UNL     1       4.751  -8.574   0.000  0.00  0.00    +0.034 A 
ENDBRANCH   6   7
ENDBRANCH   5   6
BRANCH  22  23
ATOM     23  C   UNL     1      -0.023  -3.530   0.000  0.00  0.00    +0.148 C 
BRANCH  23  24
ATOM     24  N   UNL     1      -0.636  -4.082   0.000  0.00  0.00    -0.075 NA
BRANCH  24  25
ATOM     25  S   UNL     1      -1.421  -3.827   0.000  0.00  0.00    +0.077 S 
ATOM     26  O   UNL     1      -1.166  -3.042   0.000  0.00  0.00    -0.152 OA
ATOM     27  O   UNL     1      -1.676  -4.612   0.000  0.00  0.00    -0.152 OA
BRANCH  25  28
ATOM     28  C   UNL     1      -2.205  -3.572   0.000  0.00  0.00    +0.124 A 
ATOM     29  C   UNL     1      -2.819  -4.124   0.000  0.00  0.00    +0.021 A 
ATOM     30  C   UNL     1      -3.603  -3.869   0.000  0.00  0.00    +0.013 A 
ATOM     31  C   UNL     1      -3.775  -3.062   0.000  0.00  0.00    +0.058 A 
ATOM     32 CL   UNL     1      -4.559  -2.807   0.000  0.00  0.00    -0.082 Cl
ATOM     33  C   UNL     1      -3.162  -2.510   0.000  0.00  0.00    +0.013 A 
ATOM     34  C   UNL     1      -2.377  -2.765   0.000  0.00  0.00    +0.021 A 
ENDBRANCH  25  28
ENDBRANCH  24  25
ENDBRANCH  23  24
ENDBRANCH  22  23
TORSDOF 6
