REMARK  Name = 
REMARK  5 active torsions:
REMARK  status: ('A' for Active; 'I' for Inactive)
REMARK    1  A    between atoms: C_2  and  C_4
REMARK    2  A    between atoms: C_7  and  N_8
REMARK    3  A    between atoms: C_15  and  C_17
REMARK    4  A    between atoms: N_19  and  C_20
REMARK    5  A    between atoms: C_27  and  C_29
REMARK                            x       y       z     vdW  Elec       q    Type
REMARK                         _______ _______ _______ _____ _____    ______ ____
ROOT
ATOM      8  N   UNL     1       2.250  -0.474   0.000  0.00  0.00    -0.162 NA
ATOM      9  C   UNL     1       1.536  -0.062   0.000  0.00  0.00    +0.328 C 
ATOM     10  O   UNL     1       1.536   0.763   0.000  0.00  0.00    -0.250 OA
ATOM     11  N   UNL     1       0.821  -0.474   0.000  0.00  0.00    -0.259 N 
ATOM     12  C   UNL     1       0.821  -1.299   0.000  0.00  0.00    +0.117 C 
ATOM     13  C   UNL     1       0.107  -1.712   0.000  0.00  0.00    +0.116 C 
ATOM     14  N   UNL     1      -0.608  -1.299   0.000  0.00  0.00    -0.266 N 
ATOM     15  C   UNL     1      -0.608  -0.474   0.000  0.00  0.00    +0.174 C 
ATOM     16  C   UNL     1       0.107  -0.062   0.000  0.00  0.00    +0.124 C 
ATOM     27  C   UNL     1      -1.322  -1.712   0.000  0.00  0.00    +0.255 C 
ATOM     28  O   UNL     1      -2.037  -1.299   0.000  0.00  0.00    -0.269 OA
ENDROOT
BRANCH   8   7
ATOM      4  C   UNL     1       4.394   0.763   0.000  0.00  0.00    +0.035 A 
ATOM      5  C   UNL     1       4.394  -0.062   0.000  0.00  0.00    +0.004 A 
ATOM      6  C   UNL     1       3.679  -0.474   0.000  0.00  0.00    +0.017 A 
ATOM      7  C   UNL     1       2.965  -0.062   0.000  0.00  0.00    +0.075 A 
ATOM     34  C   UNL     1       2.965   0.763   0.000  0.00  0.00    +0.017 A 
ATOM     35  C   UNL     1       3.679   1.176   0.000  0.00  0.00    +0.004 A 
BRANCH   4   2
ATOM      1  C   UNL     1       5.108   2.001   0.000  0.00  0.00    +0.077 C 
ATOM      2  C   UNL     1       5.108   1.176   0.000  0.00  0.00    +0.173 C 
ATOM      3  O   UNL     1       5.822   0.763   0.000  0.00  0.00    -0.291 OA
ENDBRANCH   4   2
ENDBRANCH   8   7
BRANCH  27  29
ATOM     29  C   UNL     1      -1.322  -2.537   0.000  0.00  0.00    +0.083 A 
ATOM     30  C   UNL     1      -0.655  -3.022   0.000  0.00  0.00    +0.012 A 
ATOM     31  C   UNL     1      -0.910  -3.806   0.000  0.00  0.00    +0.008 A 
ATOM     32  C   UNL     1      -1.735  -3.806   0.000  0.00  0.00    +0.036 A 
ATOM     33  S   UNL     1      -1.990  -3.022   0.000  0.00  0.00    -0.082 S 
ENDBRANCH  27  29
BRANCH  15  17
ATOM     17  C   UNL     1      -1.322  -0.062   0.000  0.00  0.00    +0.262 C 
ATOM     18  O   UNL     1      -1.322   0.763   0.000  0.00  0.00    -0.271 OA
ATOM     19  N   UNL     1      -2.037  -0.474   0.000  0.00  0.00    -0.196 NA
BRANCH  19  20
ATOM     20  C   UNL     1      -2.751  -0.062   0.000  0.00  0.00    +0.173 C 
ATOM     21  C   UNL     1      -3.466  -0.474   0.000  0.00  0.00    +0.033 C 
ATOM     22  C   UNL     1      -4.180  -0.062   0.000  0.00  0.00    +0.026 C 
ATOM     23  C   UNL     1      -4.180   0.763   0.000  0.00  0.00    +0.115 C 
ATOM     24  N   UNL     1      -3.466   1.176   0.000  0.00  0.00    -0.204 NA
ATOM     25  C   UNL     1      -2.751   0.763   0.000  0.00  0.00    +0.261 C 
ATOM     26  O   UNL     1      -2.037   1.176   0.000  0.00  0.00    -0.271 OA
ENDBRANCH  19  20
ENDBRANCH  15  17
TORSDOF 5
