REMARK  Name = 
REMARK  7 active torsions:
REMARK  status: ('A' for Active; 'I' for Inactive)
REMARK    1  A    between atoms: S_2  and  C_5
REMARK    2  A    between atoms: C_8  and  C_9
REMARK    3  A    between atoms: C_9  and  N_10
REMARK    4  A    between atoms: C_14  and  C_15
REMARK    5  A    between atoms: C_17  and  C_20
REMARK    6  A    between atoms: C_23  and  N_26
REMARK    7  A    between atoms: C_29  and  C_32
REMARK                            x       y       z     vdW  Elec       q    Type
REMARK                         _______ _______ _______ _____ _____    ______ ____
ROOT
ATOM     15  C   UNL     1      -2.047  -5.745   0.000  0.00  0.00    +0.251 A 
ATOM     16  N   UNL     1      -2.715  -6.230   0.000  0.00  0.00    -0.190 NA
ATOM     17  C   UNL     1      -3.382  -5.745   0.000  0.00  0.00    +0.205 A 
ATOM     18  N   UNL     1      -3.127  -4.961   0.000  0.00  0.00    -0.056 NA
ATOM     19  O   UNL     1      -2.303  -4.961   0.000  0.00  0.00    -0.336 OA
ENDROOT
BRANCH  17  20
ATOM     20  C   UNL     1      -4.167  -6.000   0.000  0.00  0.00    +0.058 A 
ATOM     21  C   UNL     1      -4.338  -6.807   0.000  0.00  0.00    +0.008 A 
ATOM     22  C   UNL     1      -5.123  -7.062   0.000  0.00  0.00    +0.034 A 
ATOM     23  C   UNL     1      -5.736  -6.510   0.000  0.00  0.00    +0.132 A 
ATOM     24  N   UNL     1      -5.565  -5.703   0.000  0.00  0.00    -0.229 NA
ATOM     25  C   UNL     1      -4.780  -5.448   0.000  0.00  0.00    +0.103 A 
BRANCH  23  26
ATOM     26  N   UNL     1      -6.521  -6.765   0.000  0.00  0.00    -0.293 N 
ATOM     27  C   UNL     1      -6.692  -7.572   0.000  0.00  0.00    +0.093 C 
ATOM     28  C   UNL     1      -7.477  -7.827   0.000  0.00  0.00    +0.031 C 
ATOM     29  C   UNL     1      -8.090  -7.275   0.000  0.00  0.00    +0.083 C 
ATOM     30  C   UNL     1      -7.919  -6.468   0.000  0.00  0.00    +0.031 C 
ATOM     31  C   UNL     1      -7.134  -6.213   0.000  0.00  0.00    +0.093 C 
BRANCH  29  32
ATOM     32  C   UNL     1      -8.875  -7.530   0.000  0.00  0.00    +0.260 C 
ATOM     33  N   UNL     1      -9.046  -8.337   0.000  0.00  0.00    -0.088 NA
ATOM     34  O   UNL     1      -9.488  -6.978   0.000  0.00  0.00    -0.272 OA
ENDBRANCH  29  32
ENDBRANCH  23  26
ENDBRANCH  17  20
BRANCH  15  14
ATOM     10  N   UNL     1      -0.596  -5.516   0.000  0.00  0.00    -0.263 NA
ATOM     11  C   UNL     1       0.072  -6.000   0.000  0.00  0.00    +0.073 C 
ATOM     12  C   UNL     1      -0.183  -6.785   0.000  0.00  0.00    +0.019 C 
ATOM     13  C   UNL     1      -1.008  -6.785   0.000  0.00  0.00    +0.027 C 
ATOM     14  C   UNL     1      -1.263  -6.000   0.000  0.00  0.00    +0.138 C 
BRANCH  10   9
ATOM      9  C   UNL     1      -0.596  -4.691   0.000  0.00  0.00    +0.099 C 
BRANCH   9   8
ATOM      5  C   UNL     1       1.548  -3.453   0.000  0.00  0.00    +0.106 A 
ATOM      6  C   UNL     1       1.548  -4.278   0.000  0.00  0.00    +0.018 A 
ATOM      7  C   UNL     1       0.834  -4.691   0.000  0.00  0.00    -0.002 A 
ATOM      8  C   UNL     1       0.119  -4.278   0.000  0.00  0.00    -0.006 A 
ATOM     35  C   UNL     1       0.119  -3.453   0.000  0.00  0.00    -0.002 A 
ATOM     36  C   UNL     1       0.834  -3.041   0.000  0.00  0.00    +0.018 A 
BRANCH   5   2
ATOM      1  C   UNL     1       2.977  -2.628   0.000  0.00  0.00    +0.182 C 
ATOM      2  S   UNL     1       2.262  -3.041   0.000  0.00  0.00    +0.010 S 
ATOM      3  O   UNL     1       1.850  -2.326   0.000  0.00  0.00    -0.169 OA
ATOM      4  O   UNL     1       2.675  -3.755   0.000  0.00  0.00    -0.169 OA
ENDBRANCH   5   2
ENDBRANCH   9   8
ENDBRANCH  10   9
ENDBRANCH  15  14
TORSDOF 7
