REMARK  Name = 
REMARK  6 active torsions:
REMARK  status: ('A' for Active; 'I' for Inactive)
REMARK    1  A    between atoms: C_5  and  C_6
REMARK    2  A    between atoms: C_6  and  N_7
REMARK    3  A    between atoms: C_11  and  C_12
REMARK    4  A    between atoms: C_14  and  C_17
REMARK    5  A    between atoms: C_21  and  N_23
REMARK    6  A    between atoms: C_26  and  C_29
REMARK                            x       y       z     vdW  Elec       q    Type
REMARK                         _______ _______ _______ _____ _____    ______ ____
ROOT
ATOM     12  C   UNL     1       2.206  -4.803   0.000  0.00  0.00    +0.251 A 
ATOM     13  N   UNL     1       1.538  -5.287   0.000  0.00  0.00    -0.190 NA
ATOM     14  C   UNL     1       0.871  -4.803   0.000  0.00  0.00    +0.203 A 
ATOM     15  N   UNL     1       1.126  -4.018   0.000  0.00  0.00    -0.056 NA
ATOM     16  O   UNL     1       1.951  -4.018   0.000  0.00  0.00    -0.336 OA
ENDROOT
BRANCH  14  17
ATOM     17  C   UNL     1       0.086  -5.057   0.000  0.00  0.00    +0.043 A 
ATOM     18  C   UNL     1      -0.086  -5.864   0.000  0.00  0.00    +0.024 A 
ATOM     19  C   UNL     1      -0.870  -6.119   0.000  0.00  0.00    +0.100 A 
ATOM     20  N   UNL     1      -1.483  -5.567   0.000  0.00  0.00    -0.229 NA
ATOM     21  C   UNL     1      -1.312  -4.760   0.000  0.00  0.00    +0.132 A 
ATOM     22  C   UNL     1      -0.527  -4.505   0.000  0.00  0.00    +0.037 A 
BRANCH  21  23
ATOM     23  N   UNL     1      -1.925  -4.208   0.000  0.00  0.00    -0.293 N 
ATOM     24  C   UNL     1      -2.709  -4.463   0.000  0.00  0.00    +0.093 C 
ATOM     25  C   UNL     1      -3.322  -3.911   0.000  0.00  0.00    +0.031 C 
ATOM     26  C   UNL     1      -3.151  -3.104   0.000  0.00  0.00    +0.083 C 
ATOM     27  C   UNL     1      -2.366  -2.849   0.000  0.00  0.00    +0.031 C 
ATOM     28  C   UNL     1      -1.753  -3.401   0.000  0.00  0.00    +0.093 C 
BRANCH  26  29
ATOM     29  C   UNL     1      -3.764  -2.552   0.000  0.00  0.00    +0.260 C 
ATOM     30  N   UNL     1      -4.549  -2.807   0.000  0.00  0.00    -0.088 NA
ATOM     31  O   UNL     1      -3.592  -1.745   0.000  0.00  0.00    -0.272 OA
ENDBRANCH  26  29
ENDBRANCH  21  23
ENDBRANCH  14  17
BRANCH  12  11
ATOM      7  N   UNL     1       3.658  -4.572   0.000  0.00  0.00    -0.263 NA
ATOM      8  C   UNL     1       4.325  -5.057   0.000  0.00  0.00    +0.073 C 
ATOM      9  C   UNL     1       4.070  -5.842   0.000  0.00  0.00    +0.019 C 
ATOM     10  C   UNL     1       3.245  -5.842   0.000  0.00  0.00    +0.027 C 
ATOM     11  C   UNL     1       2.990  -5.057   0.000  0.00  0.00    +0.138 C 
BRANCH   7   6
ATOM      6  C   UNL     1       3.658  -3.748   0.000  0.00  0.00    +0.099 C 
BRANCH   6   5
ATOM      1  C   UNL     1       6.516  -2.098   0.000  0.00  0.00    +0.031 C 
ATOM      2  C   UNL     1       5.801  -2.510   0.000  0.00  0.00    -0.022 A 
ATOM      3  C   UNL     1       5.801  -3.335   0.000  0.00  0.00    -0.005 A 
ATOM      4  C   UNL     1       5.087  -3.748   0.000  0.00  0.00    -0.003 A 
ATOM      5  C   UNL     1       4.372  -3.335   0.000  0.00  0.00    -0.006 A 
ATOM     32  C   UNL     1       4.372  -2.510   0.000  0.00  0.00    -0.003 A 
ATOM     33  C   UNL     1       5.087  -2.098   0.000  0.00  0.00    -0.005 A 
ENDBRANCH   6   5
ENDBRANCH   7   6
ENDBRANCH  12  11
TORSDOF 6
