REMARK  Name = 
REMARK  8 active torsions:
REMARK  status: ('A' for Active; 'I' for Inactive)
REMARK    1  A    between atoms: N_2  and  C_3
REMARK    2  A    between atoms: N_2  and  C_28
REMARK    3  A    between atoms: C_3  and  C_4
REMARK    4  A    between atoms: C_6  and  C_7
REMARK    5  A    between atoms: C_7  and  C_8
REMARK    6  A    between atoms: C_13  and  C_14
REMARK    7  A    between atoms: C_14  and  C_15
REMARK    8  A    between atoms: C_28  and  C_29
REMARK                            x       y       z     vdW  Elec       q    Type
REMARK                         _______ _______ _______ _____ _____    ______ ____
ROOT
ATOM      8  C   UNL     1       4.469  -4.387   0.000  0.00  0.00    +0.024 C 
ATOM      9  C   UNL     1       4.805  -3.634   0.000  0.00  0.00    +0.089 C 
ATOM     10  N   UNL     1       5.625  -3.547   0.000  0.00  0.00    -0.218 NA
ATOM     11  C   UNL     1       6.110  -4.215   0.000  0.00  0.00    +0.089 C 
ATOM     12  C   UNL     1       5.774  -4.969   0.000  0.00  0.00    +0.019 C 
ATOM     13  C   UNL     1       4.954  -5.055   0.000  0.00  0.00    +0.012 C 
ENDROOT
BRANCH   8   7
ATOM      7  C   UNL     1       3.649  -4.474   0.000  0.00  0.00    +0.051 C 
BRANCH   7   6
ATOM      4  C   UNL     1       2.751  -2.537   0.000  0.00  0.00    +0.170 A 
ATOM      5  C   UNL     1       3.419  -3.022   0.000  0.00  0.00    +0.055 A 
ATOM      6  C   UNL     1       3.164  -3.806   0.000  0.00  0.00    +0.100 A 
ATOM     26  N   UNL     1       2.339  -3.806   0.000  0.00  0.00    -0.082 NA
ATOM     27  O   UNL     1       2.084  -3.022   0.000  0.00  0.00    -0.357 OA
BRANCH   4   3
ATOM      3  C   UNL     1       2.751  -1.712   0.000  0.00  0.00    +0.141 C 
BRANCH   3   2
ATOM      1  C   UNL     1       4.180  -1.712   0.000  0.00  0.00    +0.090 C 
ATOM      2  N   UNL     1       3.466  -1.299   0.000  0.00  0.00    -0.261 NA
BRANCH   2  28
ATOM     28  C   UNL     1       3.466  -0.474   0.000  0.00  0.00    +0.100 C 
BRANCH  28  29
ATOM     29  C   UNL     1       4.180  -0.062   0.000  0.00  0.00    -0.006 A 
ATOM     30  C   UNL     1       4.180   0.763   0.000  0.00  0.00    -0.003 A 
ATOM     31  C   UNL     1       4.895   1.176   0.000  0.00  0.00    -0.000 A 
ATOM     32  C   UNL     1       5.609   0.763   0.000  0.00  0.00    -0.000 A 
ATOM     33  C   UNL     1       5.609  -0.062   0.000  0.00  0.00    -0.000 A 
ATOM     34  C   UNL     1       4.895  -0.474   0.000  0.00  0.00    -0.003 A 
ENDBRANCH  28  29
ENDBRANCH   2  28
ENDBRANCH   3   2
ENDBRANCH   4   3
ENDBRANCH   7   6
ENDBRANCH   8   7
BRANCH  13  14
ATOM     14  C   UNL     1       4.618  -5.809   0.000  0.00  0.00    +0.085 C 
BRANCH  14  15
ATOM     15  C   UNL     1       5.103  -6.476   0.000  0.00  0.00    +0.226 C 
ATOM     16  O   UNL     1       5.924  -6.390   0.000  0.00  0.00    -0.275 OA
ATOM     17  N   UNL     1       4.768  -7.230   0.000  0.00  0.00    -0.276 N 
ATOM     18  C   UNL     1       5.253  -7.897   0.000  0.00  0.00    +0.115 C 
ATOM     19  C   UNL     1       4.917  -8.651   0.000  0.00  0.00    +0.115 C 
ATOM     20  N   UNL     1       4.097  -8.737   0.000  0.00  0.00    -0.276 N 
ATOM     21  C   UNL     1       3.612  -8.069   0.000  0.00  0.00    +0.115 C 
ATOM     22  C   UNL     1       3.947  -7.316   0.000  0.00  0.00    +0.115 C 
ATOM     23  C   UNL     1       3.761  -9.491   0.000  0.00  0.00    +0.226 C 
ATOM     24  C   UNL     1       2.941  -9.577   0.000  0.00  0.00    +0.095 C 
ATOM     25  O   UNL     1       4.246 -10.158   0.000  0.00  0.00    -0.275 OA
ENDBRANCH  14  15
ENDBRANCH  13  14
TORSDOF 8
