REMARK  Name = 
REMARK  6 active torsions:
REMARK  status: ('A' for Active; 'I' for Inactive)
REMARK    1  A    between atoms: C_5  and  C_6
REMARK    2  A    between atoms: C_6  and  N_7
REMARK    3  A    between atoms: C_10  and  C_12
REMARK    4  A    between atoms: C_15  and  C_16
REMARK    5  A    between atoms: C_16  and  O_17
REMARK    6  A    between atoms: O_17  and  C_18
REMARK                            x       y       z     vdW  Elec       q    Type
REMARK                         _______ _______ _______ _____ _____    ______ ____
ROOT
ATOM     12  C   UNL     1       3.914 -11.068   0.000  0.00  0.00    +0.227 A 
ATOM     13  N   UNL     1       4.466 -11.681   0.000  0.00  0.00    -0.112 NA
ATOM     14  N   UNL     1       4.054 -12.396   0.000  0.00  0.00    -0.108 NA
ATOM     15  C   UNL     1       3.247 -12.224   0.000  0.00  0.00    +0.270 A 
ATOM     25  O   UNL     1       3.161 -11.404   0.000  0.00  0.00    -0.420 OA
ENDROOT
BRANCH  12  10
ATOM      7  N   UNL     1       3.946  -8.934   0.000  0.00  0.00    -0.266 NA
ATOM      8  C   UNL     1       4.753  -9.105   0.000  0.00  0.00    +0.073 C 
ATOM      9  C   UNL     1       4.840  -9.926   0.000  0.00  0.00    +0.028 C 
ATOM     10  C   UNL     1       4.086 -10.261   0.000  0.00  0.00    +0.096 C 
ATOM     11  C   UNL     1       3.534  -9.648   0.000  0.00  0.00    +0.082 C 
BRANCH   7   6
ATOM      6  C   UNL     1       3.611  -8.180   0.000  0.00  0.00    +0.138 C 
BRANCH   6   5
ATOM      1  C   UNL     1       4.508  -5.418   0.000  0.00  0.00    +0.072 C 
ATOM      2  C   UNL     1       4.508  -6.243   0.000  0.00  0.00    +0.123 A 
ATOM      3  C   UNL     1       5.176  -6.728   0.000  0.00  0.00    +0.036 A 
ATOM      4  C   UNL     1       4.921  -7.513   0.000  0.00  0.00    +0.037 A 
ATOM      5  C   UNL     1       4.096  -7.513   0.000  0.00  0.00    +0.139 A 
ATOM     26  O   UNL     1       3.841  -6.728   0.000  0.00  0.00    -0.461 OA
ENDBRANCH   6   5
ENDBRANCH   7   6
ENDBRANCH  12  10
BRANCH  15  16
ATOM     16  C   UNL     1       2.634 -12.776   0.000  0.00  0.00    +0.291 C 
BRANCH  16  17
ATOM     17  O   UNL     1       2.805 -13.583   0.000  0.00  0.00    -0.465 OA
BRANCH  17  18
ATOM     18  C   UNL     1       2.192 -14.136   0.000  0.00  0.00    +0.139 A 
ATOM     19  C   UNL     1       2.364 -14.942   0.000  0.00  0.00    +0.039 A 
ATOM     20  C   UNL     1       1.751 -15.495   0.000  0.00  0.00    +0.033 A 
ATOM     21  C   UNL     1       0.966 -15.239   0.000  0.00  0.00    +0.140 A 
ATOM     22  F   UNL     1       0.353 -15.791   0.000  0.00  0.00    -0.204 F 
ATOM     23  C   UNL     1       0.795 -14.432   0.000  0.00  0.00    +0.033 A 
ATOM     24  C   UNL     1       1.408 -13.880   0.000  0.00  0.00    +0.039 A 
ENDBRANCH  17  18
ENDBRANCH  16  17
ENDBRANCH  15  16
TORSDOF 6
