REMARK  Name = 
REMARK  7 active torsions:
REMARK  status: ('A' for Active; 'I' for Inactive)
REMARK    1  A    between atoms: O_2  and  C_3
REMARK    2  A    between atoms: C_6  and  C_9
REMARK    3  A    between atoms: C_11  and  C_12
REMARK    4  A    between atoms: C_12  and  C_13
REMARK    5  A    between atoms: C_18  and  C_19
REMARK    6  A    between atoms: C_19  and  C_20
REMARK    7  A    between atoms: N_22  and  C_23
REMARK                            x       y       z     vdW  Elec       q    Type
REMARK                         _______ _______ _______ _____ _____    ______ ____
ROOT
ATOM     12  C   UNL     1       0.290  -3.236   0.000  0.00  0.00    +0.051 C 
ENDROOT
BRANCH  12  13
ATOM     13  C   UNL     1       1.110  -3.150   0.000  0.00  0.00    +0.024 C 
ATOM     14  C   UNL     1       1.446  -2.396   0.000  0.00  0.00    +0.089 C 
ATOM     15  N   UNL     1       2.266  -2.310   0.000  0.00  0.00    -0.218 NA
ATOM     16  C   UNL     1       2.751  -2.977   0.000  0.00  0.00    +0.089 C 
ATOM     17  C   UNL     1       2.416  -3.731   0.000  0.00  0.00    +0.019 C 
ATOM     18  C   UNL     1       1.595  -3.817   0.000  0.00  0.00    +0.012 C 
BRANCH  18  19
ATOM     19  C   UNL     1       1.260  -4.571   0.000  0.00  0.00    +0.087 C 
BRANCH  19  20
ATOM     20  C   UNL     1       1.744  -5.238   0.000  0.00  0.00    +0.241 C 
ATOM     21  O   UNL     1       2.565  -5.152   0.000  0.00  0.00    -0.273 OA
ATOM     22  N   UNL     1       1.409  -5.992   0.000  0.00  0.00    -0.209 NA
BRANCH  22  23
ATOM     23  C   UNL     1       1.894  -6.660   0.000  0.00  0.00    +0.079 C 
ATOM     24  C   UNL     1       2.379  -7.327   0.000  0.00  0.00    +0.022 C 
ATOM     25  C   UNL     1       1.226  -7.144   0.000  0.00  0.00    +0.022 C 
ATOM     26  C   UNL     1       2.561  -6.175   0.000  0.00  0.00    +0.022 C 
ENDBRANCH  22  23
ENDBRANCH  19  20
ENDBRANCH  18  19
ENDBRANCH  12  13
BRANCH  12  11
ATOM      9  C   UNL     1      -0.608  -1.299   0.000  0.00  0.00    +0.177 A 
ATOM     10  C   UNL     1       0.060  -1.784   0.000  0.00  0.00    +0.058 A 
ATOM     11  C   UNL     1      -0.195  -2.569   0.000  0.00  0.00    +0.101 A 
ATOM     27  N   UNL     1      -1.020  -2.569   0.000  0.00  0.00    -0.081 NA
ATOM     28  O   UNL     1      -1.275  -1.784   0.000  0.00  0.00    -0.354 OA
BRANCH   9   6
ATOM      3  C   UNL     1      -0.608   1.176   0.000  0.00  0.00    +0.139 A 
ATOM      4  C   UNL     1       0.107   0.763   0.000  0.00  0.00    +0.037 A 
ATOM      5  C   UNL     1       0.107  -0.062   0.000  0.00  0.00    +0.006 A 
ATOM      6  C   UNL     1      -0.608  -0.474   0.000  0.00  0.00    +0.037 A 
ATOM      7  C   UNL     1      -1.322  -0.062   0.000  0.00  0.00    +0.006 A 
ATOM      8  C   UNL     1      -1.322   0.763   0.000  0.00  0.00    +0.037 A 
BRANCH   3   2
ATOM      1  C   UNL     1      -1.322   2.413   0.000  0.00  0.00    +0.252 C 
ATOM      2  O   UNL     1      -0.608   2.001   0.000  0.00  0.00    -0.471 OA
ENDBRANCH   3   2
ENDBRANCH   9   6
ENDBRANCH  12  11
TORSDOF 7
