REMARK  Name = 
REMARK  6 active torsions:
REMARK  status: ('A' for Active; 'I' for Inactive)
REMARK    1  A    between atoms: C_2  and  C_4
REMARK    2  A    between atoms: C_10  and  C_12
REMARK    3  A    between atoms: C_19  and  C_20
REMARK    4  A    between atoms: C_20  and  N_21
REMARK    5  A    between atoms: C_23  and  C_26
REMARK    6  A    between atoms: C_29  and  C_32
REMARK                            x       y       z     vdW  Elec       q    Type
REMARK                         _______ _______ _______ _____ _____    ______ ____
ROOT
ATOM     12  C   UNL     1       1.661  -1.343   0.000  0.00  0.00    +0.093 C 
ATOM     13  C   UNL     1       1.814  -2.106   0.000  0.00  0.00    +0.081 C 
ATOM     14  N   UNL     1       1.065  -1.759   0.000  0.00  0.00    -0.272 NA
ATOM     15  C   UNL     1       1.205  -0.720   0.000  0.00  0.00    +0.072 C 
ATOM     16  C   UNL     1       0.961  -0.114   0.000  0.00  0.00    +0.018 C 
ATOM     17  C   UNL     1       0.923  -1.010   0.000  0.00  0.00    +0.013 C 
ATOM     18  C   UNL     1       0.119  -1.362   0.000  0.00  0.00    +0.019 C 
ATOM     19  C   UNL     1       0.226  -2.118   0.000  0.00  0.00    +0.082 C 
ENDROOT
BRANCH  12  10
ATOM      4  C   UNL     1       1.939   1.619   0.000  0.00  0.00    +0.083 C 
ATOM      5  C   UNL     1       2.707   1.317   0.000  0.00  0.00    +0.031 C 
ATOM      6  C   UNL     1       2.829   0.501   0.000  0.00  0.00    +0.094 C 
ATOM      7  N   UNL     1       2.184  -0.013   0.000  0.00  0.00    -0.279 N 
ATOM      8  C   UNL     1       1.416   0.289   0.000  0.00  0.00    +0.094 C 
ATOM      9  C   UNL     1       1.294   1.105   0.000  0.00  0.00    +0.031 C 
ATOM     10  C   UNL     1       2.307  -0.828   0.000  0.00  0.00    +0.227 C 
ATOM     11  O   UNL     1       3.075  -1.130   0.000  0.00  0.00    -0.275 OA
BRANCH   4   2
ATOM      1  N   UNL     1       1.049   2.737   0.000  0.00  0.00    -0.088 NA
ATOM      2  C   UNL     1       1.816   2.435   0.000  0.00  0.00    +0.260 C 
ATOM      3  O   UNL     1       2.462   2.949   0.000  0.00  0.00    -0.272 OA
ENDBRANCH   4   2
ENDBRANCH  12  10
BRANCH  19  20
ATOM     20  C   UNL     1      -0.179  -2.836   0.000  0.00  0.00    +0.145 C 
BRANCH  20  21
ATOM     21  N   UNL     1      -1.004  -2.845   0.000  0.00  0.00    -0.229 N 
ATOM     22  C   UNL     1      -1.481  -3.518   0.000  0.00  0.00    +0.118 A 
ATOM     23  C   UNL     1      -2.269  -3.271   0.000  0.00  0.00    +0.123 A 
ATOM     24  N   UNL     1      -2.277  -2.446   0.000  0.00  0.00    -0.129 NA
ATOM     25  N   UNL     1      -1.496  -2.183   0.000  0.00  0.00    -0.064 NA
BRANCH  23  26
ATOM     26  C   UNL     1      -2.931  -3.763   0.000  0.00  0.00    +0.021 A 
ATOM     27  C   UNL     1      -2.836  -4.583   0.000  0.00  0.00    +0.002 A 
ATOM     28  C   UNL     1      -3.498  -5.075   0.000  0.00  0.00    +0.000 A 
ATOM     29  C   UNL     1      -4.255  -4.747   0.000  0.00  0.00    +0.000 A 
ATOM     30  C   UNL     1      -4.350  -3.928   0.000  0.00  0.00    +0.000 A 
ATOM     31  C   UNL     1      -3.688  -3.436   0.000  0.00  0.00    +0.002 A 
BRANCH  29  32
ATOM     32  C   UNL     1      -4.917  -5.239   0.000  0.00  0.00    +0.000 A 
ATOM     33  C   UNL     1      -4.822  -6.059   0.000  0.00  0.00    +0.000 A 
ATOM     34  C   UNL     1      -5.485  -6.551   0.000  0.00  0.00    +0.000 A 
ATOM     35  C   UNL     1      -6.242  -6.224   0.000  0.00  0.00    +0.000 A 
ATOM     36  C   UNL     1      -6.337  -5.404   0.000  0.00  0.00    +0.000 A 
ATOM     37  C   UNL     1      -5.675  -4.912   0.000  0.00  0.00    +0.000 A 
ENDBRANCH  29  32
ENDBRANCH  23  26
ENDBRANCH  20  21
ENDBRANCH  19  20
TORSDOF 6
