REMARK  Name = 
REMARK  6 active torsions:
REMARK  status: ('A' for Active; 'I' for Inactive)
REMARK    1  A    between atoms: N_6  and  C_25
REMARK    2  A    between atoms: C_12  and  C_13
REMARK    3  A    between atoms: C_13  and  C_14
REMARK    4  A    between atoms: C_14  and  C_15
REMARK    5  A    between atoms: N_17  and  C_18
REMARK    6  A    between atoms: C_18  and  C_19
REMARK                            x       y       z     vdW  Elec       q    Type
REMARK                         _______ _______ _______ _____ _____    ______ ____
ROOT
ATOM      1  C   UNL     1       0.691  -1.844   0.000  0.00  0.00    +0.090 C 
ATOM      2  N   UNL     1       0.568  -1.028   0.000  0.00  0.00    -0.271 NA
ATOM      3  C   UNL     1      -0.221  -0.785   0.000  0.00  0.00    +0.083 C 
ATOM      4  C   UNL     1      -0.858  -1.309   0.000  0.00  0.00    +0.035 C 
ATOM      5  C   UNL     1      -1.553  -0.865   0.000  0.00  0.00    +0.074 C 
ATOM      6  N   UNL     1      -1.346  -0.066   0.000  0.00  0.00    -0.267 NA
ATOM      7  C   UNL     1      -0.522  -0.017   0.000  0.00  0.00    +0.151 C 
ATOM      8  C   UNL     1      -0.110   0.698   0.000  0.00  0.00    +0.257 C 
ATOM      9  O   UNL     1      -0.574   1.379   0.000  0.00  0.00    -0.272 OA
ATOM     10  N   UNL     1       0.706   0.821   0.000  0.00  0.00    -0.203 NA
ATOM     11  C   UNL     1       1.311   0.259   0.000  0.00  0.00    +0.131 C 
ATOM     12  C   UNL     1       1.249  -0.563   0.000  0.00  0.00    +0.080 C 
ENDROOT
BRANCH   6  25
ATOM     25  C   UNL     1      -1.870   0.571   0.000  0.00  0.00    +0.058 C 
ATOM     26  C   UNL     1      -2.683   0.436   0.000  0.00  0.00    +0.016 C 
ATOM     27  C   UNL     1      -3.208   1.073   0.000  0.00  0.00    +0.001 C 
ATOM     28  C   UNL     1      -2.918   1.845   0.000  0.00  0.00    +0.000 C 
ATOM     29  C   UNL     1      -2.104   1.981   0.000  0.00  0.00    +0.001 C 
ATOM     30  C   UNL     1      -1.580   1.343   0.000  0.00  0.00    +0.016 C 
ENDBRANCH   6  25
BRANCH  12  13
ATOM     13  C   UNL     1       1.964  -0.976   0.000  0.00  0.00    +0.027 C 
BRANCH  13  14
ATOM     14  C   UNL     1       2.678  -0.563   0.000  0.00  0.00    +0.088 C 
BRANCH  14  15
ATOM     15  C   UNL     1       3.393  -0.976   0.000  0.00  0.00    +0.242 C 
ATOM     16  O   UNL     1       3.393  -1.801   0.000  0.00  0.00    -0.273 OA
ATOM     17  N   UNL     1       4.107  -0.563   0.000  0.00  0.00    -0.200 NA
BRANCH  17  18
ATOM     18  C   UNL     1       4.822  -0.976   0.000  0.00  0.00    +0.143 C 
BRANCH  18  19
ATOM     19  C   UNL     1       5.536  -0.563   0.000  0.00  0.00    +0.019 A 
ATOM     20  C   UNL     1       5.536   0.262   0.000  0.00  0.00    +0.001 A 
ATOM     21  C   UNL     1       6.250   0.674   0.000  0.00  0.00    +0.020 A 
ATOM     22  C   UNL     1       6.965   0.262   0.000  0.00  0.00    +0.099 A 
ATOM     23  N   UNL     1       6.965  -0.563   0.000  0.00  0.00    -0.243 NA
ATOM     24  C   UNL     1       6.250  -0.976   0.000  0.00  0.00    +0.096 A 
ENDBRANCH  18  19
ENDBRANCH  17  18
ENDBRANCH  14  15
ENDBRANCH  13  14
ENDBRANCH  12  13
TORSDOF 6
