REMARK  Name = 
REMARK  5 active torsions:
REMARK  status: ('A' for Active; 'I' for Inactive)
REMARK    1  A    between atoms: C_2  and  N_3
REMARK    2  A    between atoms: C_2  and  C_25
REMARK    3  A    between atoms: C_4  and  C_6
REMARK    4  A    between atoms: C_8  and  N_9
REMARK    5  A    between atoms: N_12  and  C_13
REMARK                            x       y       z     vdW  Elec       q    Type
REMARK                         _______ _______ _______ _____ _____    ______ ____
ROOT
ATOM      6  C   UNL     1       0.715  -5.362   0.000  0.00  0.00    +0.033 C 
ATOM      7  C   UNL     1       0.715  -6.188   0.000  0.00  0.00    -0.002 C 
ATOM      8  C   UNL     1       0.000  -6.600   0.000  0.00  0.00    +0.152 C 
ATOM     20  C   UNL     1      -0.715  -6.188   0.000  0.00  0.00    +0.206 C 
ATOM     21  O   UNL     1      -1.429  -6.600   0.000  0.00  0.00    -0.218 OA
ATOM     22  C   UNL     1      -0.715  -5.362   0.000  0.00  0.00    +0.189 C 
ATOM     23  O   UNL     1      -1.429  -4.950   0.000  0.00  0.00    -0.220 OA
ATOM     24  C   UNL     1       0.000  -4.950   0.000  0.00  0.00    +0.066 C 
ENDROOT
BRANCH   8   9
ATOM      9  N   UNL     1       0.000  -7.425   0.000  0.00  0.00    -0.181 NA
ATOM     10  C   UNL     1      -0.715  -7.838   0.000  0.00  0.00    +0.344 C 
ATOM     11  O   UNL     1      -1.429  -7.425   0.000  0.00  0.00    -0.249 OA
ATOM     12  N   UNL     1      -0.715  -8.662   0.000  0.00  0.00    -0.160 NA
BRANCH  12  13
ATOM     13  C   UNL     1      -1.429  -9.075   0.000  0.00  0.00    +0.081 A 
ATOM     14  C   UNL     1      -1.429  -9.900   0.000  0.00  0.00    +0.017 A 
ATOM     15  C   UNL     1      -2.143 -10.312   0.000  0.00  0.00    +0.001 A 
ATOM     16  C   UNL     1      -2.858  -9.900   0.000  0.00  0.00    +0.001 A 
ATOM     17  C   UNL     1      -2.858  -9.075   0.000  0.00  0.00    +0.008 A 
ATOM     18  C   UNL     1      -2.143  -8.662   0.000  0.00  0.00    +0.050 A 
ATOM     19 BR   UNL     1      -2.143  -7.838   0.000  0.00  0.00    -0.048 Br
ENDBRANCH  12  13
ENDBRANCH   8   9
BRANCH   6   4
ATOM      3  N   UNL     1       2.143  -5.362   0.000  0.00  0.00    -0.194 NA
ATOM      4  C   UNL     1       1.429  -4.950   0.000  0.00  0.00    +0.261 C 
ATOM      5  O   UNL     1       1.429  -4.125   0.000  0.00  0.00    -0.269 OA
BRANCH   3   2
ATOM      1  C   UNL     1       2.858  -4.125   0.000  0.00  0.00    +0.033 C 
ATOM      2  C   UNL     1       2.858  -4.950   0.000  0.00  0.00    +0.175 C 
BRANCH   2  25
ATOM     25  C   UNL     1       3.572  -5.362   0.000  0.00  0.00    +0.281 C 
ATOM     26  N   UNL     1       4.287  -4.950   0.000  0.00  0.00    -0.086 NA
ATOM     27  O   UNL     1       3.572  -6.188   0.000  0.00  0.00    -0.270 OA
ENDBRANCH   2  25
ENDBRANCH   3   2
ENDBRANCH   6   4
TORSDOF 5
