REMARK  Name = 
REMARK  9 active torsions:
REMARK  status: ('A' for Active; 'I' for Inactive)
REMARK    1  A    between atoms: O_2  and  C_3
REMARK    2  A    between atoms: C_3  and  C_4
REMARK    3  A    between atoms: N_6  and  C_7
REMARK    4  A    between atoms: C_7  and  C_8
REMARK    5  A    between atoms: C_10  and  C_11
REMARK    6  A    between atoms: C_15  and  N_16
REMARK    7  A    between atoms: N_16  and  C_18
REMARK    8  A    between atoms: C_18  and  C_19
REMARK    9  A    between atoms: C_19  and  C_20
REMARK                            x       y       z     vdW  Elec       q    Type
REMARK                         _______ _______ _______ _____ _____    ______ ____
ROOT
ATOM      8  C   UNL     1       3.553  -5.328   0.000  0.00  0.00    +0.154 C 
ATOM      9  O   UNL     1       3.640  -4.508   0.000  0.00  0.00    -0.350 OA
ATOM     10  C   UNL     1       4.447  -4.336   0.000  0.00  0.00    +0.180 C 
ATOM     13  C   UNL     1       4.859  -5.051   0.000  0.00  0.00    +0.198 C 
ATOM     14  O   UNL     1       5.680  -5.137   0.000  0.00  0.00    -0.219 OA
ATOM     15  C   UNL     1       4.307  -5.664   0.000  0.00  0.00    +0.120 C 
ENDROOT
BRANCH  10  11
ATOM     11  C   UNL     1       4.782  -3.582   0.000  0.00  0.00    +0.214 C 
ATOM     12  O   UNL     1       5.603  -3.496   0.000  0.00  0.00    -0.218 OA
ENDBRANCH  10  11
BRANCH  15  16
ATOM     16  N   UNL     1       4.479  -6.471   0.000  0.00  0.00    -0.268 NA
ATOM     17  C   UNL     1       5.263  -6.726   0.000  0.00  0.00    +0.090 C 
BRANCH  16  18
ATOM     18  C   UNL     1       3.865  -7.023   0.000  0.00  0.00    +0.077 C 
BRANCH  18  19
ATOM     19  C   UNL     1       4.037  -7.830   0.000  0.00  0.00    +0.044 C 
BRANCH  19  20
ATOM     20  C   UNL     1       4.822  -8.085   0.000  0.00  0.00    -0.021 A 
ATOM     21  C   UNL     1       5.435  -7.532   0.000  0.00  0.00    -0.004 A 
ATOM     22  C   UNL     1       6.219  -7.787   0.000  0.00  0.00    -0.000 A 
ATOM     23  C   UNL     1       6.391  -8.594   0.000  0.00  0.00    -0.000 A 
ATOM     24  C   UNL     1       5.778  -9.146   0.000  0.00  0.00    -0.000 A 
ATOM     25  C   UNL     1       4.993  -8.892   0.000  0.00  0.00    -0.004 A 
ENDBRANCH  19  20
ENDBRANCH  18  19
ENDBRANCH  16  18
ENDBRANCH  15  16
BRANCH   8   7
ATOM      7  C   UNL     1       2.839  -5.740   0.000  0.00  0.00    +0.146 C 
BRANCH   7   6
ATOM      4  C   UNL     1       1.410  -5.740   0.000  0.00  0.00    +0.272 C 
ATOM      5  O   UNL     1       1.410  -6.566   0.000  0.00  0.00    -0.271 OA
ATOM      6  N   UNL     1       2.124  -5.328   0.000  0.00  0.00    -0.201 NA
BRANCH   4   3
ATOM      3  C   UNL     1       0.696  -5.328   0.000  0.00  0.00    +0.229 C 
BRANCH   3   2
ATOM      1  C   UNL     1      -0.733  -5.328   0.000  0.00  0.00    +0.175 C 
ATOM      2  O   UNL     1      -0.019  -5.740   0.000  0.00  0.00    -0.342 OA
ENDBRANCH   3   2
ENDBRANCH   4   3
ENDBRANCH   7   6
ENDBRANCH   8   7
TORSDOF 9
