REMARK  Name = 
REMARK  6 active torsions:
REMARK  status: ('A' for Active; 'I' for Inactive)
REMARK    1  A    between atoms: N_3  and  C_4
REMARK    2  A    between atoms: C_8  and  N_12
REMARK    3  A    between atoms: C_16  and  O_17
REMARK    4  A    between atoms: O_17  and  C_18
REMARK    5  A    between atoms: C_21  and  N_24
REMARK    6  A    between atoms: N_29  and  C_30
REMARK                            x       y       z     vdW  Elec       q    Type
REMARK                         _______ _______ _______ _____ _____    ______ ____
ROOT
ATOM      4  C   UNL     1       0.000  -4.125   0.000  0.00  0.00    +0.156 C 
ATOM      5  C   UNL     1      -0.086  -4.946   0.000  0.00  0.00    +0.166 C 
ATOM      6  O   UNL     1      -0.893  -5.117   0.000  0.00  0.00    -0.350 OA
ATOM      7  C   UNL     1      -1.306  -4.402   0.000  0.00  0.00    +0.169 C 
ATOM      8  C   UNL     1      -2.059  -4.067   0.000  0.00  0.00    +0.170 C 
ATOM      9  C   UNL     1      -1.973  -3.247   0.000  0.00  0.00    +0.169 C 
ATOM     10  O   UNL     1      -1.166  -3.075   0.000  0.00  0.00    -0.350 OA
ATOM     11  C   UNL     1      -0.754  -3.789   0.000  0.00  0.00    +0.167 C 
ENDROOT
BRANCH   8  12
ATOM     12  N   UNL     1      -2.774  -4.479   0.000  0.00  0.00    -0.180 N 
ATOM     13  N   UNL     1      -2.860  -5.300   0.000  0.00  0.00    -0.040 NA
ATOM     14  N   UNL     1      -3.667  -5.471   0.000  0.00  0.00    -0.020 NA
ATOM     15  N   UNL     1      -4.080  -4.757   0.000  0.00  0.00    -0.071 NA
ATOM     16  C   UNL     1      -3.527  -4.144   0.000  0.00  0.00    +0.343 A 
BRANCH  16  17
ATOM     17  O   UNL     1      -3.699  -3.337   0.000  0.00  0.00    -0.421 OA
BRANCH  17  18
ATOM     18  C   UNL     1      -4.484  -3.082   0.000  0.00  0.00    +0.149 A 
ATOM     19  C   UNL     1      -5.097  -3.634   0.000  0.00  0.00    +0.039 A 
ATOM     20  C   UNL     1      -5.881  -3.379   0.000  0.00  0.00    +0.022 A 
ATOM     21  C   UNL     1      -6.053  -2.572   0.000  0.00  0.00    +0.085 A 
ATOM     22  C   UNL     1      -5.440  -2.020   0.000  0.00  0.00    +0.022 A 
ATOM     23  C   UNL     1      -4.655  -2.275   0.000  0.00  0.00    +0.039 A 
BRANCH  21  24
ATOM     24  N   UNL     1      -6.838  -2.317   0.000  0.00  0.00    -0.208 N 
ATOM     25  C   UNL     1      -7.505  -2.802   0.000  0.00  0.00    +0.202 A 
ATOM     26  N   UNL     1      -8.172  -2.317   0.000  0.00  0.00    -0.200 NA
ATOM     27  C   UNL     1      -7.918  -1.533   0.000  0.00  0.00    +0.221 A 
ATOM     28  N   UNL     1      -7.093  -1.533   0.000  0.00  0.00    -0.141 NA
ENDBRANCH  21  24
ENDBRANCH  17  18
ENDBRANCH  16  17
ENDBRANCH   8  12
BRANCH   4   3
ATOM      1  O   UNL     1       0.000  -2.475   0.000  0.00  0.00    -0.249 OA
ATOM      2  C   UNL     1       0.715  -2.888   0.000  0.00  0.00    +0.344 C 
ATOM      3  N   UNL     1       0.715  -3.712   0.000  0.00  0.00    -0.184 NA
ATOM     29  N   UNL     1       1.429  -2.475   0.000  0.00  0.00    -0.161 NA
BRANCH  29  30
ATOM     30  C   UNL     1       1.429  -1.650   0.000  0.00  0.00    +0.075 A 
ATOM     31  C   UNL     1       0.715  -1.238   0.000  0.00  0.00    +0.017 A 
ATOM     32  C   UNL     1       0.715  -0.412   0.000  0.00  0.00    +0.001 A 
ATOM     33  C   UNL     1       1.429   0.000   0.000  0.00  0.00    +0.000 A 
ATOM     34  C   UNL     1       2.143  -0.412   0.000  0.00  0.00    +0.001 A 
ATOM     35  C   UNL     1       2.858   0.000   0.000  0.00  0.00    +0.000 A 
ATOM     36  C   UNL     1       3.572  -0.412   0.000  0.00  0.00    +0.000 A 
ATOM     37  C   UNL     1       3.572  -1.238   0.000  0.00  0.00    +0.000 A 
ATOM     38  C   UNL     1       2.858  -1.650   0.000  0.00  0.00    +0.001 A 
ATOM     39  C   UNL     1       2.143  -1.238   0.000  0.00  0.00    +0.015 A 
ENDBRANCH  29  30
ENDBRANCH   4   3
TORSDOF 6
