REMARK  Name = 
REMARK  7 active torsions:
REMARK  status: ('A' for Active; 'I' for Inactive)
REMARK    1  A    between atoms: O_2  and  C_3
REMARK    2  A    between atoms: C_3  and  C_4
REMARK    3  A    between atoms: C_4  and  N_5
REMARK    4  A    between atoms: C_6  and  C_8
REMARK    5  A    between atoms: C_8  and  C_9
REMARK    6  A    between atoms: C_11  and  C_12
REMARK    7  A    between atoms: C_15  and  C_16
REMARK                            x       y       z     vdW  Elec       q    Type
REMARK                         _______ _______ _______ _____ _____    ______ ____
ROOT
ATOM      9  C   UNL     1       5.716  -4.125   0.000  0.00  0.00    +0.027 C 
ATOM     10  C   UNL     1       6.430  -3.712   0.000  0.00  0.00    +0.005 C 
ATOM     11  C   UNL     1       7.145  -4.125   0.000  0.00  0.00    +0.007 C 
ATOM     15  C   UNL     1       7.145  -4.950   0.000  0.00  0.00    +0.054 C 
ATOM     18  C   UNL     1       6.430  -5.362   0.000  0.00  0.00    -0.032 C 
ATOM     19  C   UNL     1       5.716  -4.950   0.000  0.00  0.00    -0.048 C 
ATOM     20  C   UNL     1       5.001  -5.362   0.000  0.00  0.00    +0.026 C 
ENDROOT
BRANCH  11  12
ATOM     12  C   UNL     1       7.859  -3.712   0.000  0.00  0.00    +0.000 C 
ATOM     13  C   UNL     1       8.574  -4.125   0.000  0.00  0.00    +0.000 C 
ATOM     14  C   UNL     1       7.859  -2.888   0.000  0.00  0.00    +0.000 C 
ENDBRANCH  11  12
BRANCH  15  16
ATOM     16  C   UNL     1       7.859  -5.362   0.000  0.00  0.00    +0.186 C 
ATOM     17  O   UNL     1       8.574  -4.950   0.000  0.00  0.00    -0.220 OA
ENDBRANCH  15  16
BRANCH   9   8
ATOM      8  C   UNL     1       5.001  -3.712   0.000  0.00  0.00    +0.091 C 
BRANCH   8   6
ATOM      5  N   UNL     1       3.572  -3.712   0.000  0.00  0.00    -0.203 NA
ATOM      6  C   UNL     1       4.287  -4.125   0.000  0.00  0.00    +0.242 C 
ATOM      7  O   UNL     1       4.287  -4.950   0.000  0.00  0.00    -0.273 OA
BRANCH   5   4
ATOM      4  C   UNL     1       2.858  -4.125   0.000  0.00  0.00    +0.147 C 
BRANCH   4   3
ATOM      3  C   UNL     1       2.143  -3.712   0.000  0.00  0.00    +0.166 C 
BRANCH   3   2
ATOM      1  C   UNL     1       0.715  -3.712   0.000  0.00  0.00    +0.174 C 
ATOM      2  O   UNL     1       1.429  -4.125   0.000  0.00  0.00    -0.349 OA
ENDBRANCH   3   2
ENDBRANCH   4   3
ENDBRANCH   5   4
ENDBRANCH   8   6
ENDBRANCH   9   8
TORSDOF 7
