REMARK  Name = 
REMARK  8 active torsions:
REMARK  status: ('A' for Active; 'I' for Inactive)
REMARK    1  A    between atoms: N_4  and  C_5
REMARK    2  A    between atoms: C_8  and  C_9
REMARK    3  A    between atoms: C_9  and  N_10
REMARK    4  A    between atoms: N_10  and  C_11
REMARK    5  A    between atoms: C_14  and  C_15
REMARK    6  A    between atoms: C_15  and  N_16
REMARK    7  A    between atoms: N_16  and  S_17
REMARK    8  A    between atoms: S_17  and  C_20
REMARK                            x       y       z     vdW  Elec       q    Type
REMARK                         _______ _______ _______ _____ _____    ______ ____
ROOT
ATOM     11  C   UNL     1       1.429  -3.300   0.000  0.00  0.00    +0.135 C 
ATOM     12  C   UNL     1       2.096  -3.785   0.000  0.00  0.00    +0.162 C 
ATOM     13  O   UNL     1       1.841  -4.569   0.000  0.00  0.00    -0.350 OA
ATOM     14  C   UNL     1       1.016  -4.569   0.000  0.00  0.00    +0.166 C 
ATOM     27  C   UNL     1       0.761  -3.785   0.000  0.00  0.00    +0.199 C 
ATOM     28  O   UNL     1      -0.023  -3.530   0.000  0.00  0.00    -0.219 OA
ENDROOT
BRANCH  11  10
ATOM     10  N   UNL     1       1.429  -2.475   0.000  0.00  0.00    -0.209 NA
BRANCH  10   9
ATOM      9  C   UNL     1       2.143  -2.062   0.000  0.00  0.00    +0.115 C 
BRANCH   9   8
ATOM      5  C   UNL     1       2.143   0.412   0.000  0.00  0.00    +0.073 A 
ATOM      6  C   UNL     1       2.858   0.000   0.000  0.00  0.00    +0.016 A 
ATOM      7  C   UNL     1       2.858  -0.825   0.000  0.00  0.00    -0.002 A 
ATOM      8  C   UNL     1       2.143  -1.238   0.000  0.00  0.00    -0.005 A 
ATOM     29  C   UNL     1       1.429  -0.825   0.000  0.00  0.00    -0.002 A 
ATOM     30  C   UNL     1       1.429   0.000   0.000  0.00  0.00    +0.016 A 
BRANCH   5   4
ATOM      1  C   UNL     1       1.429   2.475   0.000  0.00  0.00    +0.097 C 
ATOM      2  C   UNL     1       1.429   1.650   0.000  0.00  0.00    +0.246 C 
ATOM      3  O   UNL     1       0.715   1.238   0.000  0.00  0.00    -0.273 OA
ATOM      4  N   UNL     1       2.143   1.238   0.000  0.00  0.00    -0.179 NA
ENDBRANCH   5   4
ENDBRANCH   9   8
ENDBRANCH  10   9
ENDBRANCH  11  10
BRANCH  14  15
ATOM     15  C   UNL     1       0.531  -5.237   0.000  0.00  0.00    +0.148 C 
BRANCH  15  16
ATOM     16  N   UNL     1       0.867  -5.991   0.000  0.00  0.00    -0.075 NA
BRANCH  16  17
ATOM     17  S   UNL     1       0.382  -6.658   0.000  0.00  0.00    +0.077 S 
ATOM     18  O   UNL     1      -0.285  -6.173   0.000  0.00  0.00    -0.152 OA
ATOM     19  O   UNL     1       1.050  -7.143   0.000  0.00  0.00    -0.152 OA
BRANCH  17  20
ATOM     20  C   UNL     1      -0.103  -7.325   0.000  0.00  0.00    +0.124 A 
ATOM     21  C   UNL     1       0.233  -8.079   0.000  0.00  0.00    +0.020 A 
ATOM     22  C   UNL     1      -0.252  -8.747   0.000  0.00  0.00    -0.003 A 
ATOM     23  C   UNL     1      -1.073  -8.660   0.000  0.00  0.00    -0.022 A 
ATOM     24  C   UNL     1      -1.558  -9.328   0.000  0.00  0.00    +0.031 C 
ATOM     25  C   UNL     1      -1.408  -7.907   0.000  0.00  0.00    -0.003 A 
ATOM     26  C   UNL     1      -0.923  -7.239   0.000  0.00  0.00    +0.020 A 
ENDBRANCH  17  20
ENDBRANCH  16  17
ENDBRANCH  15  16
ENDBRANCH  14  15
TORSDOF 8
