REMARK  Name = 
REMARK  9 active torsions:
REMARK  status: ('A' for Active; 'I' for Inactive)
REMARK    1  A    between atoms: C_2  and  C_4
REMARK    2  A    between atoms: C_6  and  C_7
REMARK    3  A    between atoms: C_7  and  C_8
REMARK    4  A    between atoms: C_11  and  C_13
REMARK    5  A    between atoms: C_22  and  C_23
REMARK    6  A    between atoms: C_23  and  N_24
REMARK    7  A    between atoms: N_24  and  C_25
REMARK    8  A    between atoms: C_25  and  C_26
REMARK    9  A    between atoms: C_26  and  N_27
REMARK                            x       y       z     vdW  Elec       q    Type
REMARK                         _______ _______ _______ _____ _____    ______ ____
ROOT
ATOM      4  C   UNL     1       3.950  -4.322   0.000  0.00  0.00    +0.006 C 
ATOM      5  C   UNL     1       3.235  -4.734   0.000  0.00  0.00    +0.005 C 
ATOM      6  C   UNL     1       2.521  -4.322   0.000  0.00  0.00    +0.027 C 
ATOM     19  C   UNL     1       2.521  -3.497   0.000  0.00  0.00    -0.048 C 
ATOM     20  C   UNL     1       1.806  -3.084   0.000  0.00  0.00    +0.026 C 
ATOM     21  C   UNL     1       3.235  -3.084   0.000  0.00  0.00    -0.033 C 
ATOM     22  C   UNL     1       3.950  -3.497   0.000  0.00  0.00    +0.039 C 
ENDROOT
BRANCH   4   2
ATOM      1  C   UNL     1       5.379  -4.322   0.000  0.00  0.00    +0.000 C 
ATOM      2  C   UNL     1       4.664  -4.734   0.000  0.00  0.00    +0.000 C 
ATOM      3  C   UNL     1       4.664  -5.559   0.000  0.00  0.00    +0.000 C 
ENDBRANCH   4   2
BRANCH   6   7
ATOM      7  C   UNL     1       1.806  -4.734   0.000  0.00  0.00    +0.091 C 
BRANCH   7   8
ATOM      8  C   UNL     1       1.092  -4.322   0.000  0.00  0.00    +0.227 A 
ATOM      9  N   UNL     1       0.338  -4.657   0.000  0.00  0.00    -0.111 NA
ATOM     10  N   UNL     1      -0.214  -4.044   0.000  0.00  0.00    -0.107 NA
ATOM     11  C   UNL     1       0.199  -3.330   0.000  0.00  0.00    +0.250 A 
ATOM     12  O   UNL     1       1.006  -3.502   0.000  0.00  0.00    -0.420 OA
BRANCH  11  13
ATOM     13  C   UNL     1      -0.137  -2.576   0.000  0.00  0.00    +0.055 A 
ATOM     14  C   UNL     1      -0.957  -2.490   0.000  0.00  0.00    +0.005 A 
ATOM     15  C   UNL     1      -1.293  -1.736   0.000  0.00  0.00    +0.000 A 
ATOM     16  C   UNL     1      -0.808  -1.069   0.000  0.00  0.00    +0.000 A 
ATOM     17  C   UNL     1       0.013  -1.155   0.000  0.00  0.00    +0.000 A 
ATOM     18  C   UNL     1       0.348  -1.909   0.000  0.00  0.00    +0.005 A 
ENDBRANCH  11  13
ENDBRANCH   7   8
ENDBRANCH   6   7
BRANCH  22  23
ATOM     23  C   UNL     1       4.664  -3.084   0.000  0.00  0.00    +0.093 C 
BRANCH  23  24
ATOM     24  N   UNL     1       5.379  -3.497   0.000  0.00  0.00    -0.216 NA
BRANCH  24  25
ATOM     25  C   UNL     1       6.093  -3.084   0.000  0.00  0.00    +0.112 C 
BRANCH  25  26
ATOM     26  C   UNL     1       6.808  -3.497   0.000  0.00  0.00    +0.134 C 
BRANCH  26  27
ATOM     27  N   UNL     1       7.522  -3.084   0.000  0.00  0.00    -0.204 NA
ATOM     28  C   UNL     1       8.237  -3.497   0.000  0.00  0.00    +0.242 C 
ATOM     29  C   UNL     1       8.951  -3.084   0.000  0.00  0.00    +0.096 C 
ATOM     30  O   UNL     1       8.237  -4.322   0.000  0.00  0.00    -0.273 OA
ENDBRANCH  26  27
ENDBRANCH  25  26
ENDBRANCH  24  25
ENDBRANCH  23  24
ENDBRANCH  22  23
TORSDOF 9
