REMARK  Name = 
REMARK  3 active torsions:
REMARK  status: ('A' for Active; 'I' for Inactive)
REMARK    1  A    between atoms: S_2  and  N_4
REMARK    2  A    between atoms: S_2  and  C_18
REMARK    3  A    between atoms: C_7  and  C_9
REMARK                            x       y       z     vdW  Elec       q    Type
REMARK                         _______ _______ _______ _____ _____    ______ ____
ROOT
ATOM      4  N   UNL     1       0.000   1.650   0.000  0.00  0.00    -0.155 NA
ATOM      5  C   UNL     1      -0.667   2.135   0.000  0.00  0.00    +0.096 C 
ATOM      6  C   UNL     1      -0.412   2.920   0.000  0.00  0.00    +0.028 C 
ATOM      7  C   UNL     1       0.412   2.920   0.000  0.00  0.00    +0.078 C 
ATOM      8  C   UNL     1       0.667   2.135   0.000  0.00  0.00    +0.103 C 
ENDROOT
BRANCH   7   9
ATOM      9  C   UNL     1       0.897   3.587   0.000  0.00  0.00    +0.140 A 
ATOM     10  N   UNL     1       1.722   3.587   0.000  0.00  0.00    -0.229 NA
ATOM     11  C   UNL     1       1.977   4.372   0.000  0.00  0.00    +0.100 A 
ATOM     12  C   UNL     1       1.310   4.856   0.000  0.00  0.00    +0.100 A 
ATOM     13  N   UNL     1       0.642   4.372   0.000  0.00  0.00    -0.229 NA
ATOM     14  C   UNL     1       1.396   5.677   0.000  0.00  0.00    +0.021 A 
ATOM     15  C   UNL     1       2.150   6.013   0.000  0.00  0.00    +0.002 A 
ATOM     16  C   UNL     1       2.817   5.528   0.000  0.00  0.00    +0.002 A 
ATOM     17  C   UNL     1       2.731   4.707   0.000  0.00  0.00    +0.021 A 
ENDBRANCH   7   9
BRANCH   4   2
ATOM      1  O   UNL     1      -0.825   0.825   0.000  0.00  0.00    -0.153 OA
ATOM      2  S   UNL     1       0.000   0.825   0.000  0.00  0.00    +0.065 S 
ATOM      3  O   UNL     1       0.825   0.825   0.000  0.00  0.00    -0.153 OA
BRANCH   2  18
ATOM     18  C   UNL     1       0.000   0.000   0.000  0.00  0.00    +0.140 A 
ATOM     19  C   UNL     1      -0.715  -0.412   0.000  0.00  0.00    +0.021 A 
ATOM     20  C   UNL     1      -0.715  -1.238   0.000  0.00  0.00    +0.001 A 
ATOM     21  C   UNL     1       0.000  -1.650   0.000  0.00  0.00    +0.002 A 
ATOM     22  C   UNL     1       0.715  -1.238   0.000  0.00  0.00    +0.019 A 
ATOM     23  C   UNL     1       0.715  -0.412   0.000  0.00  0.00    +0.100 A 
ATOM     24  N   UNL     1       1.429   0.000   0.000  0.00  0.00    -0.242 NA
ATOM     25  C   UNL     1       2.143  -0.412   0.000  0.00  0.00    +0.099 A 
ATOM     26  C   UNL     1       2.143  -1.238   0.000  0.00  0.00    +0.021 A 
ATOM     27  C   UNL     1       1.429  -1.650   0.000  0.00  0.00    +0.003 A 
ENDBRANCH   2  18
ENDBRANCH   4   2
TORSDOF 3
