REMARK  Name = 
REMARK  8 active torsions:
REMARK  status: ('A' for Active; 'I' for Inactive)
REMARK    1  A    between atoms: C_2  and  C_3
REMARK    2  A    between atoms: C_3  and  N_4
REMARK    3  A    between atoms: C_5  and  O_7
REMARK    4  A    between atoms: O_7  and  C_8
REMARK    5  A    between atoms: C_13  and  C_14
REMARK    6  A    between atoms: C_14  and  C_15
REMARK    7  A    between atoms: C_20  and  N_22
REMARK    8  A    between atoms: C_31  and  C_33
REMARK                            x       y       z     vdW  Elec       q    Type
REMARK                         _______ _______ _______ _____ _____    ______ ____
ROOT
ATOM      8  C   UNL     1       4.287  -3.300   0.000  0.00  0.00    +0.173 C 
ATOM      9  C   UNL     1       3.572  -2.888   0.000  0.00  0.00    +0.044 C 
ATOM     10  C   UNL     1       3.572  -2.062   0.000  0.00  0.00    +0.004 C 
ATOM     11  C   UNL     1       4.287  -1.650   0.000  0.00  0.00    +0.003 C 
ATOM     12  C   UNL     1       3.572  -1.238   0.000  0.00  0.00    +0.000 C 
ATOM     13  C   UNL     1       4.287  -0.825   0.000  0.00  0.00    +0.040 C 
ATOM     26  C   UNL     1       5.001  -0.412   0.000  0.00  0.00    +0.152 C 
ATOM     27  O   UNL     1       5.001   0.412   0.000  0.00  0.00    -0.223 OA
ATOM     28  C   UNL     1       5.716  -0.825   0.000  0.00  0.00    +0.033 C 
ATOM     29  C   UNL     1       5.716  -1.650   0.000  0.00  0.00    +0.003 C 
ATOM     30  C   UNL     1       5.001  -2.062   0.000  0.00  0.00    +0.006 C 
ATOM     31  C   UNL     1       5.001  -2.888   0.000  0.00  0.00    +0.068 C 
ATOM     32  C   UNL     1       5.826  -2.916   0.000  0.00  0.00    +0.006 C 
ENDROOT
BRANCH  31  33
ATOM     33  C   UNL     1       5.439  -3.587   0.000  0.00  0.00    +0.185 C 
ATOM     34  O   UNL     1       5.051  -4.316   0.000  0.00  0.00    -0.220 OA
ENDBRANCH  31  33
BRANCH   8   7
ATOM      7  O   UNL     1       4.287  -4.125   0.000  0.00  0.00    -0.437 OA
BRANCH   7   5
ATOM      4  N   UNL     1       2.858  -4.125   0.000  0.00  0.00    -0.169 NA
ATOM      5  C   UNL     1       3.572  -4.537   0.000  0.00  0.00    +0.421 C 
ATOM      6  O   UNL     1       3.572  -5.362   0.000  0.00  0.00    -0.225 OA
BRANCH   4   3
ATOM      3  C   UNL     1       2.143  -4.537   0.000  0.00  0.00    +0.119 C 
BRANCH   3   2
ATOM      1  C   UNL     1       0.715  -4.537   0.000  0.00  0.00    +0.002 C 
ATOM      2  C   UNL     1       1.429  -4.125   0.000  0.00  0.00    +0.024 C 
ENDBRANCH   3   2
ENDBRANCH   4   3
ENDBRANCH   7   5
ENDBRANCH   8   7
BRANCH  13  14
ATOM     14  C   UNL     1       3.572  -0.412   0.000  0.00  0.00    +0.088 C 
BRANCH  14  15
ATOM     15  C   UNL     1       3.572   0.412   0.000  0.00  0.00    +0.226 C 
ATOM     16  O   UNL     1       4.287   0.825   0.000  0.00  0.00    -0.275 OA
ATOM     17  N   UNL     1       2.858   0.825   0.000  0.00  0.00    -0.278 N 
ATOM     18  C   UNL     1       2.104   0.489   0.000  0.00  0.00    +0.095 C 
ATOM     19  C   UNL     1       1.552   1.103   0.000  0.00  0.00    +0.045 C 
ATOM     20  C   UNL     1       1.965   1.817   0.000  0.00  0.00    +0.117 C 
ATOM     21  C   UNL     1       2.772   1.645   0.000  0.00  0.00    +0.115 C 
BRANCH  20  22
ATOM     22  N   UNL     1       1.629   2.571   0.000  0.00  0.00    -0.205 NA
ATOM     23  C   UNL     1       2.114   3.238   0.000  0.00  0.00    +0.242 C 
ATOM     24  C   UNL     1       1.778   3.992   0.000  0.00  0.00    +0.096 C 
ATOM     25  O   UNL     1       2.934   3.152   0.000  0.00  0.00    -0.273 OA
ENDBRANCH  20  22
ENDBRANCH  14  15
ENDBRANCH  13  14
TORSDOF 8
