REMARK  Name = 
REMARK  4 active torsions:
REMARK  status: ('A' for Active; 'I' for Inactive)
REMARK    1  A    between atoms: C_2  and  N_4
REMARK    2  A    between atoms: C_9  and  C_10
REMARK    3  A    between atoms: C_12  and  C_13
REMARK    4  A    between atoms: C_13  and  C_14
REMARK                            x       y       z     vdW  Elec       q    Type
REMARK                         _______ _______ _______ _____ _____    ______ ____
ROOT
ATOM     10  C   UNL     1       1.491  -3.565   0.000  0.00  0.00    +0.251 A 
ATOM     11  N   UNL     1       0.824  -4.050   0.000  0.00  0.00    -0.193 NA
ATOM     12  C   UNL     1       0.156  -3.565   0.000  0.00  0.00    +0.185 A 
ATOM     22  N   UNL     1       0.411  -2.780   0.000  0.00  0.00    -0.060 NA
ATOM     23  O   UNL     1       1.236  -2.780   0.000  0.00  0.00    -0.336 OA
ENDROOT
BRANCH  10   9
ATOM      4  N   UNL     1       2.943  -3.335   0.000  0.00  0.00    -0.265 NA
ATOM      5  C   UNL     1       3.611  -3.820   0.000  0.00  0.00    +0.106 C 
ATOM      6  C   UNL     1       3.356  -4.605   0.000  0.00  0.00    +0.170 C 
ATOM      7  O   UNL     1       3.841  -5.272   0.000  0.00  0.00    -0.222 OA
ATOM      8  C   UNL     1       2.531  -4.605   0.000  0.00  0.00    +0.060 C 
ATOM      9  C   UNL     1       2.276  -3.820   0.000  0.00  0.00    +0.140 C 
BRANCH   4   2
ATOM      1  C   UNL     1       3.658  -2.098   0.000  0.00  0.00    +0.017 C 
ATOM      2  C   UNL     1       2.943  -2.510   0.000  0.00  0.00    +0.058 C 
ATOM      3  C   UNL     1       2.229  -2.098   0.000  0.00  0.00    +0.017 C 
ENDBRANCH   4   2
ENDBRANCH  10   9
BRANCH  12  13
ATOM     13  C   UNL     1      -0.628  -3.820   0.000  0.00  0.00    +0.096 C 
BRANCH  13  14
ATOM     14  C   UNL     1      -1.242  -3.268   0.000  0.00  0.00    -0.004 A 
ATOM     15  C   UNL     1      -2.026  -3.523   0.000  0.00  0.00    -0.001 A 
ATOM     16  C   UNL     1      -2.639  -2.971   0.000  0.00  0.00    +0.029 A 
ATOM     17  C   UNL     1      -2.468  -2.164   0.000  0.00  0.00    +0.141 A 
ATOM     18  F   UNL     1      -3.081  -1.612   0.000  0.00  0.00    -0.204 F 
ATOM     19  C   UNL     1      -1.683  -1.909   0.000  0.00  0.00    +0.041 A 
ATOM     20  C   UNL     1      -1.070  -2.461   0.000  0.00  0.00    +0.056 A 
ATOM     21 CL   UNL     1      -0.285  -2.206   0.000  0.00  0.00    -0.082 Cl
ENDBRANCH  13  14
ENDBRANCH  12  13
TORSDOF 4
