REMARK  Name = 
REMARK  8 active torsions:
REMARK  status: ('A' for Active; 'I' for Inactive)
REMARK    1  A    between atoms: C_2  and  C_3
REMARK    2  A    between atoms: C_3  and  C_4
REMARK    3  A    between atoms: C_4  and  C_5
REMARK    4  A    between atoms: C_12  and  N_15
REMARK    5  A    between atoms: N_15  and  C_16
REMARK    6  A    between atoms: C_16  and  C_17
REMARK    7  A    between atoms: N_23  and  C_24
REMARK    8  A    between atoms: C_24  and  C_25
REMARK                            x       y       z     vdW  Elec       q    Type
REMARK                         _______ _______ _______ _____ _____    ______ ____
ROOT
ATOM      5  C   UNL     1       0.000  -1.650   0.000  0.00  0.00    +0.080 C 
ATOM      6  C   UNL     1       0.000  -2.475   0.000  0.00  0.00    +0.131 C 
ATOM      7  N   UNL     1      -0.715  -2.888   0.000  0.00  0.00    -0.203 NA
ATOM      8  C   UNL     1      -1.429  -2.475   0.000  0.00  0.00    +0.256 C 
ATOM      9  O   UNL     1      -2.143  -2.888   0.000  0.00  0.00    -0.272 OA
ATOM     10  C   UNL     1      -1.429  -1.650   0.000  0.00  0.00    +0.138 C 
ATOM     11  C   UNL     1      -2.042  -1.098   0.000  0.00  0.00    +0.044 C 
ATOM     12  C   UNL     1      -1.706  -0.344   0.000  0.00  0.00    +0.091 C 
ATOM     13  C   UNL     1      -0.886  -0.430   0.000  0.00  0.00    +0.090 C 
ATOM     14  N   UNL     1      -0.715  -1.238   0.000  0.00  0.00    -0.265 NA
ENDROOT
BRANCH   5   4
ATOM      4  C   UNL     1       0.715  -1.238   0.000  0.00  0.00    +0.027 C 
BRANCH   4   3
ATOM      3  C   UNL     1       1.429  -1.650   0.000  0.00  0.00    +0.088 C 
BRANCH   3   2
ATOM      1  O   UNL     1       2.143  -0.412   0.000  0.00  0.00    -0.273 OA
ATOM      2  C   UNL     1       2.143  -1.238   0.000  0.00  0.00    +0.242 C 
ATOM     23  N   UNL     1       2.858  -1.650   0.000  0.00  0.00    -0.201 NA
BRANCH  23  24
ATOM     24  C   UNL     1       3.572  -1.238   0.000  0.00  0.00    +0.141 C 
BRANCH  24  25
ATOM     25  C   UNL     1       4.287  -1.650   0.000  0.00  0.00    -0.001 A 
ATOM     26  C   UNL     1       5.001  -1.238   0.000  0.00  0.00    -0.003 A 
ATOM     27  C   UNL     1       5.716  -1.650   0.000  0.00  0.00    -0.000 A 
ATOM     28  C   UNL     1       5.716  -2.475   0.000  0.00  0.00    -0.000 A 
ATOM     29  C   UNL     1       5.001  -2.888   0.000  0.00  0.00    -0.000 A 
ATOM     30  C   UNL     1       4.287  -2.475   0.000  0.00  0.00    -0.003 A 
ENDBRANCH  24  25
ENDBRANCH  23  24
ENDBRANCH   3   2
ENDBRANCH   4   3
ENDBRANCH   5   4
BRANCH  12  15
ATOM     15  N   UNL     1      -2.119   0.370   0.000  0.00  0.00    -0.212 NA
BRANCH  15  16
ATOM     16  C   UNL     1      -2.944   0.370   0.000  0.00  0.00    +0.134 C 
BRANCH  16  17
ATOM     17  C   UNL     1      -3.357   1.085   0.000  0.00  0.00    +0.077 A 
ATOM     18  N   UNL     1      -4.181   1.085   0.000  0.00  0.00    -0.247 NA
ATOM     19  C   UNL     1      -4.594   1.799   0.000  0.00  0.00    +0.098 A 
ATOM     20  C   UNL     1      -4.181   2.514   0.000  0.00  0.00    +0.021 A 
ATOM     21  C   UNL     1      -3.357   2.514   0.000  0.00  0.00    +0.003 A 
ATOM     22  C   UNL     1      -2.944   1.799   0.000  0.00  0.00    +0.016 A 
ENDBRANCH  16  17
ENDBRANCH  15  16
ENDBRANCH  12  15
TORSDOF 8
