REMARK  Name = 
REMARK  5 active torsions:
REMARK  status: ('A' for Active; 'I' for Inactive)
REMARK    1  A    between atoms: C_2  and  C_3
REMARK    2  A    between atoms: C_3  and  S_4
REMARK    3  A    between atoms: S_4  and  N_7
REMARK    4  A    between atoms: N_7  and  C_8
REMARK    5  A    between atoms: C_18  and  C_20
REMARK                            x       y       z     vdW  Elec       q    Type
REMARK                         _______ _______ _______ _____ _____    ______ ____
ROOT
ATOM      8  C   UNL     1      -1.296  -1.150   0.000  0.00  0.00    +0.147 A 
ATOM      9  C   UNL     1      -1.167  -0.335   0.000  0.00  0.00    +0.024 A 
ATOM     10  C   UNL     1      -0.397  -0.039   0.000  0.00  0.00    +0.014 A 
ATOM     11  C   UNL     1       0.244  -0.558   0.000  0.00  0.00    +0.041 A 
ATOM     12  C   UNL     1       1.163  -0.557   0.000  0.00  0.00    +0.058 C 
ATOM     13  C   UNL     1       1.713  -0.121   0.000  0.00  0.00    +0.011 C 
ATOM     14  C   UNL     1       1.582  -0.925   0.000  0.00  0.00    +0.043 C 
ATOM     15  C   UNL     1       1.629  -1.912   0.000  0.00  0.00    +0.096 C 
ATOM     16  N   UNL     1       0.813  -2.091   0.000  0.00  0.00    -0.276 N 
ATOM     17  C   UNL     1       1.225  -1.510   0.000  0.00  0.00    +0.099 C 
ATOM     18  C   UNL     1       0.125  -2.547   0.000  0.00  0.00    +0.249 C 
ATOM     19  O   UNL     1      -0.614  -2.179   0.000  0.00  0.00    -0.270 OA
ATOM     27  C   UNL     1       0.622  -0.936   0.000  0.00  0.00    +0.110 C 
ATOM     28  N   UNL     1       0.115  -1.373   0.000  0.00  0.00    -0.298 N 
ATOM     29  C   UNL     1      -0.655  -1.669   0.000  0.00  0.00    +0.277 A 
ATOM     30  O   UNL     1      -1.029  -2.404   0.000  0.00  0.00    -0.266 OA
ENDROOT
BRANCH  18  20
ATOM     20  C   UNL     1       0.176  -3.370   0.000  0.00  0.00    +0.054 A 
ATOM     21  C   UNL     1       0.914  -3.738   0.000  0.00  0.00    +0.007 A 
ATOM     22  C   UNL     1       0.965  -4.562   0.000  0.00  0.00    +0.030 A 
ATOM     23  C   UNL     1       0.277  -5.017   0.000  0.00  0.00    +0.140 A 
ATOM     24  F   UNL     1       0.328  -5.841   0.000  0.00  0.00    -0.204 F 
ATOM     25  C   UNL     1      -0.461  -4.650   0.000  0.00  0.00    +0.030 A 
ATOM     26  C   UNL     1      -0.512  -3.826   0.000  0.00  0.00    +0.007 A 
ENDBRANCH  18  20
BRANCH   8   7
ATOM      7  N   UNL     1      -2.066  -1.445   0.000  0.00  0.00    -0.096 NA
BRANCH   7   4
ATOM      4  S   UNL     1      -2.707  -0.926   0.000  0.00  0.00    +0.073 S 
ATOM      5  O   UNL     1      -3.226  -1.567   0.000  0.00  0.00    -0.153 OA
ATOM      6  O   UNL     1      -2.188  -0.285   0.000  0.00  0.00    -0.153 OA
BRANCH   4   3
ATOM      3  C   UNL     1      -3.349  -0.407   0.000  0.00  0.00    +0.174 C 
BRANCH   3   2
ATOM      1  C   UNL     1      -3.861   0.927   0.000  0.00  0.00    +0.002 C 
ATOM      2  C   UNL     1      -3.220   0.408   0.000  0.00  0.00    +0.027 C 
ENDBRANCH   3   2
ENDBRANCH   4   3
ENDBRANCH   7   4
ENDBRANCH   8   7
TORSDOF 5
