REMARK  Name = 
REMARK  9 active torsions:
REMARK  status: ('A' for Active; 'I' for Inactive)
REMARK    1  A    between atoms: N_2  and  C_3
REMARK    2  A    between atoms: N_2  and  C_11
REMARK    3  A    between atoms: C_3  and  C_4
REMARK    4  A    between atoms: C_4  and  C_5
REMARK    5  A    between atoms: C_12  and  C_13
REMARK    6  A    between atoms: C_13  and  N_14
REMARK    7  A    between atoms: N_14  and  C_15
REMARK    8  A    between atoms: C_15  and  C_16
REMARK    9  A    between atoms: C_24  and  C_25
REMARK                            x       y       z     vdW  Elec       q    Type
REMARK                         _______ _______ _______ _____ _____    ______ ____
ROOT
ATOM     11  C   UNL     1       2.751  -2.537   0.000  0.00  0.00    +0.120 C 
ATOM     12  C   UNL     1       3.419  -3.022   0.000  0.00  0.00    +0.150 C 
ATOM     23  O   UNL     1       3.164  -3.806   0.000  0.00  0.00    -0.350 OA
ATOM     24  C   UNL     1       2.339  -3.806   0.000  0.00  0.00    +0.180 C 
ATOM     27  C   UNL     1       2.084  -3.022   0.000  0.00  0.00    +0.198 C 
ATOM     28  O   UNL     1       1.299  -2.767   0.000  0.00  0.00    -0.219 OA
ENDROOT
BRANCH  11   2
ATOM      1  C   UNL     1       3.466  -1.299   0.000  0.00  0.00    +0.090 C 
ATOM      2  N   UNL     1       2.751  -1.712   0.000  0.00  0.00    -0.268 NA
BRANCH   2   3
ATOM      3  C   UNL     1       2.037  -1.299   0.000  0.00  0.00    +0.077 C 
BRANCH   3   4
ATOM      4  C   UNL     1       2.037  -0.474   0.000  0.00  0.00    +0.044 C 
BRANCH   4   5
ATOM      5  C   UNL     1       1.322  -0.062   0.000  0.00  0.00    -0.021 A 
ATOM      6  C   UNL     1       0.608  -0.474   0.000  0.00  0.00    -0.004 A 
ATOM      7  C   UNL     1      -0.107  -0.062   0.000  0.00  0.00    -0.000 A 
ATOM      8  C   UNL     1      -0.107   0.763   0.000  0.00  0.00    -0.000 A 
ATOM      9  C   UNL     1       0.608   1.176   0.000  0.00  0.00    -0.000 A 
ATOM     10  C   UNL     1       1.322   0.763   0.000  0.00  0.00    -0.004 A 
ENDBRANCH   4   5
ENDBRANCH   3   4
ENDBRANCH   2   3
ENDBRANCH  11   2
BRANCH  24  25
ATOM     25  C   UNL     1       1.854  -4.474   0.000  0.00  0.00    +0.214 C 
ATOM     26  O   UNL     1       1.033  -4.387   0.000  0.00  0.00    -0.218 OA
ENDBRANCH  24  25
BRANCH  12  13
ATOM     13  C   UNL     1       4.203  -2.767   0.000  0.00  0.00    +0.120 C 
BRANCH  13  14
ATOM     14  N   UNL     1       4.816  -3.319   0.000  0.00  0.00    -0.211 NA
BRANCH  14  15
ATOM     15  C   UNL     1       5.601  -3.064   0.000  0.00  0.00    +0.115 C 
BRANCH  15  16
ATOM     16  C   UNL     1       6.214  -3.616   0.000  0.00  0.00    -0.004 A 
ATOM     17  C   UNL     1       6.999  -3.361   0.000  0.00  0.00    -0.003 A 
ATOM     18  C   UNL     1       7.612  -3.913   0.000  0.00  0.00    +0.001 A 
ATOM     19  C   UNL     1       7.440  -4.720   0.000  0.00  0.00    +0.011 A 
ATOM     20  C   UNL     1       6.656  -4.975   0.000  0.00  0.00    +0.057 A 
ATOM     21 CL   UNL     1       6.484  -5.782   0.000  0.00  0.00    -0.082 Cl
ATOM     22  C   UNL     1       6.043  -4.423   0.000  0.00  0.00    +0.009 A 
ENDBRANCH  15  16
ENDBRANCH  14  15
ENDBRANCH  13  14
ENDBRANCH  12  13
TORSDOF 9
