REMARK  Name = 
REMARK  7 active torsions:
REMARK  status: ('A' for Active; 'I' for Inactive)
REMARK    1  A    between atoms: C_2  and  C_4
REMARK    2  A    between atoms: C_4  and  C_5
REMARK    3  A    between atoms: C_5  and  C_6
REMARK    4  A    between atoms: C_13  and  C_14
REMARK    5  A    between atoms: C_16  and  C_19
REMARK    6  A    between atoms: C_22  and  O_23
REMARK    7  A    between atoms: O_23  and  C_24
REMARK                            x       y       z     vdW  Elec       q    Type
REMARK                         _______ _______ _______ _____ _____    ______ ____
ROOT
ATOM      6  C   UNL     1       2.784   0.698   0.000  0.00  0.00    +0.227 C 
ATOM      7  O   UNL     1       3.499   1.110   0.000  0.00  0.00    -0.275 OA
ATOM      8  N   UNL     1       2.070   1.110   0.000  0.00  0.00    -0.267 N 
ATOM      9  C   UNL     1       1.356   0.698   0.000  0.00  0.00    +0.141 C 
ATOM     10  C   UNL     1       0.641   1.110   0.000  0.00  0.00    +0.094 A 
ATOM     11  C   UNL     1       0.641   1.935   0.000  0.00  0.00    +0.078 A 
ATOM     12  C   UNL     1       1.356   2.348   0.000  0.00  0.00    +0.077 C 
ATOM     13  C   UNL     1       2.070   1.935   0.000  0.00  0.00    +0.161 C 
ATOM     30  N   UNL     1      -0.143   2.190   0.000  0.00  0.00    -0.227 NA
ATOM     31  C   UNL     1      -0.628   1.523   0.000  0.00  0.00    +0.198 A 
ATOM     32  N   UNL     1      -0.143   0.856   0.000  0.00  0.00    -0.225 NA
ENDROOT
BRANCH  13  14
ATOM     14  C   UNL     1       2.784   2.348   0.000  0.00  0.00    +0.255 A 
ATOM     15  N   UNL     1       2.871   3.168   0.000  0.00  0.00    -0.189 NA
ATOM     16  C   UNL     1       3.678   3.340   0.000  0.00  0.00    +0.203 A 
ATOM     17  N   UNL     1       4.090   2.626   0.000  0.00  0.00    -0.056 NA
ATOM     18  O   UNL     1       3.538   2.012   0.000  0.00  0.00    -0.335 OA
BRANCH  16  19
ATOM     19  C   UNL     1       4.013   4.094   0.000  0.00  0.00    +0.039 A 
ATOM     20  C   UNL     1       3.528   4.761   0.000  0.00  0.00    +0.006 A 
ATOM     21  C   UNL     1       3.864   5.515   0.000  0.00  0.00    +0.037 A 
ATOM     22  C   UNL     1       4.684   5.601   0.000  0.00  0.00    +0.147 A 
ATOM     28  C   UNL     1       5.169   4.934   0.000  0.00  0.00    +0.037 A 
ATOM     29  C   UNL     1       4.834   4.180   0.000  0.00  0.00    +0.006 A 
BRANCH  22  23
ATOM     23  O   UNL     1       5.020   6.355   0.000  0.00  0.00    -0.404 OA
BRANCH  23  24
ATOM     24  C   UNL     1       4.535   7.022   0.000  0.00  0.00    +0.575 C 
ATOM     25  F   UNL     1       4.050   7.689   0.000  0.00  0.00    -0.133 F 
ATOM     26  F   UNL     1       5.202   7.507   0.000  0.00  0.00    -0.133 F 
ATOM     27  F   UNL     1       3.868   6.537   0.000  0.00  0.00    -0.133 F 
ENDBRANCH  23  24
ENDBRANCH  22  23
ENDBRANCH  16  19
ENDBRANCH  13  14
BRANCH   6   5
ATOM      5  C   UNL     1       2.784  -0.127   0.000  0.00  0.00    +0.097 C 
BRANCH   5   4
ATOM      4  C   UNL     1       3.499  -0.540   0.000  0.00  0.00    +0.124 C 
BRANCH   4   2
ATOM      1  O   UNL     1       4.213  -1.777   0.000  0.00  0.00    -0.246 OA
ATOM      2  C   UNL     1       3.499  -1.365   0.000  0.00  0.00    +0.365 C 
ATOM      3  O   UNL     1       2.784  -1.777   0.000  0.00  0.00    -0.246 OA
ENDBRANCH   4   2
ENDBRANCH   5   4
ENDBRANCH   6   5
TORSDOF 7
