REMARK  Name = 
REMARK  2 active torsions:
REMARK  status: ('A' for Active; 'I' for Inactive)
REMARK    1  A    between atoms: O_2  and  C_3
REMARK    2  A    between atoms: C_10  and  C_12
REMARK                            x       y       z     vdW  Elec       q    Type
REMARK                         _______ _______ _______ _____ _____    ______ ____
ROOT
ATOM      3  C   UNL     1       1.211   0.808   0.000  0.00  0.00    +0.165 C 
ATOM      4  C   UNL     1       0.910   1.576   0.000  0.00  0.00    +0.173 C 
ATOM      5  O   UNL     1       1.322   2.290   0.000  0.00  0.00    -0.349 OA
ATOM      6  C   UNL     1       2.138   2.413   0.000  0.00  0.00    +0.164 C 
ATOM      7  C   UNL     1       2.743   1.852   0.000  0.00  0.00    +0.126 C 
ATOM      8  N   UNL     1       2.681   1.030   0.000  0.00  0.00    -0.270 N 
ATOM      9  C   UNL     1       2.000   0.565   0.000  0.00  0.00    +0.126 C 
ATOM     10  C   UNL     1       3.396   0.617   0.000  0.00  0.00    +0.267 C 
ATOM     11  O   UNL     1       4.110   1.030   0.000  0.00  0.00    -0.268 OA
ENDROOT
BRANCH  10  12
ATOM     12  C   UNL     1       3.396  -0.208   0.000  0.00  0.00    +0.132 A 
ATOM     13  C   UNL     1       4.063  -0.693   0.000  0.00  0.00    +0.040 A 
ATOM     14  C   UNL     1       3.808  -1.478   0.000  0.00  0.00    +0.081 A 
ATOM     15  C   UNL     1       4.293  -2.145   0.000  0.00  0.00    +0.054 C 
ATOM     16  N   UNL     1       2.983  -1.478   0.000  0.00  0.00    -0.173 NA
ATOM     17  N   UNL     1       2.728  -0.693   0.000  0.00  0.00    -0.245 N 
ATOM     18  C   UNL     1       1.944  -0.438   0.000  0.00  0.00    +0.154 C 
ENDBRANCH  10  12
BRANCH   3   2
ATOM      1  C   UNL     1      -0.154   0.387   0.000  0.00  0.00    +0.174 C 
ATOM      2  O   UNL     1       0.650   0.203   0.000  0.00  0.00    -0.349 OA
ENDBRANCH   3   2
TORSDOF 2
