REMARK  Name = 
REMARK  8 active torsions:
REMARK  status: ('A' for Active; 'I' for Inactive)
REMARK    1  A    between atoms: O_2  and  C_3
REMARK    2  A    between atoms: C_3  and  C_4
REMARK    3  A    between atoms: C_4  and  N_5
REMARK    4  A    between atoms: N_5  and  C_6
REMARK    5  A    between atoms: C_7  and  C_12
REMARK    6  A    between atoms: C_15  and  C_17
REMARK    7  A    between atoms: N_21  and  C_22
REMARK    8  A    between atoms: C_22  and  C_23
REMARK                            x       y       z     vdW  Elec       q    Type
REMARK                         _______ _______ _______ _____ _____    ______ ____
ROOT
ATOM     12  C   UNL     1      -4.714   5.546   0.000  0.00  0.00    +0.206 A 
ATOM     13  N   UNL     1      -4.162   6.160   0.000  0.00  0.00    -0.056 NA
ATOM     14  O   UNL     1      -3.409   5.824   0.000  0.00  0.00    -0.336 OA
ATOM     15  C   UNL     1      -3.495   5.003   0.000  0.00  0.00    +0.251 A 
ATOM     16  N   UNL     1      -4.302   4.832   0.000  0.00  0.00    -0.190 NA
ENDROOT
BRANCH  12   7
ATOM      6  C   UNL     1      -5.870   6.386   0.000  0.00  0.00    +0.151 A 
ATOM      7  C   UNL     1      -5.535   5.633   0.000  0.00  0.00    +0.072 A 
ATOM      8  C   UNL     1      -6.020   4.965   0.000  0.00  0.00    +0.008 A 
ATOM      9  C   UNL     1      -6.840   5.051   0.000  0.00  0.00    +0.021 A 
ATOM     10  C   UNL     1      -7.176   5.805   0.000  0.00  0.00    +0.100 A 
ATOM     11  N   UNL     1      -6.691   6.473   0.000  0.00  0.00    -0.228 NA
BRANCH   6   5
ATOM      5  N   UNL     1      -5.386   7.054   0.000  0.00  0.00    -0.218 NA
BRANCH   5   4
ATOM      4  C   UNL     1      -5.721   7.807   0.000  0.00  0.00    +0.146 C 
BRANCH   4   3
ATOM      3  C   UNL     1      -5.236   8.475   0.000  0.00  0.00    +0.166 C 
BRANCH   3   2
ATOM      1  C   UNL     1      -5.087   9.896   0.000  0.00  0.00    +0.174 C 
ATOM      2  O   UNL     1      -5.572   9.229   0.000  0.00  0.00    -0.349 OA
ENDBRANCH   3   2
ENDBRANCH   4   3
ENDBRANCH   5   4
ENDBRANCH   6   5
ENDBRANCH  12   7
BRANCH  15  17
ATOM     17  C   UNL     1      -2.882   4.451   0.000  0.00  0.00    +0.138 C 
ATOM     18  C   UNL     1      -2.075   4.623   0.000  0.00  0.00    +0.027 C 
ATOM     19  C   UNL     1      -1.662   3.909   0.000  0.00  0.00    +0.019 C 
ATOM     20  C   UNL     1      -2.214   3.295   0.000  0.00  0.00    +0.073 C 
ATOM     21  N   UNL     1      -2.968   3.631   0.000  0.00  0.00    -0.266 NA
BRANCH  21  22
ATOM     22  C   UNL     1      -3.683   3.218   0.000  0.00  0.00    +0.072 C 
BRANCH  22  23
ATOM     23  C   UNL     1      -3.683   2.393   0.000  0.00  0.00    +0.016 C 
ATOM     24  C   UNL     1      -3.270   1.679   0.000  0.00  0.00    +0.001 C 
ATOM     25  C   UNL     1      -4.095   1.679   0.000  0.00  0.00    +0.001 C 
ENDBRANCH  22  23
ENDBRANCH  21  22
ENDBRANCH  15  17
TORSDOF 8
