REMARK  Name = 
REMARK  6 active torsions:
REMARK  status: ('A' for Active; 'I' for Inactive)
REMARK    1  A    between atoms: S_2  and  C_3
REMARK    2  A    between atoms: C_7  and  N_8
REMARK    3  A    between atoms: N_11  and  C_12
REMARK    4  A    between atoms: C_12  and  C_13
REMARK    5  A    between atoms: C_20  and  C_21
REMARK    6  A    between atoms: C_21  and  N_22
REMARK                            x       y       z     vdW  Elec       q    Type
REMARK                         _______ _______ _______ _____ _____    ______ ____
ROOT
ATOM     13  C   UNL     1       0.465  -5.199   0.000  0.00  0.00    +0.079 C 
ATOM     14  C   UNL     1       1.025  -4.658   0.000  0.00  0.00    +0.018 C 
ATOM     15  C   UNL     1       0.906  -3.857   0.000  0.00  0.00    +0.005 C 
ATOM     16  C   UNL     1       1.681  -3.405   0.000  0.00  0.00    +0.017 C 
ATOM     17  C   UNL     1       1.302  -3.938   0.000  0.00  0.00    +0.072 C 
ATOM     18  N   UNL     1       0.353  -4.381   0.000  0.00  0.00    -0.272 NA
ATOM     19  C   UNL     1      -0.402  -3.868   0.000  0.00  0.00    +0.073 C 
ATOM     20  C   UNL     1       0.176  -3.370   0.000  0.00  0.00    +0.032 C 
ENDROOT
BRANCH  13  12
ATOM     12  C   UNL     1       0.195  -5.978   0.000  0.00  0.00    +0.133 C 
BRANCH  12  11
ATOM      8  N   UNL     1       2.085  -7.070   0.000  0.00  0.00    -0.161 NA
ATOM      9  C   UNL     1       1.545  -6.446   0.000  0.00  0.00    +0.344 C 
ATOM     10  O   UNL     1       1.815  -5.667   0.000  0.00  0.00    -0.249 OA
ATOM     11  N   UNL     1       0.735  -6.602   0.000  0.00  0.00    -0.185 NA
BRANCH   8   7
ATOM      3  C   UNL     1       3.975  -5.979   0.000  0.00  0.00    +0.027 A 
ATOM      4  C   UNL     1       4.515  -6.602   0.000  0.00  0.00    +0.006 A 
ATOM      5  C   UNL     1       4.245  -7.382   0.000  0.00  0.00    +0.002 A 
ATOM      6  C   UNL     1       3.435  -7.538   0.000  0.00  0.00    +0.017 A 
ATOM      7  C   UNL     1       2.895  -6.914   0.000  0.00  0.00    +0.075 A 
ATOM     36  C   UNL     1       3.165  -6.134   0.000  0.00  0.00    +0.023 A 
BRANCH   3   2
ATOM      1  C   UNL     1       5.055  -5.043   0.000  0.00  0.00    +0.074 C 
ATOM      2  S   UNL     1       4.245  -5.199   0.000  0.00  0.00    -0.113 S 
ENDBRANCH   3   2
ENDBRANCH   8   7
ENDBRANCH  12  11
ENDBRANCH  13  12
BRANCH  20  21
ATOM     21  C   UNL     1       0.125  -2.547   0.000  0.00  0.00    +0.073 C 
BRANCH  21  22
ATOM     22  N   UNL     1       0.813  -2.091   0.000  0.00  0.00    -0.272 NA
ATOM     23  C   UNL     1       1.629  -1.912   0.000  0.00  0.00    +0.074 C 
ATOM     24  C   UNL     1       1.582  -0.925   0.000  0.00  0.00    +0.039 C 
ATOM     25  C   UNL     1       1.713  -0.121   0.000  0.00  0.00    +0.011 C 
ATOM     26  C   UNL     1       1.163  -0.557   0.000  0.00  0.00    +0.054 C 
ATOM     27  C   UNL     1       1.225  -1.510   0.000  0.00  0.00    +0.078 C 
ATOM     28  C   UNL     1       0.244  -0.558   0.000  0.00  0.00    +0.041 A 
ATOM     29  C   UNL     1      -0.397  -0.039   0.000  0.00  0.00    +0.013 A 
ATOM     30  C   UNL     1      -1.167  -0.335   0.000  0.00  0.00    +0.006 A 
ATOM     31  C   UNL     1      -1.296  -1.150   0.000  0.00  0.00    +0.061 A 
ATOM     32  C   UNL     1      -0.655  -1.669   0.000  0.00  0.00    +0.261 A 
ATOM     33  O   UNL     1      -0.784  -2.484   0.000  0.00  0.00    -0.267 OA
ATOM     34  N   UNL     1       0.115  -1.373   0.000  0.00  0.00    -0.299 N 
ATOM     35  C   UNL     1       0.622  -0.936   0.000  0.00  0.00    +0.110 C 
ENDBRANCH  21  22
ENDBRANCH  20  21
TORSDOF 6
