REMARK  Name = 
REMARK  7 active torsions:
REMARK  status: ('A' for Active; 'I' for Inactive)
REMARK    1  A    between atoms: C_2  and  C_4
REMARK    2  A    between atoms: C_4  and  C_5
REMARK    3  A    between atoms: C_4  and  N_12
REMARK    4  A    between atoms: C_5  and  C_6
REMARK    5  A    between atoms: C_13  and  C_15
REMARK    6  A    between atoms: C_17  and  N_18
REMARK    7  A    between atoms: C_19  and  C_21
REMARK                            x       y       z     vdW  Elec       q    Type
REMARK                         _______ _______ _______ _____ _____    ______ ____
ROOT
ATOM     15  C   UNL     1       1.429  -5.775   0.000  0.00  0.00    +0.033 C 
ATOM     16  C   UNL     1       2.143  -5.362   0.000  0.00  0.00    -0.002 C 
ATOM     17  C   UNL     1       2.858  -5.775   0.000  0.00  0.00    +0.150 C 
ATOM     29  C   UNL     1       2.858  -6.600   0.000  0.00  0.00    +0.206 C 
ATOM     30  O   UNL     1       3.572  -7.013   0.000  0.00  0.00    -0.218 OA
ATOM     31  C   UNL     1       2.143  -7.013   0.000  0.00  0.00    +0.189 C 
ATOM     32  O   UNL     1       2.143  -7.838   0.000  0.00  0.00    -0.220 OA
ATOM     33  C   UNL     1       1.429  -6.600   0.000  0.00  0.00    +0.066 C 
ENDROOT
BRANCH  15  13
ATOM     12  N   UNL     1       0.000  -5.775   0.000  0.00  0.00    -0.194 NA
ATOM     13  C   UNL     1       0.715  -5.362   0.000  0.00  0.00    +0.261 C 
ATOM     14  O   UNL     1       0.715  -4.537   0.000  0.00  0.00    -0.269 OA
BRANCH  12   4
ATOM      4  C   UNL     1      -0.715  -5.362   0.000  0.00  0.00    +0.179 C 
BRANCH   4   2
ATOM      1  N   UNL     1       0.000  -4.125   0.000  0.00  0.00    -0.086 NA
ATOM      2  C   UNL     1      -0.715  -4.537   0.000  0.00  0.00    +0.281 C 
ATOM      3  O   UNL     1      -1.429  -4.125   0.000  0.00  0.00    -0.270 OA
ENDBRANCH   4   2
BRANCH   4   5
ATOM      5  C   UNL     1      -1.429  -5.775   0.000  0.00  0.00    +0.057 C 
BRANCH   5   6
ATOM      6  C   UNL     1      -2.143  -5.362   0.000  0.00  0.00    -0.020 A 
ATOM      7  C   UNL     1      -2.858  -5.775   0.000  0.00  0.00    -0.004 A 
ATOM      8  C   UNL     1      -3.572  -5.362   0.000  0.00  0.00    -0.000 A 
ATOM      9  C   UNL     1      -3.572  -4.537   0.000  0.00  0.00    -0.000 A 
ATOM     10  C   UNL     1      -2.858  -4.125   0.000  0.00  0.00    -0.000 A 
ATOM     11  C   UNL     1      -2.143  -4.537   0.000  0.00  0.00    -0.004 A 
ENDBRANCH   5   6
ENDBRANCH   4   5
ENDBRANCH  12   4
ENDBRANCH  15  13
BRANCH  17  18
ATOM     18  N   UNL     1       3.572  -5.362   0.000  0.00  0.00    -0.196 NA
ATOM     19  C   UNL     1       3.572  -4.537   0.000  0.00  0.00    +0.265 C 
ATOM     20  O   UNL     1       2.858  -4.125   0.000  0.00  0.00    -0.268 OA
BRANCH  19  21
ATOM     21  C   UNL     1       4.287  -4.125   0.000  0.00  0.00    +0.056 A 
ATOM     22  C   UNL     1       4.287  -3.300   0.000  0.00  0.00    +0.018 A 
ATOM     23  C   UNL     1       5.001  -2.888   0.000  0.00  0.00    +0.085 A 
ATOM     24 CL   UNL     1       5.001  -2.062   0.000  0.00  0.00    -0.080 Cl
ATOM     25  C   UNL     1       5.716  -3.300   0.000  0.00  0.00    +0.151 A 
ATOM     26  F   UNL     1       6.430  -2.888   0.000  0.00  0.00    -0.203 F 
ATOM     27  C   UNL     1       5.716  -4.125   0.000  0.00  0.00    +0.031 A 
ATOM     28  C   UNL     1       5.001  -4.537   0.000  0.00  0.00    +0.007 A 
ENDBRANCH  19  21
ENDBRANCH  17  18
TORSDOF 7
