REMARK  Name = 
REMARK  5 active torsions:
REMARK  status: ('A' for Active; 'I' for Inactive)
REMARK    1  A    between atoms: C_2  and  C_3
REMARK    2  A    between atoms: C_3  and  N_4
REMARK    3  A    between atoms: C_12  and  O_14
REMARK    4  A    between atoms: O_14  and  C_15
REMARK    5  A    between atoms: C_18  and  C_21
REMARK                            x       y       z     vdW  Elec       q    Type
REMARK                         _______ _______ _______ _____ _____    ______ ____
ROOT
ATOM      4  N   UNL     1       0.204  -1.954   0.000  0.00  0.00    -0.188 NA
ATOM      5  C   UNL     1       0.918  -2.366   0.000  0.00  0.00    +0.323 C 
ATOM      6  O   UNL     1       0.918  -3.191   0.000  0.00  0.00    -0.251 OA
ATOM      7  N   UNL     1       1.633  -1.954   0.000  0.00  0.00    -0.257 N 
ATOM      8  C   UNL     1       1.571  -1.131   0.000  0.00  0.00    +0.127 C 
ATOM      9  C   UNL     1       2.176  -0.570   0.000  0.00  0.00    +0.164 C 
ATOM     10  O   UNL     1       2.992  -0.693   0.000  0.00  0.00    -0.348 OA
ATOM     11  C   UNL     1       3.404  -1.407   0.000  0.00  0.00    +0.187 C 
ATOM     12  C   UNL     1       3.103  -2.175   0.000  0.00  0.00    +0.215 C 
ATOM     13  C   UNL     1       2.315  -2.418   0.000  0.00  0.00    +0.141 C 
ENDROOT
BRANCH   4   3
ATOM      3  C   UNL     1      -0.510  -2.366   0.000  0.00  0.00    +0.117 C 
BRANCH   3   2
ATOM      1  C   UNL     1      -1.939  -2.366   0.000  0.00  0.00    +0.002 C 
ATOM      2  C   UNL     1      -1.225  -1.954   0.000  0.00  0.00    +0.023 C 
ENDBRANCH   3   2
ENDBRANCH   4   3
BRANCH  12  14
ATOM     14  O   UNL     1       3.664  -2.780   0.000  0.00  0.00    -0.475 OA
BRANCH  14  15
ATOM     15  C   UNL     1       4.468  -2.596   0.000  0.00  0.00    +0.139 A 
ATOM     16  C   UNL     1       4.712  -1.808   0.000  0.00  0.00    +0.037 A 
ATOM     17  C   UNL     1       5.516  -1.625   0.000  0.00  0.00    +0.007 A 
ATOM     18  C   UNL     1       6.077  -2.229   0.000  0.00  0.00    +0.072 A 
ATOM     19  C   UNL     1       5.834  -3.018   0.000  0.00  0.00    +0.007 A 
ATOM     20  C   UNL     1       5.029  -3.201   0.000  0.00  0.00    +0.037 A 
BRANCH  18  21
ATOM     21  C   UNL     1       6.881  -2.046   0.000  0.00  0.00    +0.419 C 
ATOM     22  F   UNL     1       7.686  -1.862   0.000  0.00  0.00    -0.166 F 
ATOM     23  F   UNL     1       7.065  -2.850   0.000  0.00  0.00    -0.166 F 
ATOM     24  F   UNL     1       6.698  -1.241   0.000  0.00  0.00    -0.166 F 
ENDBRANCH  18  21
ENDBRANCH  14  15
ENDBRANCH  12  14
TORSDOF 5
