REMARK  Name = 
REMARK  6 active torsions:
REMARK  status: ('A' for Active; 'I' for Inactive)
REMARK    1  A    between atoms: C_10  and  C_12
REMARK    2  A    between atoms: C_12  and  C_13
REMARK    3  A    between atoms: C_18  and  C_19
REMARK    4  A    between atoms: C_19  and  C_20
REMARK    5  A    between atoms: C_23  and  C_25
REMARK    6  A    between atoms: C_28  and  C_31
REMARK                            x       y       z     vdW  Elec       q    Type
REMARK                         _______ _______ _______ _____ _____    ______ ____
ROOT
ATOM     13  C   UNL     1       1.429   0.825   0.000  0.00  0.00    +0.012 C 
ATOM     14  C   UNL     1       2.143   1.238   0.000  0.00  0.00    +0.019 C 
ATOM     15  C   UNL     1       2.858   0.825   0.000  0.00  0.00    +0.089 C 
ATOM     16  N   UNL     1       2.858   0.000   0.000  0.00  0.00    -0.218 NA
ATOM     17  C   UNL     1       2.143  -0.412   0.000  0.00  0.00    +0.089 C 
ATOM     18  C   UNL     1       1.429   0.000   0.000  0.00  0.00    +0.024 C 
ENDROOT
BRANCH  13  12
ATOM     12  C   UNL     1       0.715   1.238   0.000  0.00  0.00    +0.085 C 
BRANCH  12  10
ATOM      1  C   UNL     1      -2.858   3.300   0.000  0.00  0.00    +0.095 C 
ATOM      2  C   UNL     1      -2.143   3.712   0.000  0.00  0.00    +0.226 C 
ATOM      3  O   UNL     1      -2.143   4.537   0.000  0.00  0.00    -0.275 OA
ATOM      4  N   UNL     1      -1.429   3.300   0.000  0.00  0.00    -0.276 N 
ATOM      5  C   UNL     1      -0.715   3.712   0.000  0.00  0.00    +0.115 C 
ATOM      6  C   UNL     1       0.000   3.300   0.000  0.00  0.00    +0.115 C 
ATOM      7  N   UNL     1       0.000   2.475   0.000  0.00  0.00    -0.276 N 
ATOM      8  C   UNL     1      -0.715   2.062   0.000  0.00  0.00    +0.115 C 
ATOM      9  C   UNL     1      -1.429   2.475   0.000  0.00  0.00    +0.115 C 
ATOM     10  C   UNL     1       0.715   2.062   0.000  0.00  0.00    +0.226 C 
ATOM     11  O   UNL     1       1.429   2.475   0.000  0.00  0.00    -0.275 OA
ENDBRANCH  12  10
ENDBRANCH  13  12
BRANCH  18  19
ATOM     19  C   UNL     1       0.715  -0.412   0.000  0.00  0.00    +0.051 C 
BRANCH  19  20
ATOM     20  C   UNL     1       0.715  -1.238   0.000  0.00  0.00    +0.101 A 
ATOM     21  N   UNL     1       1.382  -1.722   0.000  0.00  0.00    -0.081 NA
ATOM     22  O   UNL     1       1.127  -2.507   0.000  0.00  0.00    -0.354 OA
ATOM     23  C   UNL     1       0.302  -2.507   0.000  0.00  0.00    +0.177 A 
ATOM     24  C   UNL     1       0.047  -1.722   0.000  0.00  0.00    +0.058 A 
BRANCH  23  25
ATOM     25  C   UNL     1      -0.183  -3.175   0.000  0.00  0.00    +0.037 A 
ATOM     26  C   UNL     1       0.153  -3.928   0.000  0.00  0.00    +0.003 A 
ATOM     27  C   UNL     1      -0.332  -4.596   0.000  0.00  0.00    -0.004 A 
ATOM     28  C   UNL     1      -1.153  -4.509   0.000  0.00  0.00    -0.023 A 
ATOM     29  C   UNL     1      -1.488  -3.756   0.000  0.00  0.00    -0.004 A 
ATOM     30  C   UNL     1      -1.003  -3.088   0.000  0.00  0.00    +0.003 A 
BRANCH  28  31
ATOM     31  C   UNL     1      -1.638  -5.177   0.000  0.00  0.00    +0.019 C 
ATOM     32  C   UNL     1      -2.123  -5.844   0.000  0.00  0.00    +0.004 C 
ATOM     33  C   UNL     1      -2.305  -4.692   0.000  0.00  0.00    +0.004 C 
ATOM     34  C   UNL     1      -0.970  -5.662   0.000  0.00  0.00    +0.004 C 
ENDBRANCH  28  31
ENDBRANCH  23  25
ENDBRANCH  19  20
ENDBRANCH  18  19
TORSDOF 6
