REMARK  Name = 
REMARK  5 active torsions:
REMARK  status: ('A' for Active; 'I' for Inactive)
REMARK    1  A    between atoms: C_2  and  C_3
REMARK    2  A    between atoms: C_3  and  C_4
REMARK    3  A    between atoms: C_7  and  C_9
REMARK    4  A    between atoms: N_12  and  C_13
REMARK    5  A    between atoms: C_13  and  C_14
REMARK                            x       y       z     vdW  Elec       q    Type
REMARK                         _______ _______ _______ _____ _____    ______ ____
ROOT
ATOM      9  C   UNL     1      -2.533   0.786   0.000  0.00  0.00    +0.096 C 
ATOM     10  C   UNL     1      -2.361   1.593   0.000  0.00  0.00    +0.028 C 
ATOM     11  C   UNL     1      -1.541   1.679   0.000  0.00  0.00    +0.073 C 
ATOM     12  N   UNL     1      -1.205   0.926   0.000  0.00  0.00    -0.268 NA
ATOM     23  C   UNL     1      -1.819   0.374   0.000  0.00  0.00    +0.082 C 
ENDROOT
BRANCH   9   7
ATOM      4  C   UNL     1      -4.279  -0.443   0.000  0.00  0.00    +0.226 A 
ATOM      5  N   UNL     1      -4.614   0.311   0.000  0.00  0.00    -0.112 NA
ATOM      6  N   UNL     1      -4.001   0.863   0.000  0.00  0.00    -0.112 NA
ATOM      7  C   UNL     1      -3.287   0.451   0.000  0.00  0.00    +0.227 A 
ATOM      8  O   UNL     1      -3.458  -0.356   0.000  0.00  0.00    -0.423 OA
BRANCH   4   3
ATOM      3  C   UNL     1      -4.691  -1.157   0.000  0.00  0.00    +0.087 C 
BRANCH   3   2
ATOM      1  C   UNL     1      -5.929  -1.872   0.000  0.00  0.00    +0.001 C 
ATOM      2  C   UNL     1      -5.516  -1.157   0.000  0.00  0.00    +0.010 C 
ENDBRANCH   3   2
ENDBRANCH   4   3
ENDBRANCH   9   7
BRANCH  12  13
ATOM     13  C   UNL     1      -0.398   0.754   0.000  0.00  0.00    +0.101 C 
BRANCH  13  14
ATOM     14  C   UNL     1      -0.143  -0.030   0.000  0.00  0.00    +0.014 A 
ATOM     15  C   UNL     1      -0.628  -0.698   0.000  0.00  0.00    +0.096 A 
ATOM     16  N   UNL     1      -0.143  -1.365   0.000  0.00  0.00    -0.244 NA
ATOM     17  C   UNL     1       0.641  -1.110   0.000  0.00  0.00    +0.081 A 
ATOM     18  C   UNL     1       0.641  -0.285   0.000  0.00  0.00    +0.016 A 
ATOM     19  C   UNL     1       1.356   0.127   0.000  0.00  0.00    +0.001 A 
ATOM     20  C   UNL     1       2.070  -0.285   0.000  0.00  0.00    +0.000 A 
ATOM     21  C   UNL     1       2.070  -1.110   0.000  0.00  0.00    +0.002 A 
ATOM     22  C   UNL     1       1.356  -1.523   0.000  0.00  0.00    +0.019 A 
ENDBRANCH  13  14
ENDBRANCH  12  13
TORSDOF 5
