REMARK  Name = 
REMARK  9 active torsions:
REMARK  status: ('A' for Active; 'I' for Inactive)
REMARK    1  A    between atoms: O_2  and  C_3
REMARK    2  A    between atoms: C_6  and  S_9
REMARK    3  A    between atoms: S_9  and  N_12
REMARK    4  A    between atoms: N_12  and  C_13
REMARK    5  A    between atoms: C_13  and  C_14
REMARK    6  A    between atoms: C_16  and  C_17
REMARK    7  A    between atoms: C_21  and  N_22
REMARK    8  A    between atoms: N_22  and  C_24
REMARK    9  A    between atoms: C_24  and  C_25
REMARK                            x       y       z     vdW  Elec       q    Type
REMARK                         _______ _______ _______ _____ _____    ______ ____
ROOT
ATOM     14  C   UNL     1       0.000  -2.475   0.000  0.00  0.00    +0.152 C 
ATOM     15  O   UNL     1      -0.667  -2.960   0.000  0.00  0.00    -0.350 OA
ATOM     16  C   UNL     1      -0.412  -3.744   0.000  0.00  0.00    +0.180 C 
ATOM     19  C   UNL     1       0.412  -3.744   0.000  0.00  0.00    +0.198 C 
ATOM     20  O   UNL     1       0.897  -4.412   0.000  0.00  0.00    -0.219 OA
ATOM     21  C   UNL     1       0.667  -2.960   0.000  0.00  0.00    +0.120 C 
ENDROOT
BRANCH  16  17
ATOM     17  C   UNL     1      -0.897  -4.412   0.000  0.00  0.00    +0.214 C 
ATOM     18  O   UNL     1      -1.718  -4.326   0.000  0.00  0.00    -0.218 OA
ENDBRANCH  16  17
BRANCH  21  22
ATOM     22  N   UNL     1       1.452  -2.705   0.000  0.00  0.00    -0.265 NA
ATOM     23  C   UNL     1       1.624  -1.898   0.000  0.00  0.00    +0.090 C 
BRANCH  22  24
ATOM     24  C   UNL     1       2.065  -3.257   0.000  0.00  0.00    +0.099 C 
BRANCH  24  25
ATOM     25  C   UNL     1       2.850  -3.002   0.000  0.00  0.00    -0.006 A 
ATOM     26  C   UNL     1       3.021  -2.195   0.000  0.00  0.00    -0.003 A 
ATOM     27  C   UNL     1       3.806  -1.940   0.000  0.00  0.00    -0.000 A 
ATOM     28  C   UNL     1       4.419  -2.492   0.000  0.00  0.00    -0.000 A 
ATOM     29  C   UNL     1       4.247  -3.299   0.000  0.00  0.00    -0.000 A 
ATOM     30  C   UNL     1       3.463  -3.554   0.000  0.00  0.00    -0.003 A 
ENDBRANCH  24  25
ENDBRANCH  22  24
ENDBRANCH  21  22
BRANCH  14  13
ATOM     13  C   UNL     1       0.000  -1.650   0.000  0.00  0.00    +0.146 C 
BRANCH  13  12
ATOM     12  N   UNL     1      -0.715  -1.238   0.000  0.00  0.00    -0.075 NA
BRANCH  12   9
ATOM      9  S   UNL     1      -0.715  -0.412   0.000  0.00  0.00    +0.077 S 
ATOM     10  O   UNL     1       0.111  -0.412   0.000  0.00  0.00    -0.152 OA
ATOM     11  O   UNL     1      -1.540  -0.412   0.000  0.00  0.00    -0.152 OA
BRANCH   9   6
ATOM      3  C   UNL     1      -0.715   2.062   0.000  0.00  0.00    +0.139 A 
ATOM      4  C   UNL     1       0.000   1.650   0.000  0.00  0.00    +0.038 A 
ATOM      5  C   UNL     1       0.000   0.825   0.000  0.00  0.00    +0.023 A 
ATOM      6  C   UNL     1      -0.715   0.412   0.000  0.00  0.00    +0.124 A 
ATOM      7  C   UNL     1      -1.429   0.825   0.000  0.00  0.00    +0.023 A 
ATOM      8  C   UNL     1      -1.429   1.650   0.000  0.00  0.00    +0.038 A 
BRANCH   3   2
ATOM      1  C   UNL     1      -1.429   3.300   0.000  0.00  0.00    +0.252 C 
ATOM      2  O   UNL     1      -0.715   2.888   0.000  0.00  0.00    -0.471 OA
ENDBRANCH   3   2
ENDBRANCH   9   6
ENDBRANCH  12   9
ENDBRANCH  13  12
ENDBRANCH  14  13
TORSDOF 9
