REMARK  Name = 
REMARK  7 active torsions:
REMARK  status: ('A' for Active; 'I' for Inactive)
REMARK    1  A    between atoms: C_2  and  C_4
REMARK    2  A    between atoms: C_4  and  C_5
REMARK    3  A    between atoms: C_4  and  N_13
REMARK    4  A    between atoms: C_5  and  C_6
REMARK    5  A    between atoms: C_14  and  C_16
REMARK    6  A    between atoms: C_23  and  N_25
REMARK    7  A    between atoms: N_28  and  C_29
REMARK                            x       y       z     vdW  Elec       q    Type
REMARK                         _______ _______ _______ _____ _____    ______ ____
ROOT
ATOM     16  C   UNL     1      -0.778  -5.339   0.000  0.00  0.00    +0.200 C 
ATOM     17  O   UNL     1      -1.309  -5.971   0.000  0.00  0.00    -0.216 OA
ATOM     18  C   UNL     1      -0.496  -4.564   0.000  0.00  0.00    +0.075 C 
ATOM     19  C   UNL     1       0.316  -4.421   0.000  0.00  0.00    +0.187 C 
ATOM     20  O   UNL     1       0.598  -3.646   0.000  0.00  0.00    -0.220 OA
ATOM     21  C   UNL     1       0.847  -5.053   0.000  0.00  0.00    +0.202 C 
ATOM     22  O   UNL     1       1.659  -4.909   0.000  0.00  0.00    -0.219 OA
ATOM     23  C   UNL     1       0.564  -5.828   0.000  0.00  0.00    +0.133 C 
ATOM     24  C   UNL     1      -0.248  -5.971   0.000  0.00  0.00    +0.064 C 
ENDROOT
BRANCH  23  25
ATOM     25  N   UNL     1       1.095  -6.460   0.000  0.00  0.00    -0.186 NA
ATOM     26  C   UNL     1       0.812  -7.235   0.000  0.00  0.00    +0.344 C 
ATOM     27  O   UNL     1       0.000  -7.378   0.000  0.00  0.00    -0.249 OA
ATOM     28  N   UNL     1       1.343  -7.867   0.000  0.00  0.00    -0.161 NA
BRANCH  28  29
ATOM     29  C   UNL     1       2.155  -7.724   0.000  0.00  0.00    +0.077 A 
ATOM     30  C   UNL     1       2.437  -6.949   0.000  0.00  0.00    +0.017 A 
ATOM     31  C   UNL     1       3.250  -6.805   0.000  0.00  0.00    +0.004 A 
ATOM     32  C   UNL     1       3.780  -7.437   0.000  0.00  0.00    +0.030 A 
ATOM     33  C   UNL     1       3.498  -8.213   0.000  0.00  0.00    +0.141 A 
ATOM     34  F   UNL     1       4.028  -8.845   0.000  0.00  0.00    -0.204 F 
ATOM     35  C   UNL     1       2.686  -8.356   0.000  0.00  0.00    +0.046 A 
ENDBRANCH  28  29
ENDBRANCH  23  25
BRANCH  16  14
ATOM     13  N   UNL     1      -2.207  -5.339   0.000  0.00  0.00    -0.195 NA
ATOM     14  C   UNL     1      -1.493  -4.927   0.000  0.00  0.00    +0.269 C 
ATOM     15  O   UNL     1      -1.493  -4.102   0.000  0.00  0.00    -0.271 OA
BRANCH  13   4
ATOM      4  C   UNL     1      -2.922  -4.927   0.000  0.00  0.00    +0.179 C 
BRANCH   4   2
ATOM      1  N   UNL     1      -2.207  -3.689   0.000  0.00  0.00    -0.086 NA
ATOM      2  C   UNL     1      -2.922  -4.102   0.000  0.00  0.00    +0.281 C 
ATOM      3  O   UNL     1      -3.636  -3.689   0.000  0.00  0.00    -0.270 OA
ENDBRANCH   4   2
BRANCH   4   5
ATOM      5  C   UNL     1      -3.636  -5.339   0.000  0.00  0.00    +0.057 C 
BRANCH   5   6
ATOM      6  C   UNL     1      -4.351  -4.927   0.000  0.00  0.00    -0.020 A 
ATOM      7  C   UNL     1      -5.065  -5.339   0.000  0.00  0.00    -0.001 A 
ATOM      8  C   UNL     1      -5.780  -4.927   0.000  0.00  0.00    +0.042 A 
ATOM      9  C   UNL     1      -5.780  -4.102   0.000  0.00  0.00    +0.196 A 
ATOM     10  O   UNL     1      -6.494  -3.689   0.000  0.00  0.00    -0.287 OA
ATOM     11  C   UNL     1      -5.065  -3.689   0.000  0.00  0.00    +0.042 A 
ATOM     12  C   UNL     1      -4.351  -4.102   0.000  0.00  0.00    -0.001 A 
ENDBRANCH   5   6
ENDBRANCH   4   5
ENDBRANCH  13   4
ENDBRANCH  16  14
TORSDOF 7
