REMARK  Name = 
REMARK  8 active torsions:
REMARK  status: ('A' for Active; 'I' for Inactive)
REMARK    1  A    between atoms: O_2  and  C_3
REMARK    2  A    between atoms: C_3  and  C_4
REMARK    3  A    between atoms: C_4  and  O_5
REMARK    4  A    between atoms: O_5  and  C_6
REMARK    5  A    between atoms: C_9  and  C_12
REMARK    6  A    between atoms: C_15  and  C_17
REMARK    7  A    between atoms: N_21  and  C_22
REMARK    8  A    between atoms: C_22  and  C_23
REMARK                            x       y       z     vdW  Elec       q    Type
REMARK                         _______ _______ _______ _____ _____    ______ ____
ROOT
ATOM     12  C   UNL     1       3.184   7.097   0.000  0.00  0.00    +0.205 A 
ATOM     13  N   UNL     1       3.736   7.710   0.000  0.00  0.00    -0.056 NA
ATOM     14  O   UNL     1       4.490   7.375   0.000  0.00  0.00    -0.336 OA
ATOM     15  C   UNL     1       4.404   6.554   0.000  0.00  0.00    +0.251 A 
ATOM     16  N   UNL     1       3.597   6.383   0.000  0.00  0.00    -0.190 NA
ENDROOT
BRANCH  12   9
ATOM      6  C   UNL     1       0.723   7.356   0.000  0.00  0.00    +0.225 A 
ATOM      7  C   UNL     1       1.208   8.024   0.000  0.00  0.00    +0.058 A 
ATOM      8  C   UNL     1       2.028   7.937   0.000  0.00  0.00    +0.010 A 
ATOM      9  C   UNL     1       2.364   7.184   0.000  0.00  0.00    +0.058 A 
ATOM     10  C   UNL     1       1.879   6.516   0.000  0.00  0.00    +0.105 A 
ATOM     11  N   UNL     1       1.058   6.602   0.000  0.00  0.00    -0.210 NA
BRANCH   6   5
ATOM      5  O   UNL     1      -0.098   7.442   0.000  0.00  0.00    -0.457 OA
BRANCH   5   4
ATOM      4  C   UNL     1      -0.583   6.775   0.000  0.00  0.00    +0.239 C 
BRANCH   4   3
ATOM      3  C   UNL     1      -1.403   6.861   0.000  0.00  0.00    +0.189 C 
BRANCH   3   2
ATOM      1  C   UNL     1      -2.709   6.280   0.000  0.00  0.00    +0.174 C 
ATOM      2  O   UNL     1      -1.888   6.194   0.000  0.00  0.00    -0.347 OA
ENDBRANCH   3   2
ENDBRANCH   4   3
ENDBRANCH   5   4
ENDBRANCH   6   5
ENDBRANCH  12   9
BRANCH  15  17
ATOM     17  C   UNL     1       5.017   6.002   0.000  0.00  0.00    +0.138 C 
ATOM     18  C   UNL     1       5.824   6.174   0.000  0.00  0.00    +0.027 C 
ATOM     19  C   UNL     1       6.236   5.459   0.000  0.00  0.00    +0.019 C 
ATOM     20  C   UNL     1       5.684   4.846   0.000  0.00  0.00    +0.073 C 
ATOM     21  N   UNL     1       4.931   5.182   0.000  0.00  0.00    -0.266 NA
BRANCH  21  22
ATOM     22  C   UNL     1       4.216   4.769   0.000  0.00  0.00    +0.072 C 
BRANCH  22  23
ATOM     23  C   UNL     1       4.216   3.944   0.000  0.00  0.00    +0.016 C 
ATOM     24  C   UNL     1       4.628   3.230   0.000  0.00  0.00    +0.001 C 
ATOM     25  C   UNL     1       3.804   3.230   0.000  0.00  0.00    +0.001 C 
ENDBRANCH  22  23
ENDBRANCH  21  22
ENDBRANCH  15  17
TORSDOF 8
