REMARK  Name = 
REMARK  8 active torsions:
REMARK  status: ('A' for Active; 'I' for Inactive)
REMARK    1  A    between atoms: C_2  and  C_4
REMARK    2  A    between atoms: C_6  and  C_7
REMARK    3  A    between atoms: C_7  and  C_8
REMARK    4  A    between atoms: C_20  and  C_21
REMARK    5  A    between atoms: C_21  and  N_22
REMARK    6  A    between atoms: C_23  and  C_25
REMARK    7  A    between atoms: C_25  and  C_26
REMARK    8  A    between atoms: C_26  and  C_27
REMARK                            x       y       z     vdW  Elec       q    Type
REMARK                         _______ _______ _______ _____ _____    ______ ____
ROOT
ATOM      4  C   UNL     1      -0.881  -6.418   0.000  0.00  0.00    +0.006 C 
ATOM      5  C   UNL     1      -1.596  -6.830   0.000  0.00  0.00    +0.005 C 
ATOM      6  C   UNL     1      -2.310  -6.418   0.000  0.00  0.00    +0.026 C 
ATOM     17  C   UNL     1      -2.310  -5.593   0.000  0.00  0.00    -0.048 C 
ATOM     18  C   UNL     1      -3.025  -5.180   0.000  0.00  0.00    +0.026 C 
ATOM     19  C   UNL     1      -1.596  -5.180   0.000  0.00  0.00    -0.033 C 
ATOM     20  C   UNL     1      -0.881  -5.593   0.000  0.00  0.00    +0.043 C 
ENDROOT
BRANCH   4   2
ATOM      1  C   UNL     1       0.547  -6.418   0.000  0.00  0.00    +0.000 C 
ATOM      2  C   UNL     1      -0.167  -6.830   0.000  0.00  0.00    +0.000 C 
ATOM      3  C   UNL     1      -0.167  -7.655   0.000  0.00  0.00    +0.000 C 
ENDBRANCH   4   2
BRANCH   6   7
ATOM      7  C   UNL     1      -3.025  -6.830   0.000  0.00  0.00    +0.070 C 
BRANCH   7   8
ATOM      8  C   UNL     1      -3.739  -6.418   0.000  0.00  0.00    +0.141 A 
ATOM      9  N   UNL     1      -3.826  -5.597   0.000  0.00  0.00    -0.228 NA
ATOM     10  C   UNL     1      -4.633  -5.426   0.000  0.00  0.00    +0.118 A 
ATOM     11  C   UNL     1      -5.045  -6.140   0.000  0.00  0.00    +0.181 A 
ATOM     12  N   UNL     1      -4.493  -6.753   0.000  0.00  0.00    -0.210 NA
ATOM     13  N   UNL     1      -5.870  -6.140   0.000  0.00  0.00    -0.224 NA
ATOM     14  C   UNL     1      -6.283  -5.426   0.000  0.00  0.00    +0.101 A 
ATOM     15  C   UNL     1      -5.870  -4.711   0.000  0.00  0.00    +0.022 A 
ATOM     16  C   UNL     1      -5.045  -4.711   0.000  0.00  0.00    +0.024 A 
ENDBRANCH   7   8
ENDBRANCH   6   7
BRANCH  20  21
ATOM     21  C   UNL     1      -0.167  -5.180   0.000  0.00  0.00    +0.119 C 
BRANCH  21  22
ATOM     22  N   UNL     1       0.547  -5.593   0.000  0.00  0.00    -0.205 NA
ATOM     23  C   UNL     1       1.262  -5.180   0.000  0.00  0.00    +0.242 C 
ATOM     24  O   UNL     1       1.262  -4.355   0.000  0.00  0.00    -0.273 OA
BRANCH  23  25
ATOM     25  C   UNL     1       1.976  -5.593   0.000  0.00  0.00    +0.099 C 
BRANCH  25  26
ATOM     26  C   UNL     1       2.691  -5.180   0.000  0.00  0.00    +0.124 C 
BRANCH  26  27
ATOM     27  C   UNL     1       3.405  -5.593   0.000  0.00  0.00    +0.365 C 
ATOM     28  O   UNL     1       4.120  -5.180   0.000  0.00  0.00    -0.246 OA
ATOM     29  O   UNL     1       3.405  -6.418   0.000  0.00  0.00    -0.246 OA
ENDBRANCH  26  27
ENDBRANCH  25  26
ENDBRANCH  23  25
ENDBRANCH  21  22
ENDBRANCH  20  21
TORSDOF 8
