REMARK  Name = 
REMARK  1 active torsions:
REMARK  status: ('A' for Active; 'I' for Inactive)
REMARK    1  A    between atoms: N_6  and  C_12
REMARK                            x       y       z     vdW  Elec       q    Type
REMARK                         _______ _______ _______ _____ _____    ______ ____
ROOT
ATOM      1  C   UNL     1      -0.171  -0.698   0.000  0.00  0.00    +0.117 C 
ATOM      2  N   UNL     1       0.654  -0.698   0.000  0.00  0.00    -0.261 N 
ATOM      3  C   UNL     1       1.139  -0.030   0.000  0.00  0.00    +0.116 C 
ATOM      4  C   UNL     1       1.923  -0.285   0.000  0.00  0.00    +0.113 C 
ATOM      5  C   UNL     1       2.638   0.127   0.000  0.00  0.00    +0.094 C 
ATOM      6  N   UNL     1       3.352  -0.285   0.000  0.00  0.00    -0.271 NA
ATOM      7  C   UNL     1       3.352  -1.110   0.000  0.00  0.00    +0.094 C 
ATOM      8  C   UNL     1       2.638  -1.523   0.000  0.00  0.00    +0.112 C 
ATOM      9  N   UNL     1       1.923  -1.110   0.000  0.00  0.00    -0.261 N 
ATOM     10  C   UNL     1       1.139  -1.365   0.000  0.00  0.00    +0.307 C 
ATOM     11  O   UNL     1       0.884  -2.150   0.000  0.00  0.00    -0.252 OA
ENDROOT
BRANCH   6  12
ATOM     12  C   UNL     1       4.067   0.127   0.000  0.00  0.00    +0.063 C 
ATOM     13  C   UNL     1       4.067   0.952   0.000  0.00  0.00    +0.048 C 
ATOM     14  C   UNL     1       4.781   1.365   0.000  0.00  0.00    +0.144 C 
ATOM     15  O   UNL     1       5.496   0.952   0.000  0.00  0.00    -0.354 OA
ATOM     16  C   UNL     1       5.496   0.127   0.000  0.00  0.00    +0.144 C 
ATOM     17  C   UNL     1       4.781  -0.285   0.000  0.00  0.00    +0.048 C 
ENDBRANCH   6  12
TORSDOF 1
