REMARK  Name = 
REMARK  8 active torsions:
REMARK  status: ('A' for Active; 'I' for Inactive)
REMARK    1  A    between atoms: C_5  and  C_6
REMARK    2  A    between atoms: C_6  and  N_7
REMARK    3  A    between atoms: C_8  and  C_10
REMARK    4  A    between atoms: C_10  and  C_11
REMARK    5  A    between atoms: C_11  and  C_12
REMARK    6  A    between atoms: C_19  and  N_22
REMARK    7  A    between atoms: N_22  and  C_23
REMARK    8  A    between atoms: C_23  and  C_24
REMARK                            x       y       z     vdW  Elec       q    Type
REMARK                         _______ _______ _______ _____ _____    ______ ____
ROOT
ATOM     12  C   UNL     1       2.858  -3.300   0.000  0.00  0.00    +0.080 C 
ATOM     13  C   UNL     1       2.858  -2.475   0.000  0.00  0.00    +0.131 C 
ATOM     14  N   UNL     1       3.572  -2.062   0.000  0.00  0.00    -0.203 NA
ATOM     15  C   UNL     1       4.287  -2.475   0.000  0.00  0.00    +0.256 C 
ATOM     16  O   UNL     1       5.001  -2.062   0.000  0.00  0.00    -0.272 OA
ATOM     17  C   UNL     1       4.287  -3.300   0.000  0.00  0.00    +0.138 C 
ATOM     18  C   UNL     1       4.900  -3.852   0.000  0.00  0.00    +0.044 C 
ATOM     19  C   UNL     1       4.564  -4.606   0.000  0.00  0.00    +0.091 C 
ATOM     20  C   UNL     1       3.744  -4.519   0.000  0.00  0.00    +0.090 C 
ATOM     21  N   UNL     1       3.572  -3.712   0.000  0.00  0.00    -0.265 NA
ENDROOT
BRANCH  12  11
ATOM     11  C   UNL     1       2.143  -3.712   0.000  0.00  0.00    +0.027 C 
BRANCH  11  10
ATOM     10  C   UNL     1       1.429  -3.300   0.000  0.00  0.00    +0.088 C 
BRANCH  10   8
ATOM      7  N   UNL     1       0.000  -3.300   0.000  0.00  0.00    -0.201 NA
ATOM      8  C   UNL     1       0.715  -3.712   0.000  0.00  0.00    +0.242 C 
ATOM      9  O   UNL     1       0.715  -4.537   0.000  0.00  0.00    -0.273 OA
BRANCH   7   6
ATOM      6  C   UNL     1      -0.715  -3.712   0.000  0.00  0.00    +0.141 C 
BRANCH   6   5
ATOM      1  F   UNL     1      -3.572  -2.062   0.000  0.00  0.00    -0.204 F 
ATOM      2  C   UNL     1      -2.858  -2.475   0.000  0.00  0.00    +0.140 A 
ATOM      3  C   UNL     1      -2.143  -2.062   0.000  0.00  0.00    +0.029 A 
ATOM      4  C   UNL     1      -1.429  -2.475   0.000  0.00  0.00    -0.000 A 
ATOM      5  C   UNL     1      -1.429  -3.300   0.000  0.00  0.00    -0.000 A 
ATOM     30  C   UNL     1      -2.143  -3.712   0.000  0.00  0.00    -0.000 A 
ATOM     31  C   UNL     1      -2.858  -3.300   0.000  0.00  0.00    +0.029 A 
ENDBRANCH   6   5
ENDBRANCH   7   6
ENDBRANCH  10   8
ENDBRANCH  11  10
ENDBRANCH  12  11
BRANCH  19  22
ATOM     22  N   UNL     1       4.977  -5.320   0.000  0.00  0.00    -0.213 NA
BRANCH  22  23
ATOM     23  C   UNL     1       5.802  -5.320   0.000  0.00  0.00    +0.115 C 
BRANCH  23  24
ATOM     24  C   UNL     1       6.214  -6.035   0.000  0.00  0.00    -0.005 A 
ATOM     25  C   UNL     1       7.039  -6.035   0.000  0.00  0.00    -0.003 A 
ATOM     26  C   UNL     1       7.452  -6.749   0.000  0.00  0.00    -0.000 A 
ATOM     27  C   UNL     1       7.039  -7.464   0.000  0.00  0.00    -0.000 A 
ATOM     28  C   UNL     1       6.214  -7.464   0.000  0.00  0.00    -0.000 A 
ATOM     29  C   UNL     1       5.802  -6.749   0.000  0.00  0.00    -0.003 A 
ENDBRANCH  23  24
ENDBRANCH  22  23
ENDBRANCH  19  22
TORSDOF 8
