REMARK  Name = 
REMARK  7 active torsions:
REMARK  status: ('A' for Active; 'I' for Inactive)
REMARK    1  A    between atoms: S_2  and  C_4
REMARK    2  A    between atoms: S_2  and  N_11
REMARK    3  A    between atoms: C_4  and  C_5
REMARK    4  A    between atoms: N_11  and  C_12
REMARK    5  A    between atoms: C_16  and  N_20
REMARK    6  A    between atoms: C_23  and  C_27
REMARK    7  A    between atoms: C_30  and  C_33
REMARK                            x       y       z     vdW  Elec       q    Type
REMARK                         _______ _______ _______ _____ _____    ______ ____
ROOT
ATOM     12  C   UNL     1       1.270  -0.922   0.000  0.00  0.00    +0.156 C 
ATOM     13  C   UNL     1       0.785  -0.255   0.000  0.00  0.00    +0.164 C 
ATOM     14  O   UNL     1       1.270   0.412   0.000  0.00  0.00    -0.350 OA
ATOM     15  C   UNL     1       2.054   0.158   0.000  0.00  0.00    +0.166 C 
ATOM     16  C   UNL     1       2.839   0.412   0.000  0.00  0.00    +0.154 C 
ATOM     17  C   UNL     1       3.324  -0.255   0.000  0.00  0.00    +0.166 C 
ATOM     18  O   UNL     1       2.839  -0.922   0.000  0.00  0.00    -0.350 OA
ATOM     19  C   UNL     1       2.054  -0.667   0.000  0.00  0.00    +0.164 C 
ENDROOT
BRANCH  16  20
ATOM     20  N   UNL     1       3.094   1.197   0.000  0.00  0.00    -0.200 NA
ATOM     21  C   UNL     1       3.901   1.369   0.000  0.00  0.00    +0.237 A 
ATOM     22  N   UNL     1       4.156   2.153   0.000  0.00  0.00    -0.212 NA
ATOM     23  C   UNL     1       4.963   2.325   0.000  0.00  0.00    +0.086 A 
ATOM     24  C   UNL     1       5.515   1.712   0.000  0.00  0.00    +0.040 A 
ATOM     25  C   UNL     1       5.260   0.927   0.000  0.00  0.00    +0.103 A 
ATOM     26  N   UNL     1       4.453   0.756   0.000  0.00  0.00    -0.211 NA
BRANCH  23  27
ATOM     27  C   UNL     1       5.218   3.109   0.000  0.00  0.00    +0.018 A 
ATOM     28  C   UNL     1       4.665   3.723   0.000  0.00  0.00    +0.001 A 
ATOM     29  C   UNL     1       4.920   4.507   0.000  0.00  0.00    +0.000 A 
ATOM     30  C   UNL     1       5.727   4.679   0.000  0.00  0.00    +0.000 A 
ATOM     31  C   UNL     1       6.279   4.066   0.000  0.00  0.00    +0.000 A 
ATOM     32  C   UNL     1       6.024   3.281   0.000  0.00  0.00    +0.001 A 
BRANCH  30  33
ATOM     33  C   UNL     1       5.982   5.463   0.000  0.00  0.00    +0.000 A 
ATOM     34  C   UNL     1       5.430   6.076   0.000  0.00  0.00    +0.000 A 
ATOM     35  C   UNL     1       5.685   6.861   0.000  0.00  0.00    +0.000 A 
ATOM     36  C   UNL     1       6.492   7.032   0.000  0.00  0.00    +0.000 A 
ATOM     37  C   UNL     1       7.044   6.419   0.000  0.00  0.00    +0.000 A 
ATOM     38  C   UNL     1       6.789   5.635   0.000  0.00  0.00    +0.000 A 
ENDBRANCH  30  33
ENDBRANCH  23  27
ENDBRANCH  16  20
BRANCH  12  11
ATOM     11  N   UNL     1       1.015  -1.707   0.000  0.00  0.00    -0.078 NA
BRANCH  11   2
ATOM      1  O   UNL     1       0.379  -2.686   0.000  0.00  0.00    -0.156 OA
ATOM      2  S   UNL     1       0.208  -1.879   0.000  0.00  0.00    +0.062 S 
ATOM      3  O   UNL     1       0.036  -1.072   0.000  0.00  0.00    -0.156 OA
BRANCH   2   4
ATOM      4  C   UNL     1      -0.599  -2.050   0.000  0.00  0.00    +0.197 C 
BRANCH   4   5
ATOM      5  C   UNL     1      -0.854  -2.835   0.000  0.00  0.00    +0.003 A 
ATOM      6  C   UNL     1      -0.302  -3.448   0.000  0.00  0.00    -0.003 A 
ATOM      7  C   UNL     1      -0.557  -4.232   0.000  0.00  0.00    -0.000 A 
ATOM      8  C   UNL     1      -1.364  -4.404   0.000  0.00  0.00    -0.000 A 
ATOM      9  C   UNL     1      -1.916  -3.791   0.000  0.00  0.00    -0.000 A 
ATOM     10  C   UNL     1      -1.661  -3.006   0.000  0.00  0.00    -0.003 A 
ENDBRANCH   4   5
ENDBRANCH   2   4
ENDBRANCH  11   2
ENDBRANCH  12  11
TORSDOF 7
