MODEL 1
REMARK VINA RESULT:      10.1      0.000      0.000
REMARK  Name = 40586210
REMARK  7 active torsions:
REMARK  status: ('A' for Active; 'I' for Inactive)
REMARK    1  A    between atoms: N_4  and  C_11
REMARK    2  A    between atoms: N_5  and  C_12
REMARK    3  A    between atoms: N_8  and  C_31
REMARK    4  A    between atoms: N_8  and  C_32
REMARK    5  A    between atoms: N_8  and  C_33
REMARK    6  A    between atoms: C_15  and  C_16
REMARK    7  A    between atoms: C_23  and  C_26
REMARK                            x       y       z     vdW  Elec       q    Type
REMARK                         _______ _______ _______ _____ _____    ______ ____
ROOT
ATOM      1  O   UNL     1      -2.142   3.570  23.809  0.00  0.00    -0.370 OA
ATOM      2  O   UNL     1      -4.153   3.500  26.195  0.00  0.00    -0.370 OA
ATOM      9  C   UNL     1      -2.879   2.876  25.963  0.00  0.00    +0.171 C 
ATOM     10  C   UNL     1      -2.821   2.504  24.494  0.00  0.00    +0.171 C 
ATOM     11  C   UNL     1      -1.762   3.882  26.132  0.00  0.00    +0.130 C 
ATOM     12  C   UNL     1      -4.269   2.446  24.070  0.00  0.00    +0.130 C 
ATOM     13  C   UNL     1      -1.719   4.550  24.769  0.00  0.00    +0.185 C 
ATOM     14  C   UNL     1      -4.925   3.462  24.986  0.00  0.00    +0.185 C 
ENDROOT
BRANCH  12   5
ATOM      5  N   UNL     1      -4.806   1.126  24.321  0.00  0.00    -0.306 N 
ATOM      6  N   UNL     1      -2.714   0.134  24.129  0.00  0.00    -0.214 NA
ATOM      7  N   UNL     1      -4.683  -1.177  24.595  0.00  0.00    -0.223 NA
ATOM     22  C   UNL     1      -4.034  -0.022  24.348  0.00  0.00    +0.216 A 
ATOM     23  C   UNL     1      -1.993  -1.005  24.169  0.00  0.00    +0.076 A 
ATOM     24  C   UNL     1      -3.900  -2.275  24.619  0.00  0.00    +0.116 A 
ATOM     25  C   UNL     1      -2.537  -2.251  24.411  0.00  0.00    +0.048 A 
ATOM     35  H   UNL     1      -5.791   1.022  24.537  0.00  0.00    +0.149 HD
BRANCH  23  26
ATOM     26  C   UNL     1      -0.578  -0.842  23.936  0.00  0.00    +0.001 A 
ATOM     27  C   UNL     1      -0.125   0.140  23.054  0.00  0.00    +0.012 A 
ATOM     28  C   UNL     1       0.337  -1.665  24.593  0.00  0.00    +0.012 A 
ATOM     29  C   UNL     1       1.243   0.298  22.829  0.00  0.00    +0.024 A 
ATOM     30  C   UNL     1       1.704  -1.507  24.368  0.00  0.00    +0.024 A 
ATOM     31  C   UNL     1       2.158  -0.526  23.486  0.00  0.00    +0.029 A 
BRANCH  31   8
ATOM      8  N   UNL     1       3.540  -0.367  23.259  0.00  0.00    -0.336 N 
ATOM     32  C   UNL     1       4.035   0.772  22.509  0.00  0.00    +0.129 C 
ATOM     33  C   UNL     1       4.486  -1.335  23.777  0.00  0.00    +0.129 C 
ENDBRANCH  31   8
ENDBRANCH  23  26
ENDBRANCH  12   5
BRANCH  11   4
ATOM      3  O   UNL     1      -0.793   3.046  28.738  0.00  0.00    -0.276 OA
ATOM      4  N   UNL     1      -0.512   3.228  26.434  0.00  0.00    -0.307 N 
ATOM     16  C   UNL     1      -0.135   2.865  27.717  0.00  0.00    +0.216 C 
ATOM     34  H   UNL     1       0.084   2.968  25.653  0.00  0.00    +0.149 HD
BRANCH  16  15
ATOM     15  C   UNL     1       1.201   2.180  27.747  0.00  0.00    +0.075 C 
ATOM     17  C   UNL     1       2.335   3.176  27.500  0.00  0.00    +0.013 C 
ATOM     18  C   UNL     1       1.366   1.407  29.057  0.00  0.00    +0.013 C 
ATOM     19  C   UNL     1       2.651   4.051  28.712  0.00  0.00    +0.001 C 
ATOM     20  C   UNL     1       1.676   2.310  30.250  0.00  0.00    +0.001 C 
ATOM     21  C   UNL     1       2.867   3.221  29.972  0.00  0.00    +0.000 C 
ENDBRANCH  16  15
ENDBRANCH  11   4
TORSDOF 5
ENDMDL
MODEL 2
REMARK VINA RESULT:      10.9      1.953      3.018
REMARK  Name = 40586210
REMARK  7 active torsions:
REMARK  status: ('A' for Active; 'I' for Inactive)
REMARK    1  A    between atoms: N_4  and  C_11
REMARK    2  A    between atoms: N_5  and  C_12
REMARK    3  A    between atoms: N_8  and  C_31
REMARK    4  A    between atoms: N_8  and  C_32
REMARK    5  A    between atoms: N_8  and  C_33
REMARK    6  A    between atoms: C_15  and  C_16
REMARK    7  A    between atoms: C_23  and  C_26
REMARK                            x       y       z     vdW  Elec       q    Type
REMARK                         _______ _______ _______ _____ _____    ______ ____
ROOT
ATOM      1  O   UNL     1      -3.600   1.628  22.507  0.00  0.00    -0.370 OA
ATOM      2  O   UNL     1      -5.735   1.747  24.781  0.00  0.00    -0.370 OA
ATOM      9  C   UNL     1      -4.301   1.839  24.772  0.00  0.00    +0.171 C 
ATOM     10  C   UNL     1      -3.794   0.874  23.716  0.00  0.00    +0.171 C 
ATOM     11  C   UNL     1      -3.864   3.196  24.269  0.00  0.00    +0.130 C 
ATOM     12  C   UNL     1      -4.925  -0.112  23.545  0.00  0.00    +0.130 C 
ATOM     13  C   UNL     1      -3.893   3.010  22.762  0.00  0.00    +0.185 C 
ATOM     14  C   UNL     1      -6.149   0.727  23.861  0.00  0.00    +0.185 C 
ENDROOT
BRANCH  12   5
ATOM      5  N   UNL     1      -4.793  -1.187  24.504  0.00  0.00    -0.306 N 
ATOM      6  N   UNL     1      -2.480  -1.222  24.291  0.00  0.00    -0.214 NA
ATOM      7  N   UNL     1      -3.623  -2.736  25.779  0.00  0.00    -0.223 NA
ATOM     22  C   UNL     1      -3.579  -1.740  24.873  0.00  0.00    +0.216 A 
ATOM     23  C   UNL     1      -1.315  -1.781  24.679  0.00  0.00    +0.076 A 
ATOM     24  C   UNL     1      -2.422  -3.249  26.119  0.00  0.00    +0.116 A 
ATOM     25  C   UNL     1      -1.224  -2.808  25.597  0.00  0.00    +0.048 A 
ATOM     35  H   UNL     1      -5.619  -1.536  24.977  0.00  0.00    +0.149 HD
BRANCH  23  26
ATOM     26  C   UNL     1      -0.135  -1.229  24.059  0.00  0.00    +0.001 A 
ATOM     27  C   UNL     1       1.128  -1.527  24.573  0.00  0.00    +0.012 A 
ATOM     28  C   UNL     1      -0.255  -0.400  22.944  0.00  0.00    +0.012 A 
ATOM     29  C   UNL     1       2.269  -0.994  23.973  0.00  0.00    +0.024 A 
ATOM     30  C   UNL     1       0.886   0.132  22.344  0.00  0.00    +0.024 A 
ATOM     31  C   UNL     1       2.148  -0.164  22.859  0.00  0.00    +0.029 A 
BRANCH  31   8
ATOM      8  N   UNL     1       3.301   0.375  22.252  0.00  0.00    -0.336 N 
ATOM     32  C   UNL     1       4.416   0.824  23.064  0.00  0.00    +0.129 C 
ATOM     33  C   UNL     1       3.391   0.482  20.810  0.00  0.00    +0.129 C 
ENDBRANCH  31   8
ENDBRANCH  23  26
ENDBRANCH  12   5
BRANCH  11   4
ATOM      3  O   UNL     1      -3.097   4.175  26.893  0.00  0.00    -0.276 OA
ATOM      4  N   UNL     1      -2.536   3.522  24.730  0.00  0.00    -0.307 N 
ATOM     16  C   UNL     1      -2.267   3.984  26.009  0.00  0.00    +0.216 C 
ATOM     34  H   UNL     1      -1.760   3.337  24.100  0.00  0.00    +0.149 HD
BRANCH  16  15
ATOM     15  C   UNL     1      -0.802   4.222  26.233  0.00  0.00    +0.075 C 
ATOM     17  C   UNL     1      -0.106   2.948  26.719  0.00  0.00    +0.013 C 
ATOM     18  C   UNL     1      -0.163   4.799  24.968  0.00  0.00    +0.013 C 
ATOM     19  C   UNL     1       0.132   1.925  25.609  0.00  0.00    +0.001 C 
ATOM     20  C   UNL     1       0.058   3.752  23.877  0.00  0.00    +0.001 C 
ATOM     21  C   UNL     1       0.827   2.545  24.403  0.00  0.00    +0.000 C 
ENDBRANCH  16  15
ENDBRANCH  11   4
TORSDOF 5
ENDMDL
MODEL 3
REMARK VINA RESULT:      11.3      2.128      5.727
REMARK  Name = 40586210
REMARK  7 active torsions:
REMARK  status: ('A' for Active; 'I' for Inactive)
REMARK    1  A    between atoms: N_4  and  C_11
REMARK    2  A    between atoms: N_5  and  C_12
REMARK    3  A    between atoms: N_8  and  C_31
REMARK    4  A    between atoms: N_8  and  C_32
REMARK    5  A    between atoms: N_8  and  C_33
REMARK    6  A    between atoms: C_15  and  C_16
REMARK    7  A    between atoms: C_23  and  C_26
REMARK                            x       y       z     vdW  Elec       q    Type
REMARK                         _______ _______ _______ _____ _____    ______ ____
ROOT
ATOM      1  O   UNL     1      -2.385  -1.515  25.918  0.00  0.00    -0.370 OA
ATOM      2  O   UNL     1      -3.203  -1.334  22.911  0.00  0.00    -0.370 OA
ATOM      9  C   UNL     1      -2.196  -0.676  23.698  0.00  0.00    +0.171 C 
ATOM     10  C   UNL     1      -2.791  -0.426  25.072  0.00  0.00    +0.171 C 
ATOM     11  C   UNL     1      -1.040  -1.614  23.964  0.00  0.00    +0.130 C 
ATOM     12  C   UNL     1      -4.282  -0.467  24.842  0.00  0.00    +0.130 C 
ATOM     13  C   UNL     1      -1.524  -2.391  25.175  0.00  0.00    +0.185 C 
ATOM     14  C   UNL     1      -4.413  -1.432  23.677  0.00  0.00    +0.185 C 
ENDROOT
BRANCH  12   5
ATOM      5  N   UNL     1      -4.762   0.843  24.462  0.00  0.00    -0.306 N 
ATOM      6  N   UNL     1      -3.020   1.907  25.571  0.00  0.00    -0.214 NA
ATOM      7  N   UNL     1      -4.706   3.164  24.393  0.00  0.00    -0.223 NA
ATOM     22  C   UNL     1      -4.136   2.023  24.826  0.00  0.00    +0.216 A 
ATOM     23  C   UNL     1      -2.434   3.076  25.902  0.00  0.00    +0.076 A 
ATOM     24  C   UNL     1      -4.068   4.294  24.762  0.00  0.00    +0.116 A 
ATOM     25  C   UNL     1      -2.918   4.312  25.523  0.00  0.00    +0.048 A 
ATOM     35  H   UNL     1      -5.571   0.922  23.857  0.00  0.00    +0.149 HD
BRANCH  23  26
ATOM     26  C   UNL     1      -1.237   2.957  26.700  0.00  0.00    +0.001 A 
ATOM     27  C   UNL     1      -1.312   3.062  28.089  0.00  0.00    +0.012 A 
ATOM     28  C   UNL     1      -0.006   2.735  26.083  0.00  0.00    +0.012 A 
ATOM     29  C   UNL     1      -0.155   2.946  28.861  0.00  0.00    +0.024 A 
ATOM     30  C   UNL     1       1.150   2.618  26.854  0.00  0.00    +0.024 A 
ATOM     31  C   UNL     1       1.076   2.725  28.243  0.00  0.00    +0.029 A 
BRANCH  31   8
ATOM      8  N   UNL     1       2.245   2.607  29.023  0.00  0.00    -0.336 N 
ATOM     32  C   UNL     1       3.475   3.251  28.603  0.00  0.00    +0.129 C 
ATOM     33  C   UNL     1       2.232   1.849  30.257  0.00  0.00    +0.129 C 
ENDBRANCH  31   8
ENDBRANCH  23  26
ENDBRANCH  12   5
BRANCH  11   4
ATOM      3  O   UNL     1       0.786  -0.384  22.072  0.00  0.00    -0.276 OA
ATOM      4  N   UNL     1       0.168  -0.883  24.260  0.00  0.00    -0.307 N 
ATOM     16  C   UNL     1       0.980  -0.328  23.283  0.00  0.00    +0.216 C 
ATOM     34  H   UNL     1       0.390  -0.716  25.238  0.00  0.00    +0.149 HD
BRANCH  16  15
ATOM     15  C   UNL     1       2.158   0.399  23.865  0.00  0.00    +0.075 C 
ATOM     17  C   UNL     1       3.216  -0.585  24.368  0.00  0.00    +0.013 C 
ATOM     18  C   UNL     1       2.714   1.398  22.848  0.00  0.00    +0.013 C 
ATOM     19  C   UNL     1       4.039  -1.218  23.247  0.00  0.00    +0.001 C 
ATOM     20  C   UNL     1       3.527   0.733  21.738  0.00  0.00    +0.001 C 
ATOM     21  C   UNL     1       4.618  -0.170  22.304  0.00  0.00    +0.000 C 
ENDBRANCH  16  15
ENDBRANCH  11   4
TORSDOF 5
ENDMDL
MODEL 4
REMARK VINA RESULT:      13.2      1.488      1.986
REMARK  Name = 40586210
REMARK  7 active torsions:
REMARK  status: ('A' for Active; 'I' for Inactive)
REMARK    1  A    between atoms: N_4  and  C_11
REMARK    2  A    between atoms: N_5  and  C_12
REMARK    3  A    between atoms: N_8  and  C_31
REMARK    4  A    between atoms: N_8  and  C_32
REMARK    5  A    between atoms: N_8  and  C_33
REMARK    6  A    between atoms: C_15  and  C_16
REMARK    7  A    between atoms: C_23  and  C_26
REMARK                            x       y       z     vdW  Elec       q    Type
REMARK                         _______ _______ _______ _____ _____    ______ ____
ROOT
ATOM      1  O   UNL     1      -3.659   3.070  23.510  0.00  0.00    -0.370 OA
ATOM      2  O   UNL     1      -5.394   2.606  26.063  0.00  0.00    -0.370 OA
ATOM      9  C   UNL     1      -4.036   2.280  25.723  0.00  0.00    +0.171 C 
ATOM     10  C   UNL     1      -4.018   1.895  24.256  0.00  0.00    +0.171 C 
ATOM     11  C   UNL     1      -3.167   3.515  25.789  0.00  0.00    +0.130 C 
ATOM     12  C   UNL     1      -5.446   1.501  23.961  0.00  0.00    +0.130 C 
ATOM     13  C   UNL     1      -3.390   4.143  24.425  0.00  0.00    +0.185 C 
ATOM     14  C   UNL     1      -6.236   2.365  24.926  0.00  0.00    +0.185 C 
ENDROOT
BRANCH  12   5
ATOM      5  N   UNL     1      -5.647   0.101  24.264  0.00  0.00    -0.306 N 
ATOM      6  N   UNL     1      -3.385  -0.374  24.025  0.00  0.00    -0.214 NA
ATOM      7  N   UNL     1      -4.972  -2.097  24.592  0.00  0.00    -0.223 NA
ATOM     22  C   UNL     1      -4.623  -0.831  24.294  0.00  0.00    +0.216 A 
ATOM     23  C   UNL     1      -2.412  -1.308  24.069  0.00  0.00    +0.076 A 
ATOM     24  C   UNL     1      -3.950  -2.977  24.617  0.00  0.00    +0.116 A 
ATOM     25  C   UNL     1      -2.638  -2.638  24.361  0.00  0.00    +0.048 A 
ATOM     35  H   UNL     1      -6.572  -0.226  24.517  0.00  0.00    +0.149 HD
BRANCH  23  26
ATOM     26  C   UNL     1      -1.084  -0.822  23.782  0.00  0.00    +0.001 A 
ATOM     27  C   UNL     1      -0.913   0.398  23.128  0.00  0.00    +0.012 A 
ATOM     28  C   UNL     1       0.030  -1.572  24.161  0.00  0.00    +0.012 A 
ATOM     29  C   UNL     1       0.371   0.868  22.852  0.00  0.00    +0.024 A 
ATOM     30  C   UNL     1       1.313  -1.102  23.885  0.00  0.00    +0.024 A 
ATOM     31  C   UNL     1       1.484   0.118  23.230  0.00  0.00    +0.029 A 
BRANCH  31   8
ATOM      8  N   UNL     1       2.783   0.592  22.951  0.00  0.00    -0.336 N 
ATOM     32  C   UNL     1       3.902  -0.327  22.888  0.00  0.00    +0.129 C 
ATOM     33  C   UNL     1       3.014   2.003  22.716  0.00  0.00    +0.129 C 
ENDBRANCH  31   8
ENDBRANCH  23  26
ENDBRANCH  12   5
BRANCH  11   4
ATOM      3  O   UNL     1      -0.835   5.088  25.067  0.00  0.00    -0.276 OA
ATOM      4  N   UNL     1      -1.780   3.168  25.984  0.00  0.00    -0.307 N 
ATOM     16  C   UNL     1      -0.730   3.989  25.605  0.00  0.00    +0.216 C 
ATOM     34  H   UNL     1      -1.576   2.307  26.484  0.00  0.00    +0.149 HD
BRANCH  16  15
ATOM     15  C   UNL     1       0.608   3.399  25.946  0.00  0.00    +0.075 C 
ATOM     17  C   UNL     1       0.982   3.687  27.401  0.00  0.00    +0.013 C 
ATOM     18  C   UNL     1       0.623   1.905  25.615  0.00  0.00    +0.013 C 
ATOM     19  C   UNL     1       0.233   2.812  28.405  0.00  0.00    +0.001 C 
ATOM     20  C   UNL     1      -0.137   1.059  26.635  0.00  0.00    +0.001 C 
ATOM     21  C   UNL     1       0.337   1.332  28.058  0.00  0.00    +0.000 C 
ENDBRANCH  16  15
ENDBRANCH  11   4
TORSDOF 5
ENDMDL
MODEL 5
REMARK VINA RESULT:      13.2      2.871      5.920
REMARK  Name = 40586210
REMARK  7 active torsions:
REMARK  status: ('A' for Active; 'I' for Inactive)
REMARK    1  A    between atoms: N_4  and  C_11
REMARK    2  A    between atoms: N_5  and  C_12
REMARK    3  A    between atoms: N_8  and  C_31
REMARK    4  A    between atoms: N_8  and  C_32
REMARK    5  A    between atoms: N_8  and  C_33
REMARK    6  A    between atoms: C_15  and  C_16
REMARK    7  A    between atoms: C_23  and  C_26
REMARK                            x       y       z     vdW  Elec       q    Type
REMARK                         _______ _______ _______ _____ _____    ______ ____
ROOT
ATOM      1  O   UNL     1      -4.833   2.328  26.844  0.00  0.00    -0.370 OA
ATOM      2  O   UNL     1      -5.924   4.289  24.675  0.00  0.00    -0.370 OA
ATOM      9  C   UNL     1      -4.940   3.242  24.649  0.00  0.00    +0.171 C 
ATOM     10  C   UNL     1      -4.203   3.283  25.975  0.00  0.00    +0.171 C 
ATOM     11  C   UNL     1      -5.613   1.888  24.646  0.00  0.00    +0.130 C 
ATOM     12  C   UNL     1      -4.434   4.687  26.482  0.00  0.00    +0.130 C 
ATOM     13  C   UNL     1      -5.873   1.650  26.122  0.00  0.00    +0.185 C 
ATOM     14  C   UNL     1      -5.790   5.034  25.894  0.00  0.00    +0.185 C 
ENDROOT
BRANCH  12   5
ATOM      5  N   UNL     1      -3.420   5.576  25.959  0.00  0.00    -0.306 N 
ATOM      6  N   UNL     1      -2.034   3.805  25.373  0.00  0.00    -0.214 NA
ATOM      7  N   UNL     1      -1.384   6.091  24.967  0.00  0.00    -0.223 NA
ATOM     22  C   UNL     1      -2.227   5.138  25.410  0.00  0.00    +0.216 A 
ATOM     23  C   UNL     1      -0.864   3.415  24.827  0.00  0.00    +0.076 A 
ATOM     24  C   UNL     1      -0.234   5.629  24.434  0.00  0.00    +0.116 A 
ATOM     25  C   UNL     1       0.084   4.290  24.336  0.00  0.00    +0.048 A 
ATOM     35  H   UNL     1      -3.593   6.574  25.941  0.00  0.00    +0.149 HD
BRANCH  23  26
ATOM     26  C   UNL     1      -0.654   1.988  24.784  0.00  0.00    +0.001 A 
ATOM     27  C   UNL     1      -0.945   1.206  25.903  0.00  0.00    +0.012 A 
ATOM     28  C   UNL     1      -0.162   1.389  23.624  0.00  0.00    +0.012 A 
ATOM     29  C   UNL     1      -0.742  -0.174  25.862  0.00  0.00    +0.024 A 
ATOM     30  C   UNL     1       0.039   0.010  23.584  0.00  0.00    +0.024 A 
ATOM     31  C   UNL     1      -0.250  -0.772  24.702  0.00  0.00    +0.029 A 
BRANCH  31   8
ATOM      8  N   UNL     1      -0.045  -2.166  24.660  0.00  0.00    -0.336 N 
ATOM     32  C   UNL     1       0.674  -2.835  25.727  0.00  0.00    +0.129 C 
ATOM     33  C   UNL     1      -0.557  -2.951  23.555  0.00  0.00    +0.129 C 
ENDBRANCH  31   8
ENDBRANCH  23  26
ENDBRANCH  12   5
BRANCH  11   4
ATOM      3  O   UNL     1      -4.407  -0.350  26.049  0.00  0.00    -0.276 OA
ATOM      4  N   UNL     1      -4.745   0.875  24.098  0.00  0.00    -0.307 N 
ATOM     16  C   UNL     1      -4.215  -0.162  24.850  0.00  0.00    +0.216 C 
ATOM     34  H   UNL     1      -4.572   0.894  23.096  0.00  0.00    +0.149 HD
BRANCH  16  15
ATOM     15  C   UNL     1      -3.366  -1.088  24.029  0.00  0.00    +0.075 C 
ATOM     17  C   UNL     1      -2.699  -2.147  24.909  0.00  0.00    +0.013 C 
ATOM     18  C   UNL     1      -4.195  -1.695  22.896  0.00  0.00    +0.013 C 
ATOM     19  C   UNL     1      -3.652  -3.258  25.349  0.00  0.00    +0.001 C 
ATOM     20  C   UNL     1      -5.139  -2.798  23.369  0.00  0.00    +0.001 C 
ATOM     21  C   UNL     1      -4.401  -3.866  24.170  0.00  0.00    +0.000 C 
ENDBRANCH  16  15
ENDBRANCH  11   4
TORSDOF 5
ENDMDL
