MODEL 1
REMARK VINA RESULT:      -2.4      0.000      0.000
REMARK  Name = 40780152
REMARK  6 active torsions:
REMARK  status: ('A' for Active; 'I' for Inactive)
REMARK    1  A    between atoms: N_4  and  C_14
REMARK    2  A    between atoms: C_8  and  C_14
REMARK    3  A    between atoms: C_9  and  C_15
REMARK    4  A    between atoms: C_16  and  C_19
REMARK    5  A    between atoms: C_21  and  C_23
REMARK    6  A    between atoms: C_22  and  C_24
REMARK                            x       y       z     vdW  Elec       q    Type
REMARK                         _______ _______ _______ _____ _____    ______ ____
ROOT
ATOM      3  N   UNL     1      -2.784  -2.287  23.731  0.00  0.00    -0.297 NA
ATOM      7  C   UNL     1      -2.817  -1.240  26.116  0.00  0.00    +0.002 C 
ATOM      8  C   UNL     1      -1.408  -1.890  24.131  0.00  0.00    +0.074 C 
ATOM      9  C   UNL     1      -3.900  -0.581  25.218  0.00  0.00    +0.055 C 
ATOM     10  C   UNL     1      -1.436  -1.083  25.447  0.00  0.00    +0.024 C 
ATOM     11  C   UNL     1      -3.132  -2.751  26.157  0.00  0.00    +0.019 C 
ATOM     12  C   UNL     1      -3.686  -1.108  23.769  0.00  0.00    +0.094 C 
ATOM     13  C   UNL     1      -3.276  -3.278  24.719  0.00  0.00    +0.085 C 
ENDROOT
BRANCH   9  15
ATOM      5  N   UNL     1      -5.285   1.413  25.511  0.00  0.00    -0.237 NA
ATOM      6  N   UNL     1      -4.377   3.640  25.361  0.00  0.00    -0.232 NA
ATOM     15  C   UNL     1      -4.049   0.933  25.265  0.00  0.00    +0.050 A 
ATOM     20  C   UNL     1      -2.942   1.732  25.060  0.00  0.00    +0.052 A 
ATOM     21  C   UNL     1      -3.168   3.092  25.121  0.00  0.00    +0.081 A 
ATOM     22  C   UNL     1      -5.377   2.757  25.544  0.00  0.00    +0.127 A 
ATOM     24  C   UNL     1      -6.728   3.326  25.814  0.00  0.00    +0.088 C 
BRANCH  21  23
ATOM      1  S   UNL     1      -0.599   3.483  24.324  0.00  0.00    -0.095 S 
ATOM     23  C   UNL     1      -2.104   4.039  24.924  0.00  0.00    +0.038 A 
ATOM     25  C   UNL     1      -2.098   5.398  25.154  0.00  0.00    +0.017 A 
ATOM     26  C   UNL     1      -0.843   5.990  24.834  0.00  0.00    +0.008 A 
ATOM     27  C   UNL     1       0.063   5.062  24.369  0.00  0.00    +0.046 A 
ENDBRANCH  21  23
ENDBRANCH   9  15
BRANCH   8  14
ATOM     14  C   UNL     1      -0.671  -1.142  23.018  0.00  0.00    +0.123 C 
BRANCH  14   4
ATOM      2  O   UNL     1       1.628  -0.276  21.464  0.00  0.00    -0.276 OA
ATOM      4  N   UNL     1       0.546  -0.571  23.507  0.00  0.00    -0.314 N 
ATOM     19  C   UNL     1       1.599  -0.184  22.685  0.00  0.00    +0.216 C 
ATOM     28  H   UNL     1       0.636  -0.440  24.510  0.00  0.00    +0.149 HD
BRANCH  19  16
ATOM     16  C   UNL     1       2.771   0.389  23.410  0.00  0.00    +0.075 C 
ATOM     17  C   UNL     1       4.078  -0.345  23.380  0.00  0.00    +0.013 C 
ATOM     18  C   UNL     1       3.922   0.937  22.618  0.00  0.00    +0.013 C 
ENDBRANCH  19  16
ENDBRANCH  14   4
ENDBRANCH   8  14
TORSDOF 5
ENDMDL
MODEL 2
REMARK VINA RESULT:      -2.0      2.299      5.151
REMARK  Name = 40780152
REMARK  6 active torsions:
REMARK  status: ('A' for Active; 'I' for Inactive)
REMARK    1  A    between atoms: N_4  and  C_14
REMARK    2  A    between atoms: C_8  and  C_14
REMARK    3  A    between atoms: C_9  and  C_15
REMARK    4  A    between atoms: C_16  and  C_19
REMARK    5  A    between atoms: C_21  and  C_23
REMARK    6  A    between atoms: C_22  and  C_24
REMARK                            x       y       z     vdW  Elec       q    Type
REMARK                         _______ _______ _______ _____ _____    ______ ____
ROOT
ATOM      3  N   UNL     1      -3.489  -1.825  26.005  0.00  0.00    -0.297 NA
ATOM      7  C   UNL     1      -2.257  -2.046  23.720  0.00  0.00    +0.002 C 
ATOM      8  C   UNL     1      -4.320  -1.240  24.920  0.00  0.00    +0.074 C 
ATOM      9  C   UNL     1      -1.312  -1.433  24.791  0.00  0.00    +0.055 C 
ATOM     10  C   UNL     1      -3.524  -1.173  23.599  0.00  0.00    +0.024 C 
ATOM     11  C   UNL     1      -2.703  -3.423  24.258  0.00  0.00    +0.019 C 
ATOM     12  C   UNL     1      -2.170  -1.147  26.058  0.00  0.00    +0.094 C 
ATOM     13  C   UNL     1      -3.261  -3.255  25.682  0.00  0.00    +0.085 C 
ENDROOT
BRANCH   9  15
ATOM      5  N   UNL     1       0.723  -0.513  23.794  0.00  0.00    -0.237 NA
ATOM      6  N   UNL     1       1.129   1.858  23.659  0.00  0.00    -0.232 NA
ATOM     15  C   UNL     1      -0.454  -0.240  24.394  0.00  0.00    +0.050 A 
ATOM     20  C   UNL     1      -0.903   1.038  24.656  0.00  0.00    +0.052 A 
ATOM     21  C   UNL     1      -0.062   2.059  24.262  0.00  0.00    +0.081 A 
ATOM     22  C   UNL     1       1.454   0.567  23.458  0.00  0.00    +0.127 A 
ATOM     24  C   UNL     1       2.762   0.306  22.792  0.00  0.00    +0.088 C 
BRANCH  21  23
ATOM      1  S   UNL     1      -1.496   3.837  25.734  0.00  0.00    -0.095 S 
ATOM     23  C   UNL     1      -0.405   3.439  24.476  0.00  0.00    +0.038 A 
ATOM     25  C   UNL     1       0.026   4.556  23.793  0.00  0.00    +0.017 A 
ATOM     26  C   UNL     1      -0.547   5.754  24.310  0.00  0.00    +0.008 A 
ATOM     27  C   UNL     1      -1.393   5.507  25.369  0.00  0.00    +0.046 A 
ENDBRANCH  21  23
ENDBRANCH   9  15
BRANCH   8  14
ATOM     14  C   UNL     1      -4.903   0.122  25.304  0.00  0.00    +0.123 C 
BRANCH  14   4
ATOM      2  O   UNL     1      -5.652   2.930  25.251  0.00  0.00    -0.276 OA
ATOM      4  N   UNL     1      -4.310   1.167  24.530  0.00  0.00    -0.314 N 
ATOM     19  C   UNL     1      -4.735   2.490  24.568  0.00  0.00    +0.216 C 
ATOM     28  H   UNL     1      -3.530   0.923  23.925  0.00  0.00    +0.149 HD
BRANCH  19  16
ATOM     16  C   UNL     1      -3.970   3.413  23.679  0.00  0.00    +0.075 C 
ATOM     17  C   UNL     1      -3.128   2.838  22.579  0.00  0.00    +0.013 C 
ATOM     18  C   UNL     1      -4.395   3.569  22.248  0.00  0.00    +0.013 C 
ENDBRANCH  19  16
ENDBRANCH  14   4
ENDBRANCH   8  14
TORSDOF 5
ENDMDL
MODEL 3
REMARK VINA RESULT:      -1.8      2.327      6.428
REMARK  Name = 40780152
REMARK  6 active torsions:
REMARK  status: ('A' for Active; 'I' for Inactive)
REMARK    1  A    between atoms: N_4  and  C_14
REMARK    2  A    between atoms: C_8  and  C_14
REMARK    3  A    between atoms: C_9  and  C_15
REMARK    4  A    between atoms: C_16  and  C_19
REMARK    5  A    between atoms: C_21  and  C_23
REMARK    6  A    between atoms: C_22  and  C_24
REMARK                            x       y       z     vdW  Elec       q    Type
REMARK                         _______ _______ _______ _____ _____    ______ ____
ROOT
ATOM      3  N   UNL     1      -3.965   3.248  23.976  0.00  0.00    -0.297 NA
ATOM      7  C   UNL     1      -1.628   3.602  25.071  0.00  0.00    +0.002 C 
ATOM      8  C   UNL     1      -4.041   2.977  25.436  0.00  0.00    +0.074 C 
ATOM      9  C   UNL     1      -1.510   2.689  23.820  0.00  0.00    +0.055 C 
ATOM     10  C   UNL     1      -2.630   2.979  26.064  0.00  0.00    +0.024 C 
ATOM     11  C   UNL     1      -2.236   4.938  24.590  0.00  0.00    +0.019 C 
ATOM     12  C   UNL     1      -2.955   2.361  23.346  0.00  0.00    +0.094 C 
ATOM     13  C   UNL     1      -3.523   4.652  23.797  0.00  0.00    +0.085 C 
ENDROOT
BRANCH   9  15
ATOM      5  N   UNL     1      -1.239   0.317  24.352  0.00  0.00    -0.237 NA
ATOM      6  N   UNL     1       0.872  -0.820  24.116  0.00  0.00    -0.232 NA
ATOM     15  C   UNL     1      -0.639   1.444  23.918  0.00  0.00    +0.050 A 
ATOM     20  C   UNL     1       0.694   1.517  23.569  0.00  0.00    +0.052 A 
ATOM     21  C   UNL     1       1.409   0.343  23.688  0.00  0.00    +0.081 A 
ATOM     22  C   UNL     1      -0.436  -0.762  24.427  0.00  0.00    +0.127 A 
ATOM     24  C   UNL     1      -1.064  -2.029  24.901  0.00  0.00    +0.088 C 
BRANCH  21  23
ATOM      1  S   UNL     1       3.690  -1.131  23.771  0.00  0.00    -0.095 S 
ATOM     23  C   UNL     1       2.807   0.278  23.359  0.00  0.00    +0.038 A 
ATOM     25  C   UNL     1       3.596   1.217  22.731  0.00  0.00    +0.017 A 
ATOM     26  C   UNL     1       4.943   0.775  22.587  0.00  0.00    +0.008 A 
ATOM     27  C   UNL     1       5.131  -0.486  23.108  0.00  0.00    +0.046 A 
ENDBRANCH  21  23
ENDBRANCH   9  15
BRANCH   8  14
ATOM     14  C   UNL     1      -4.803   1.688  25.751  0.00  0.00    +0.123 C 
BRANCH  14   4
ATOM      2  O   UNL     1      -3.951  -1.065  26.136  0.00  0.00    -0.276 OA
ATOM      4  N   UNL     1      -4.571   0.699  24.745  0.00  0.00    -0.314 N 
ATOM     19  C   UNL     1      -4.163  -0.601  25.022  0.00  0.00    +0.216 C 
ATOM     28  H   UNL     1      -4.720   0.967  23.776  0.00  0.00    +0.149 HD
BRANCH  19  16
ATOM     16  C   UNL     1      -3.983  -1.464  23.818  0.00  0.00    +0.075 C 
ATOM     17  C   UNL     1      -3.622  -2.908  24.001  0.00  0.00    +0.013 C 
ATOM     18  C   UNL     1      -4.995  -2.533  23.528  0.00  0.00    +0.013 C 
ENDBRANCH  19  16
ENDBRANCH  14   4
ENDBRANCH   8  14
TORSDOF 5
ENDMDL
MODEL 4
REMARK VINA RESULT:      -1.8      2.022      5.073
REMARK  Name = 40780152
REMARK  6 active torsions:
REMARK  status: ('A' for Active; 'I' for Inactive)
REMARK    1  A    between atoms: N_4  and  C_14
REMARK    2  A    between atoms: C_8  and  C_14
REMARK    3  A    between atoms: C_9  and  C_15
REMARK    4  A    between atoms: C_16  and  C_19
REMARK    5  A    between atoms: C_21  and  C_23
REMARK    6  A    between atoms: C_22  and  C_24
REMARK                            x       y       z     vdW  Elec       q    Type
REMARK                         _______ _______ _______ _____ _____    ______ ____
ROOT
ATOM      3  N   UNL     1       0.368   3.083  25.551  0.00  0.00    -0.297 NA
ATOM      7  C   UNL     1      -1.680   4.037  24.256  0.00  0.00    +0.002 C 
ATOM      8  C   UNL     1       0.501   2.786  24.101  0.00  0.00    +0.074 C 
ATOM      9  C   UNL     1      -2.150   3.202  25.478  0.00  0.00    +0.055 C 
ATOM     10  C   UNL     1      -0.795   3.157  23.348  0.00  0.00    +0.024 C 
ATOM     11  C   UNL     1      -0.784   5.167  24.807  0.00  0.00    +0.019 C 
ATOM     12  C   UNL     1      -0.894   2.505  26.076  0.00  0.00    +0.094 C 
ATOM     13  C   UNL     1       0.304   4.557  25.709  0.00  0.00    +0.085 C 
ENDROOT
BRANCH   9  15
ATOM      5  N   UNL     1      -4.552   2.744  25.408  0.00  0.00    -0.237 NA
ATOM      6  N   UNL     1      -5.427   0.546  24.948  0.00  0.00    -0.232 NA
ATOM     15  C   UNL     1      -3.309   2.234  25.285  0.00  0.00    +0.050 A 
ATOM     20  C   UNL     1      -3.049   0.909  24.998  0.00  0.00    +0.052 A 
ATOM     21  C   UNL     1      -4.157   0.103  24.838  0.00  0.00    +0.081 A 
ATOM     22  C   UNL     1      -5.551   1.857  25.230  0.00  0.00    +0.127 A 
ATOM     24  C   UNL     1      -6.939   2.383  25.357  0.00  0.00    +0.088 C 
BRANCH  21  23
ATOM      1  S   UNL     1      -2.975  -2.256  25.487  0.00  0.00    -0.095 S 
ATOM     23  C   UNL     1      -4.031  -1.297  24.538  0.00  0.00    +0.038 A 
ATOM     25  C   UNL     1      -4.656  -2.035  23.556  0.00  0.00    +0.017 A 
ATOM     26  C   UNL     1      -4.263  -3.404  23.583  0.00  0.00    +0.008 A 
ATOM     27  C   UNL     1      -3.354  -3.662  24.585  0.00  0.00    +0.046 A 
ENDBRANCH  21  23
ENDBRANCH   9  15
BRANCH   8  14
ATOM     14  C   UNL     1       0.917   1.337  23.838  0.00  0.00    +0.123 C 
BRANCH  14   4
ATOM      2  O   UNL     1       2.314  -0.219  21.818  0.00  0.00    -0.276 OA
ATOM      4  N   UNL     1       2.329   1.239  23.636  0.00  0.00    -0.314 N 
ATOM     19  C   UNL     1       2.913   0.467  22.639  0.00  0.00    +0.216 C 
ATOM     28  H   UNL     1       2.933   1.772  24.256  0.00  0.00    +0.149 HD
BRANCH  19  16
ATOM     16  C   UNL     1       4.404   0.515  22.611  0.00  0.00    +0.075 C 
ATOM     17  C   UNL     1       5.148   0.858  23.867  0.00  0.00    +0.013 C 
ATOM     18  C   UNL     1       5.183  -0.544  23.335  0.00  0.00    +0.013 C 
ENDBRANCH  19  16
ENDBRANCH  14   4
ENDBRANCH   8  14
TORSDOF 5
ENDMDL
MODEL 5
REMARK VINA RESULT:      -1.2      2.438      5.668
REMARK  Name = 40780152
REMARK  6 active torsions:
REMARK  status: ('A' for Active; 'I' for Inactive)
REMARK    1  A    between atoms: N_4  and  C_14
REMARK    2  A    between atoms: C_8  and  C_14
REMARK    3  A    between atoms: C_9  and  C_15
REMARK    4  A    between atoms: C_16  and  C_19
REMARK    5  A    between atoms: C_21  and  C_23
REMARK    6  A    between atoms: C_22  and  C_24
REMARK                            x       y       z     vdW  Elec       q    Type
REMARK                         _______ _______ _______ _____ _____    ______ ____
ROOT
ATOM      3  N   UNL     1      -5.097   2.918  23.920  0.00  0.00    -0.297 NA
ATOM      7  C   UNL     1      -3.888   3.491  26.154  0.00  0.00    +0.002 C 
ATOM      8  C   UNL     1      -5.416   1.892  24.948  0.00  0.00    +0.074 C 
ATOM      9  C   UNL     1      -2.888   3.538  24.966  0.00  0.00    +0.055 C 
ATOM     10  C   UNL     1      -4.549   2.098  26.209  0.00  0.00    +0.024 C 
ATOM     11  C   UNL     1      -5.003   4.511  25.837  0.00  0.00    +0.019 C 
ATOM     12  C   UNL     1      -3.630   2.993  23.712  0.00  0.00    +0.094 C 
ATOM     13  C   UNL     1      -5.560   4.232  24.431  0.00  0.00    +0.085 C 
ENDROOT
BRANCH   9  15
ATOM      5  N   UNL     1      -0.930   3.063  26.354  0.00  0.00    -0.237 NA
ATOM      6  N   UNL     1       0.933   1.767  25.545  0.00  0.00    -0.232 NA
ATOM     15  C   UNL     1      -1.520   2.896  25.152  0.00  0.00    +0.050 A 
ATOM     20  C   UNL     1      -0.955   2.186  24.112  0.00  0.00    +0.052 A 
ATOM     21  C   UNL     1       0.286   1.638  24.368  0.00  0.00    +0.081 A 
ATOM     22  C   UNL     1       0.279   2.481  26.479  0.00  0.00    +0.127 A 
ATOM     24  C   UNL     1       0.963   2.643  27.794  0.00  0.00    +0.088 C 
BRANCH  21  23
ATOM      1  S   UNL     1       2.671   1.130  23.169  0.00  0.00    -0.095 S 
ATOM     23  C   UNL     1       0.989   0.876  23.372  0.00  0.00    +0.038 A 
ATOM     25  C   UNL     1       0.503  -0.079  22.506  0.00  0.00    +0.017 A 
ATOM     26  C   UNL     1       1.524  -0.609  21.665  0.00  0.00    +0.008 A 
ATOM     27  C   UNL     1       2.752  -0.040  21.921  0.00  0.00    +0.046 A 
ENDBRANCH  21  23
ENDBRANCH   9  15
BRANCH   8  14
ATOM     14  C   UNL     1      -5.301   0.467  24.403  0.00  0.00    +0.123 C 
BRANCH  14   4
ATOM      2  O   UNL     1      -4.302  -2.184  23.751  0.00  0.00    -0.276 OA
ATOM      4  N   UNL     1      -4.202  -0.222  25.004  0.00  0.00    -0.314 N 
ATOM     19  C   UNL     1      -3.792  -1.496  24.627  0.00  0.00    +0.216 C 
ATOM     28  H   UNL     1      -3.694   0.254  25.744  0.00  0.00    +0.149 HD
BRANCH  19  16
ATOM     16  C   UNL     1      -2.621  -2.021  25.388  0.00  0.00    +0.075 C 
ATOM     17  C   UNL     1      -1.372  -2.391  24.645  0.00  0.00    +0.013 C 
ATOM     18  C   UNL     1      -1.391  -1.170  25.516  0.00  0.00    +0.013 C 
ENDBRANCH  19  16
ENDBRANCH  14   4
ENDBRANCH   8  14
TORSDOF 5
ENDMDL
MODEL 6
REMARK VINA RESULT:      -1.0      1.673      2.151
REMARK  Name = 40780152
REMARK  6 active torsions:
REMARK  status: ('A' for Active; 'I' for Inactive)
REMARK    1  A    between atoms: N_4  and  C_14
REMARK    2  A    between atoms: C_8  and  C_14
REMARK    3  A    between atoms: C_9  and  C_15
REMARK    4  A    between atoms: C_16  and  C_19
REMARK    5  A    between atoms: C_21  and  C_23
REMARK    6  A    between atoms: C_22  and  C_24
REMARK                            x       y       z     vdW  Elec       q    Type
REMARK                         _______ _______ _______ _____ _____    ______ ____
ROOT
ATOM      3  N   UNL     1      -2.082  -2.124  23.677  0.00  0.00    -0.297 NA
ATOM      7  C   UNL     1      -3.444  -1.658  25.847  0.00  0.00    +0.002 C 
ATOM      8  C   UNL     1      -1.157  -1.899  24.819  0.00  0.00    +0.074 C 
ATOM      9  C   UNL     1      -3.946  -0.756  24.686  0.00  0.00    +0.055 C 
ATOM     10  C   UNL     1      -1.935  -1.418  26.063  0.00  0.00    +0.024 C 
ATOM     11  C   UNL     1      -3.610  -3.120  25.378  0.00  0.00    +0.019 C 
ATOM     12  C   UNL     1      -2.962  -0.943  23.494  0.00  0.00    +0.094 C 
ATOM     13  C   UNL     1      -2.935  -3.291  24.006  0.00  0.00    +0.085 C 
ENDROOT
BRANCH   9  15
ATOM      5  N   UNL     1      -5.446   1.016  25.455  0.00  0.00    -0.237 NA
ATOM      6  N   UNL     1      -4.770   3.328  25.533  0.00  0.00    -0.232 NA
ATOM     15  C   UNL     1      -4.220   0.712  24.982  0.00  0.00    +0.050 A 
ATOM     20  C   UNL     1      -3.229   1.647  24.763  0.00  0.00    +0.052 A 
ATOM     21  C   UNL     1      -3.563   2.953  25.058  0.00  0.00    +0.081 A 
ATOM     22  C   UNL     1      -5.651   2.324  25.705  0.00  0.00    +0.127 A 
ATOM     24  C   UNL     1      -6.995   2.700  26.229  0.00  0.00    +0.088 C 
BRANCH  21  23
ATOM      1  S   UNL     1      -1.489   3.928  23.598  0.00  0.00    -0.095 S 
ATOM     23  C   UNL     1      -2.627   4.028  24.875  0.00  0.00    +0.038 A 
ATOM     25  C   UNL     1      -2.488   5.191  25.601  0.00  0.00    +0.017 A 
ATOM     26  C   UNL     1      -1.434   6.011  25.102  0.00  0.00    +0.008 A 
ATOM     27  C   UNL     1      -0.808   5.443  24.014  0.00  0.00    +0.046 A 
ENDBRANCH  21  23
ENDBRANCH   9  15
BRANCH   8  14
ATOM     14  C   UNL     1      -0.010  -0.951  24.463  0.00  0.00    +0.123 C 
BRANCH  14   4
ATOM      2  O   UNL     1       1.239   1.603  23.854  0.00  0.00    -0.276 OA
ATOM      4  N   UNL     1      -0.100   0.263  25.212  0.00  0.00    -0.314 N 
ATOM     19  C   UNL     1       0.534   1.444  24.844  0.00  0.00    +0.216 C 
ATOM     28  H   UNL     1      -0.666   0.256  26.056  0.00  0.00    +0.149 HD
BRANCH  19  16
ATOM     16  C   UNL     1       0.301   2.589  25.773  0.00  0.00    +0.075 C 
ATOM     17  C   UNL     1      -0.521   2.371  27.009  0.00  0.00    +0.013 C 
ATOM     18  C   UNL     1       0.960   2.582  27.122  0.00  0.00    +0.013 C 
ENDBRANCH  19  16
ENDBRANCH  14   4
ENDBRANCH   8  14
TORSDOF 5
ENDMDL
MODEL 7
REMARK VINA RESULT:      -0.8      2.600      5.841
REMARK  Name = 40780152
REMARK  6 active torsions:
REMARK  status: ('A' for Active; 'I' for Inactive)
REMARK    1  A    between atoms: N_4  and  C_14
REMARK    2  A    between atoms: C_8  and  C_14
REMARK    3  A    between atoms: C_9  and  C_15
REMARK    4  A    between atoms: C_16  and  C_19
REMARK    5  A    between atoms: C_21  and  C_23
REMARK    6  A    between atoms: C_22  and  C_24
REMARK                            x       y       z     vdW  Elec       q    Type
REMARK                         _______ _______ _______ _____ _____    ______ ____
ROOT
ATOM      3  N   UNL     1      -3.653  -1.627  25.958  0.00  0.00    -0.297 NA
ATOM      7  C   UNL     1      -2.606  -1.625  23.573  0.00  0.00    +0.002 C 
ATOM      8  C   UNL     1      -4.455  -0.764  25.052  0.00  0.00    +0.074 C 
ATOM      9  C   UNL     1      -1.520  -1.330  24.644  0.00  0.00    +0.055 C 
ATOM     10  C   UNL     1      -3.739  -0.584  23.696  0.00  0.00    +0.024 C 
ATOM     11  C   UNL     1      -3.214  -3.001  23.923  0.00  0.00    +0.019 C 
ATOM     12  C   UNL     1      -2.249  -1.148  26.007  0.00  0.00    +0.094 C 
ATOM     13  C   UNL     1      -3.655  -3.000  25.397  0.00  0.00    +0.085 C 
ENDROOT
BRANCH   9  15
ATOM      5  N   UNL     1      -0.973   1.051  24.518  0.00  0.00    -0.237 NA
ATOM      6  N   UNL     1       1.217   1.833  23.889  0.00  0.00    -0.232 NA
ATOM     15  C   UNL     1      -0.524  -0.213  24.369  0.00  0.00    +0.050 A 
ATOM     20  C   UNL     1       0.764  -0.529  23.988  0.00  0.00    +0.052 A 
ATOM     21  C   UNL     1       1.600   0.545  23.759  0.00  0.00    +0.081 A 
ATOM     22  C   UNL     1      -0.063   2.011  24.265  0.00  0.00    +0.127 A 
ATOM     24  C   UNL     1      -0.521   3.421  24.421  0.00  0.00    +0.088 C 
BRANCH  21  23
ATOM      1  S   UNL     1       3.771  -1.090  23.787  0.00  0.00    -0.095 S 
ATOM     23  C   UNL     1       2.968   0.360  23.355  0.00  0.00    +0.038 A 
ATOM     25  C   UNL     1       3.783   1.208  22.637  0.00  0.00    +0.017 A 
ATOM     26  C   UNL     1       5.083   0.660  22.439  0.00  0.00    +0.008 A 
ATOM     27  C   UNL     1       5.212  -0.586  23.012  0.00  0.00    +0.046 A 
ENDBRANCH  21  23
ENDBRANCH   9  15
BRANCH   8  14
ATOM     14  C   UNL     1      -4.812   0.580  25.691  0.00  0.00    +0.123 C 
BRANCH  14   4
ATOM      2  O   UNL     1      -4.953   3.415  26.317  0.00  0.00    -0.276 OA
ATOM      4  N   UNL     1      -4.202   1.661  24.979  0.00  0.00    -0.314 N 
ATOM     19  C   UNL     1      -4.324   2.994  25.353  0.00  0.00    +0.216 C 
ATOM     28  H   UNL     1      -3.647   1.433  24.160  0.00  0.00    +0.149 HD
BRANCH  19  16
ATOM     16  C   UNL     1      -3.603   3.954  24.467  0.00  0.00    +0.075 C 
ATOM     17  C   UNL     1      -3.625   3.737  22.983  0.00  0.00    +0.013 C 
ATOM     18  C   UNL     1      -4.398   4.873  23.585  0.00  0.00    +0.013 C 
ENDBRANCH  19  16
ENDBRANCH  14   4
ENDBRANCH   8  14
TORSDOF 5
ENDMDL
MODEL 8
REMARK VINA RESULT:       0.2      2.110      5.383
REMARK  Name = 40780152
REMARK  6 active torsions:
REMARK  status: ('A' for Active; 'I' for Inactive)
REMARK    1  A    between atoms: N_4  and  C_14
REMARK    2  A    between atoms: C_8  and  C_14
REMARK    3  A    between atoms: C_9  and  C_15
REMARK    4  A    between atoms: C_16  and  C_19
REMARK    5  A    between atoms: C_21  and  C_23
REMARK    6  A    between atoms: C_22  and  C_24
REMARK                            x       y       z     vdW  Elec       q    Type
REMARK                         _______ _______ _______ _____ _____    ______ ____
ROOT
ATOM      3  N   UNL     1      -4.269   3.476  25.741  0.00  0.00    -0.297 NA
ATOM      7  C   UNL     1      -5.043   1.629  24.076  0.00  0.00    +0.002 C 
ATOM      8  C   UNL     1      -4.057   3.932  24.342  0.00  0.00    +0.074 C 
ATOM      9  C   UNL     1      -4.103   1.028  25.157  0.00  0.00    +0.055 C 
ATOM     10  C   UNL     1      -4.314   2.778  23.349  0.00  0.00    +0.024 C 
ATOM     11  C   UNL     1      -6.241   2.253  24.825  0.00  0.00    +0.019 C 
ATOM     12  C   UNL     1      -3.527   2.214  25.983  0.00  0.00    +0.094 C 
ATOM     13  C   UNL     1      -5.717   3.203  25.915  0.00  0.00    +0.085 C 
ENDROOT
BRANCH   9  15
ATOM      5  N   UNL     1      -3.313  -1.258  24.787  0.00  0.00    -0.237 NA
ATOM      6  N   UNL     1      -1.117  -1.732  23.918  0.00  0.00    -0.232 NA
ATOM     15  C   UNL     1      -3.020   0.057  24.708  0.00  0.00    +0.050 A 
ATOM     20  C   UNL     1      -1.814   0.548  24.251  0.00  0.00    +0.052 A 
ATOM     21  C   UNL     1      -0.890  -0.402  23.865  0.00  0.00    +0.081 A 
ATOM     22  C   UNL     1      -2.330  -2.084  24.381  0.00  0.00    +0.127 A 
ATOM     24  C   UNL     1      -2.617  -3.546  24.452  0.00  0.00    +0.088 C 
BRANCH  21  23
ATOM      1  S   UNL     1       0.968  -0.724  21.908  0.00  0.00    -0.095 S 
ATOM     23  C   UNL     1       0.408  -0.030  23.370  0.00  0.00    +0.038 A 
ATOM     25  C   UNL     1       1.326   0.843  23.913  0.00  0.00    +0.017 A 
ATOM     26  C   UNL     1       2.504   0.943  23.118  0.00  0.00    +0.008 A 
ATOM     27  C   UNL     1       2.441   0.144  21.997  0.00  0.00    +0.046 A 
ENDBRANCH  21  23
ENDBRANCH   9  15
BRANCH   8  14
ATOM     14  C   UNL     1      -2.679   4.564  24.138  0.00  0.00    +0.123 C 
BRANCH  14   4
ATOM      2  O   UNL     1       0.042   3.615  23.754  0.00  0.00    -0.276 OA
ATOM      4  N   UNL     1      -1.761   4.122  25.141  0.00  0.00    -0.314 N 
ATOM     19  C   UNL     1      -0.471   3.682  24.865  0.00  0.00    +0.216 C 
ATOM     28  H   UNL     1      -2.074   4.139  26.107  0.00  0.00    +0.149 HD
BRANCH  19  16
ATOM     16  C   UNL     1       0.313   3.270  26.065  0.00  0.00    +0.075 C 
ATOM     17  C   UNL     1      -0.401   3.051  27.365  0.00  0.00    +0.013 C 
ATOM     18  C   UNL     1       0.146   1.879  26.605  0.00  0.00    +0.013 C 
ENDBRANCH  19  16
ENDBRANCH  14   4
ENDBRANCH   8  14
TORSDOF 5
ENDMDL
MODEL 9
REMARK VINA RESULT:       0.7      2.180      5.401
REMARK  Name = 40780152
REMARK  6 active torsions:
REMARK  status: ('A' for Active; 'I' for Inactive)
REMARK    1  A    between atoms: N_4  and  C_14
REMARK    2  A    between atoms: C_8  and  C_14
REMARK    3  A    between atoms: C_9  and  C_15
REMARK    4  A    between atoms: C_16  and  C_19
REMARK    5  A    between atoms: C_21  and  C_23
REMARK    6  A    between atoms: C_22  and  C_24
REMARK                            x       y       z     vdW  Elec       q    Type
REMARK                         _______ _______ _______ _____ _____    ______ ____
ROOT
ATOM      3  N   UNL     1      -1.022   4.772  25.708  0.00  0.00    -0.297 NA
ATOM      7  C   UNL     1      -2.576   4.023  23.756  0.00  0.00    +0.002 C 
ATOM      8  C   UNL     1      -0.317   3.787  24.846  0.00  0.00    +0.074 C 
ATOM      9  C   UNL     1      -3.319   3.912  25.116  0.00  0.00    +0.055 C 
ATOM     10  C   UNL     1      -1.286   3.178  23.810  0.00  0.00    +0.024 C 
ATOM     11  C   UNL     1      -2.147   5.498  23.603  0.00  0.00    +0.019 C 
ATOM     12  C   UNL     1      -2.275   4.179  26.239  0.00  0.00    +0.094 C 
ATOM     13  C   UNL     1      -1.383   5.937  24.865  0.00  0.00    +0.085 C 
ENDROOT
BRANCH   9  15
ATOM      5  N   UNL     1      -5.303   2.835  26.058  0.00  0.00    -0.237 NA
ATOM      6  N   UNL     1      -5.676   0.461  25.891  0.00  0.00    -0.232 NA
ATOM     15  C   UNL     1      -4.148   2.664  25.383  0.00  0.00    +0.050 A 
ATOM     20  C   UNL     1      -3.696   1.439  24.935  0.00  0.00    +0.052 A 
ATOM     21  C   UNL     1      -4.509   0.361  25.221  0.00  0.00    +0.081 A 
ATOM     22  C   UNL     1      -6.007   1.708  26.275  0.00  0.00    +0.127 A 
ATOM     24  C   UNL     1      -7.292   1.857  27.018  0.00  0.00    +0.088 C 
BRANCH  21  23
ATOM      1  S   UNL     1      -3.277  -1.965  25.897  0.00  0.00    -0.095 S 
ATOM     23  C   UNL     1      -4.159  -0.973  24.814  0.00  0.00    +0.038 A 
ATOM     25  C   UNL     1      -4.432  -1.619  23.628  0.00  0.00    +0.017 A 
ATOM     26  C   UNL     1      -3.911  -2.945  23.608  0.00  0.00    +0.008 A 
ATOM     27  C   UNL     1      -3.261  -3.262  24.780  0.00  0.00    +0.046 A 
ENDBRANCH  21  23
ENDBRANCH   9  15
BRANCH   8  14
ATOM     14  C   UNL     1       0.400   2.708  25.660  0.00  0.00    +0.123 C 
BRANCH  14   4
ATOM      2  O   UNL     1       1.925   1.491  23.505  0.00  0.00    -0.276 OA
ATOM      4  N   UNL     1       0.207   1.417  25.078  0.00  0.00    -0.314 N 
ATOM     19  C   UNL     1       0.988   0.913  24.044  0.00  0.00    +0.216 C 
ATOM     28  H   UNL     1      -0.542   0.838  25.448  0.00  0.00    +0.149 HD
BRANCH  19  16
ATOM     16  C   UNL     1       0.610  -0.457  23.592  0.00  0.00    +0.075 C 
ATOM     17  C   UNL     1      -0.134  -1.358  24.532  0.00  0.00    +0.013 C 
ATOM     18  C   UNL     1      -0.837  -0.772  23.343  0.00  0.00    +0.013 C 
ENDBRANCH  19  16
ENDBRANCH  14   4
ENDBRANCH   8  14
TORSDOF 5
ENDMDL
MODEL 10
REMARK VINA RESULT:       0.7      2.582      7.278
REMARK  Name = 40780152
REMARK  6 active torsions:
REMARK  status: ('A' for Active; 'I' for Inactive)
REMARK    1  A    between atoms: N_4  and  C_14
REMARK    2  A    between atoms: C_8  and  C_14
REMARK    3  A    between atoms: C_9  and  C_15
REMARK    4  A    between atoms: C_16  and  C_19
REMARK    5  A    between atoms: C_21  and  C_23
REMARK    6  A    between atoms: C_22  and  C_24
REMARK                            x       y       z     vdW  Elec       q    Type
REMARK                         _______ _______ _______ _____ _____    ______ ____
ROOT
ATOM      3  N   UNL     1      -2.715   4.736  24.749  0.00  0.00    -0.297 NA
ATOM      7  C   UNL     1      -0.202   4.150  25.108  0.00  0.00    +0.002 C 
ATOM      8  C   UNL     1      -2.461   4.447  26.185  0.00  0.00    +0.074 C 
ATOM      9  C   UNL     1      -0.794   3.316  23.939  0.00  0.00    +0.055 C 
ATOM     10  C   UNL     1      -1.032   3.897  26.385  0.00  0.00    +0.024 C 
ATOM     11  C   UNL     1      -0.388   5.636  24.732  0.00  0.00    +0.019 C 
ATOM     12  C   UNL     1      -2.329   3.569  23.918  0.00  0.00    +0.094 C 
ATOM     13  C   UNL     1      -1.860   5.884  24.359  0.00  0.00    +0.085 C 
ENDROOT
BRANCH   9  15
ATOM      5  N   UNL     1       0.764   1.515  23.381  0.00  0.00    -0.237 NA
ATOM      6  N   UNL     1       0.216  -0.808  23.717  0.00  0.00    -0.232 NA
ATOM     15  C   UNL     1      -0.452   1.834  23.868  0.00  0.00    +0.050 A 
ATOM     20  C   UNL     1      -1.377   0.902  24.294  0.00  0.00    +0.052 A 
ATOM     21  C   UNL     1      -0.984  -0.417  24.195  0.00  0.00    +0.081 A 
ATOM     22  C   UNL     1       1.029   0.195  23.334  0.00  0.00    +0.127 A 
ATOM     24  C   UNL     1       2.365  -0.198  22.802  0.00  0.00    +0.088 C 
BRANCH  21  23
ATOM      1  S   UNL     1      -2.507  -1.472  26.183  0.00  0.00    -0.095 S 
ATOM     23  C   UNL     1      -1.850  -1.491  24.602  0.00  0.00    +0.038 A 
ATOM     25  C   UNL     1      -2.259  -2.595  23.885  0.00  0.00    +0.017 A 
ATOM     26  C   UNL     1      -3.123  -3.436  24.645  0.00  0.00    +0.008 A 
ATOM     27  C   UNL     1      -3.342  -2.943  25.912  0.00  0.00    +0.046 A 
ENDBRANCH  21  23
ENDBRANCH   9  15
BRANCH   8  14
ATOM     14  C   UNL     1      -3.517   3.519  26.788  0.00  0.00    +0.123 C 
BRANCH  14   4
ATOM      2  O   UNL     1      -6.267   2.643  26.430  0.00  0.00    -0.276 OA
ATOM      4  N   UNL     1      -4.022   2.612  25.804  0.00  0.00    -0.314 N 
ATOM     19  C   UNL     1      -5.360   2.248  25.706  0.00  0.00    +0.216 C 
ATOM     28  H   UNL     1      -3.361   2.221  25.139  0.00  0.00    +0.149 HD
BRANCH  19  16
ATOM     16  C   UNL     1      -5.663   1.290  24.603  0.00  0.00    +0.075 C 
ATOM     17  C   UNL     1      -4.549   0.825  23.713  0.00  0.00    +0.013 C 
ATOM     18  C   UNL     1      -5.161  -0.121  24.703  0.00  0.00    +0.013 C 
ENDBRANCH  19  16
ENDBRANCH  14   4
ENDBRANCH   8  14
TORSDOF 5
ENDMDL
