MODEL 1
REMARK VINA RESULT:       6.6      0.000      0.000
REMARK  Name = 40779107
REMARK  8 active torsions:
REMARK  status: ('A' for Active; 'I' for Inactive)
REMARK    1  A    between atoms: S_3  and  N_11
REMARK    2  A    between atoms: S_3  and  C_26
REMARK    3  A    between atoms: S_4  and  N_12
REMARK    4  A    between atoms: S_4  and  C_27
REMARK    5  A    between atoms: N_10  and  C_20
REMARK    6  A    between atoms: N_11  and  C_21
REMARK    7  A    between atoms: C_14  and  C_20
REMARK    8  A    between atoms: C_15  and  C_21
REMARK                            x       y       z     vdW  Elec       q    Type
REMARK                         _______ _______ _______ _____ _____    ______ ____
ROOT
ATOM      9  N   UNL     1      -3.988   4.524  24.139  0.00  0.00    -0.298 NA
ATOM     13  C   UNL     1      -2.044   5.498  25.566  0.00  0.00    -0.003 C 
ATOM     14  C   UNL     1      -1.687   4.092  25.035  0.00  0.00    +0.020 C 
ATOM     15  C   UNL     1      -4.503   4.975  25.460  0.00  0.00    +0.072 C 
ATOM     16  C   UNL     1      -3.347   5.419  26.384  0.00  0.00    +0.024 C 
ATOM     17  C   UNL     1      -2.926   3.505  24.321  0.00  0.00    +0.089 C 
ATOM     18  C   UNL     1      -2.330   6.382  24.337  0.00  0.00    +0.019 C 
ATOM     19  C   UNL     1      -3.391   5.698  23.456  0.00  0.00    +0.085 C 
ENDROOT
BRANCH  14  20
ATOM     20  C   UNL     1      -1.167   3.152  26.121  0.00  0.00    +0.089 C 
BRANCH  20  10
ATOM     10  N   UNL     1      -0.354   2.103  25.504  0.00  0.00    -0.299 NA
ATOM     12  N   UNL     1       0.442   0.419  23.313  0.00  0.00    -0.174 NA
ATOM     22  C   UNL     1      -1.202   0.988  25.061  0.00  0.00    +0.101 C 
ATOM     23  C   UNL     1       0.417   2.644  24.376  0.00  0.00    +0.101 C 
ATOM     24  C   UNL     1      -0.356  -0.127  24.447  0.00  0.00    +0.125 C 
ATOM     25  C   UNL     1       1.296   1.561  23.750  0.00  0.00    +0.125 C 
BRANCH  12   4
ATOM      4  S   UNL     1       1.219  -0.746  22.329  0.00  0.00    +0.061 S 
ATOM      7  O   UNL     1       1.093  -0.353  20.942  0.00  0.00    -0.153 OA
ATOM      8  O   UNL     1       0.826  -2.069  22.768  0.00  0.00    -0.153 OA
BRANCH   4  27
ATOM      2 CL   UNL     1       7.186   0.165  24.049  0.00  0.00    -0.084 Cl
ATOM     27  C   UNL     1       2.898  -0.490  22.813  0.00  0.00    +0.106 A 
ATOM     30  C   UNL     1       3.554  -1.446  23.590  0.00  0.00    +0.030 A 
ATOM     31  C   UNL     1       3.567   0.668  22.418  0.00  0.00    +0.030 A 
ATOM     34  C   UNL     1       4.879  -1.243  23.972  0.00  0.00    +0.022 A 
ATOM     35  C   UNL     1       4.894   0.870  22.801  0.00  0.00    +0.022 A 
ATOM     37  C   UNL     1       5.550  -0.084  23.577  0.00  0.00    +0.041 A 
ENDBRANCH   4  27
ENDBRANCH  12   4
ENDBRANCH  20  10
ENDBRANCH  14  20
BRANCH  15  21
ATOM     21  C   UNL     1      -5.394   3.925  26.128  0.00  0.00    +0.124 C 
BRANCH  21  11
ATOM     11  N   UNL     1      -4.879   2.582  25.813  0.00  0.00    -0.188 NA
ATOM     38  H   UNL     1      -3.999   2.540  25.285  0.00  0.00    +0.148 HD
BRANCH  11   3
ATOM      3  S   UNL     1      -5.955   1.280  25.604  0.00  0.00    +0.058 S 
ATOM      5  O   UNL     1      -6.781   1.524  24.436  0.00  0.00    -0.153 OA
ATOM      6  O   UNL     1      -6.571   0.963  26.878  0.00  0.00    -0.153 OA
BRANCH   3  26
ATOM      1 CL   UNL     1      -2.025  -3.424  24.244  0.00  0.00    -0.084 Cl
ATOM     26  C   UNL     1      -4.848  -0.045  25.221  0.00  0.00    +0.105 A 
ATOM     28  C   UNL     1      -4.764  -0.528  23.915  0.00  0.00    +0.030 A 
ATOM     29  C   UNL     1      -4.060  -0.607  26.225  0.00  0.00    +0.030 A 
ATOM     32  C   UNL     1      -3.891  -1.572  23.613  0.00  0.00    +0.022 A 
ATOM     33  C   UNL     1      -3.187  -1.652  25.923  0.00  0.00    +0.022 A 
ATOM     36  C   UNL     1      -3.103  -2.135  24.617  0.00  0.00    +0.041 A 
ENDBRANCH   3  26
ENDBRANCH  11   3
ENDBRANCH  21  11
ENDBRANCH  15  21
TORSDOF 8
ENDMDL
MODEL 2
REMARK VINA RESULT:       7.1      1.602      2.279
REMARK  Name = 40779107
REMARK  8 active torsions:
REMARK  status: ('A' for Active; 'I' for Inactive)
REMARK    1  A    between atoms: S_3  and  N_11
REMARK    2  A    between atoms: S_3  and  C_26
REMARK    3  A    between atoms: S_4  and  N_12
REMARK    4  A    between atoms: S_4  and  C_27
REMARK    5  A    between atoms: N_10  and  C_20
REMARK    6  A    between atoms: N_11  and  C_21
REMARK    7  A    between atoms: C_14  and  C_20
REMARK    8  A    between atoms: C_15  and  C_21
REMARK                            x       y       z     vdW  Elec       q    Type
REMARK                         _______ _______ _______ _____ _____    ______ ____
ROOT
ATOM      9  N   UNL     1      -4.500   3.805  24.254  0.00  0.00    -0.298 NA
ATOM     13  C   UNL     1      -3.042   3.839  26.407  0.00  0.00    -0.003 C 
ATOM     14  C   UNL     1      -2.471   4.800  25.339  0.00  0.00    +0.020 C 
ATOM     15  C   UNL     1      -4.119   2.418  24.633  0.00  0.00    +0.072 C 
ATOM     16  C   UNL     1      -3.130   2.419  25.820  0.00  0.00    +0.024 C 
ATOM     17  C   UNL     1      -3.288   4.631  24.038  0.00  0.00    +0.089 C 
ATOM     18  C   UNL     1      -4.481   4.303  26.702  0.00  0.00    +0.019 C 
ATOM     19  C   UNL     1      -5.266   4.393  25.380  0.00  0.00    +0.085 C 
ENDROOT
BRANCH  14  20
ATOM     20  C   UNL     1      -0.976   4.609  25.093  0.00  0.00    +0.089 C 
BRANCH  20  10
ATOM     10  N   UNL     1      -0.727   3.230  24.673  0.00  0.00    -0.299 NA
ATOM     12  N   UNL     1       0.713   1.200  23.233  0.00  0.00    -0.174 NA
ATOM     22  C   UNL     1      -0.851   3.106  23.214  0.00  0.00    +0.101 C 
ATOM     23  C   UNL     1       0.603   2.788  25.116  0.00  0.00    +0.101 C 
ATOM     24  C   UNL     1      -0.627   1.661  22.771  0.00  0.00    +0.125 C 
ATOM     25  C   UNL     1       0.856   1.336  24.711  0.00  0.00    +0.125 C 
BRANCH  12   4
ATOM      4  S   UNL     1       1.249  -0.287  22.575  0.00  0.00    +0.061 S 
ATOM      7  O   UNL     1       1.134  -0.234  21.133  0.00  0.00    -0.153 OA
ATOM      8  O   UNL     1       0.662  -1.374  23.331  0.00  0.00    -0.153 OA
BRANCH   4  27
ATOM      2 CL   UNL     1       7.349   0.003  24.027  0.00  0.00    -0.084 Cl
ATOM     27  C   UNL     1       2.965  -0.205  22.984  0.00  0.00    +0.106 A 
ATOM     30  C   UNL     1       3.692   0.955  22.715  0.00  0.00    +0.030 A 
ATOM     31  C   UNL     1       3.593  -1.301  23.575  0.00  0.00    +0.030 A 
ATOM     34  C   UNL     1       5.047   1.019  23.037  0.00  0.00    +0.022 A 
ATOM     35  C   UNL     1       4.949  -1.236  23.897  0.00  0.00    +0.022 A 
ATOM     37  C   UNL     1       5.676  -0.077  23.629  0.00  0.00    +0.041 A 
ENDBRANCH   4  27
ENDBRANCH  12   4
ENDBRANCH  20  10
ENDBRANCH  14  20
BRANCH  15  21
ATOM     21  C   UNL     1      -3.582   1.615  23.446  0.00  0.00    +0.124 C 
BRANCH  21  11
ATOM     11  N   UNL     1      -4.431   0.431  23.238  0.00  0.00    -0.188 NA
ATOM     38  H   UNL     1      -5.152   0.504  22.510  0.00  0.00    +0.148 HD
BRANCH  11   3
ATOM      3  S   UNL     1      -4.763  -0.623  24.534  0.00  0.00    +0.058 S 
ATOM      5  O   UNL     1      -5.586  -1.721  24.061  0.00  0.00    -0.153 OA
ATOM      6  O   UNL     1      -5.179   0.156  25.685  0.00  0.00    -0.153 OA
BRANCH   3  26
ATOM      1 CL   UNL     1       0.943  -2.902  25.824  0.00  0.00    -0.084 Cl
ATOM     26  C   UNL     1      -3.156  -1.265  24.898  0.00  0.00    +0.105 A 
ATOM     28  C   UNL     1      -2.728  -2.452  24.303  0.00  0.00    +0.030 A 
ATOM     29  C   UNL     1      -2.317  -0.584  25.779  0.00  0.00    +0.030 A 
ATOM     32  C   UNL     1      -1.461  -2.958  24.589  0.00  0.00    +0.022 A 
ATOM     33  C   UNL     1      -1.048  -1.090  26.066  0.00  0.00    +0.022 A 
ATOM     36  C   UNL     1      -0.621  -2.277  25.471  0.00  0.00    +0.041 A 
ENDBRANCH   3  26
ENDBRANCH  11   3
ENDBRANCH  21  11
ENDBRANCH  15  21
TORSDOF 8
ENDMDL
MODEL 3
REMARK VINA RESULT:       7.6      1.944      2.579
REMARK  Name = 40779107
REMARK  8 active torsions:
REMARK  status: ('A' for Active; 'I' for Inactive)
REMARK    1  A    between atoms: S_3  and  N_11
REMARK    2  A    between atoms: S_3  and  C_26
REMARK    3  A    between atoms: S_4  and  N_12
REMARK    4  A    between atoms: S_4  and  C_27
REMARK    5  A    between atoms: N_10  and  C_20
REMARK    6  A    between atoms: N_11  and  C_21
REMARK    7  A    between atoms: C_14  and  C_20
REMARK    8  A    between atoms: C_15  and  C_21
REMARK                            x       y       z     vdW  Elec       q    Type
REMARK                         _______ _______ _______ _____ _____    ______ ____
ROOT
ATOM      9  N   UNL     1      -4.669   3.251  24.615  0.00  0.00    -0.298 NA
ATOM     13  C   UNL     1      -3.185   4.551  26.310  0.00  0.00    -0.003 C 
ATOM     14  C   UNL     1      -2.739   4.831  24.858  0.00  0.00    +0.020 C 
ATOM     15  C   UNL     1      -4.137   2.319  25.645  0.00  0.00    +0.072 C 
ATOM     16  C   UNL     1      -3.133   3.035  26.575  0.00  0.00    +0.024 C 
ATOM     17  C   UNL     1      -3.555   3.927  23.907  0.00  0.00    +0.089 C 
ATOM     18  C   UNL     1      -4.660   4.982  26.416  0.00  0.00    +0.019 C 
ATOM     19  C   UNL     1      -5.473   4.288  25.309  0.00  0.00    +0.085 C 
ENDROOT
BRANCH  14  20
ATOM     20  C   UNL     1      -1.236   4.659  24.645  0.00  0.00    +0.089 C 
BRANCH  20  10
ATOM     10  N   UNL     1      -0.940   3.247  24.406  0.00  0.00    -0.299 NA
ATOM     12  N   UNL     1       0.451   1.095  23.102  0.00  0.00    -0.174 NA
ATOM     22  C   UNL     1      -1.242   2.885  23.014  0.00  0.00    +0.101 C 
ATOM     23  C   UNL     1       0.466   2.954  24.722  0.00  0.00    +0.101 C 
ATOM     24  C   UNL     1      -0.968   1.402  22.768  0.00  0.00    +0.125 C 
ATOM     25  C   UNL     1       0.772   1.471  24.509  0.00  0.00    +0.125 C 
BRANCH  12   4
ATOM      4  S   UNL     1       1.008  -0.447  22.608  0.00  0.00    +0.061 S 
ATOM      7  O   UNL     1       0.861  -0.565  21.173  0.00  0.00    -0.153 OA
ATOM      8  O   UNL     1       0.465  -1.451  23.498  0.00  0.00    -0.153 OA
BRANCH   4  27
ATOM      2 CL   UNL     1       7.129   0.139  23.870  0.00  0.00    -0.084 Cl
ATOM     27  C   UNL     1       2.730  -0.282  22.963  0.00  0.00    +0.106 A 
ATOM     30  C   UNL     1       3.413  -1.317  23.604  0.00  0.00    +0.030 A 
ATOM     31  C   UNL     1       3.407   0.883  22.603  0.00  0.00    +0.030 A 
ATOM     34  C   UNL     1       4.772  -1.186  23.884  0.00  0.00    +0.022 A 
ATOM     35  C   UNL     1       4.768   1.012  22.884  0.00  0.00    +0.022 A 
ATOM     37  C   UNL     1       5.450  -0.021  23.524  0.00  0.00    +0.041 A 
ENDBRANCH   4  27
ENDBRANCH  12   4
ENDBRANCH  20  10
ENDBRANCH  14  20
BRANCH  15  21
ATOM     21  C   UNL     1      -3.539   1.051  25.030  0.00  0.00    +0.124 C 
BRANCH  21  11
ATOM     11  N   UNL     1      -2.266   0.742  25.704  0.00  0.00    -0.188 NA
ATOM     38  H   UNL     1      -1.473   1.359  25.493  0.00  0.00    +0.148 HD
BRANCH  11   3
ATOM      3  S   UNL     1      -1.890  -0.864  26.127  0.00  0.00    +0.058 S 
ATOM      5  O   UNL     1      -2.372  -1.132  27.469  0.00  0.00    -0.153 OA
ATOM      6  O   UNL     1      -0.508  -1.135  25.782  0.00  0.00    -0.153 OA
BRANCH   3  26
ATOM      1 CL   UNL     1      -5.454  -4.117  22.109  0.00  0.00    -0.084 Cl
ATOM     26  C   UNL     1      -2.894  -1.780  24.995  0.00  0.00    +0.105 A 
ATOM     28  C   UNL     1      -2.514  -3.065  24.609  0.00  0.00    +0.030 A 
ATOM     29  C   UNL     1      -4.065  -1.217  24.489  0.00  0.00    +0.030 A 
ATOM     32  C   UNL     1      -3.306  -3.788  23.717  0.00  0.00    +0.022 A 
ATOM     33  C   UNL     1      -4.857  -1.939  23.596  0.00  0.00    +0.022 A 
ATOM     36  C   UNL     1      -4.477  -3.225  23.210  0.00  0.00    +0.041 A 
ENDBRANCH   3  26
ENDBRANCH  11   3
ENDBRANCH  21  11
ENDBRANCH  15  21
TORSDOF 8
ENDMDL
MODEL 4
REMARK VINA RESULT:       8.3      2.219      4.681
REMARK  Name = 40779107
REMARK  8 active torsions:
REMARK  status: ('A' for Active; 'I' for Inactive)
REMARK    1  A    between atoms: S_3  and  N_11
REMARK    2  A    between atoms: S_3  and  C_26
REMARK    3  A    between atoms: S_4  and  N_12
REMARK    4  A    between atoms: S_4  and  C_27
REMARK    5  A    between atoms: N_10  and  C_20
REMARK    6  A    between atoms: N_11  and  C_21
REMARK    7  A    between atoms: C_14  and  C_20
REMARK    8  A    between atoms: C_15  and  C_21
REMARK                            x       y       z     vdW  Elec       q    Type
REMARK                         _______ _______ _______ _____ _____    ______ ____
ROOT
ATOM      9  N   UNL     1      -4.306  -2.063  25.386  0.00  0.00    -0.298 NA
ATOM     13  C   UNL     1      -2.096  -1.535  24.122  0.00  0.00    -0.003 C 
ATOM     14  C   UNL     1      -2.062  -0.961  25.557  0.00  0.00    +0.020 C 
ATOM     15  C   UNL     1      -4.609  -1.424  24.078  0.00  0.00    +0.072 C 
ATOM     16  C   UNL     1      -3.313  -0.963  23.373  0.00  0.00    +0.024 C 
ATOM     17  C   UNL     1      -3.447  -1.176  26.207  0.00  0.00    +0.089 C 
ATOM     18  C   UNL     1      -2.313  -3.055  24.254  0.00  0.00    +0.019 C 
ATOM     19  C   UNL     1      -3.558  -3.316  25.120  0.00  0.00    +0.085 C 
ENDROOT
BRANCH  14  20
ATOM     20  C   UNL     1      -1.638   0.506  25.609  0.00  0.00    +0.089 C 
BRANCH  20  10
ATOM     10  N   UNL     1      -0.682   0.772  24.535  0.00  0.00    -0.299 NA
ATOM     12  N   UNL     1       1.955   0.808  23.388  0.00  0.00    -0.174 NA
ATOM     22  C   UNL     1       0.318   1.758  24.968  0.00  0.00    +0.101 C 
ATOM     23  C   UNL     1      -0.026  -0.472  24.107  0.00  0.00    +0.101 C 
ATOM     24  C   UNL     1       1.299   2.068  23.839  0.00  0.00    +0.125 C 
ATOM     25  C   UNL     1       0.948  -0.205  22.960  0.00  0.00    +0.125 C 
BRANCH  12   4
ATOM      4  S   UNL     1       3.292   1.006  22.337  0.00  0.00    +0.061 S 
ATOM      7  O   UNL     1       3.642   2.410  22.278  0.00  0.00    -0.153 OA
ATOM      8  O   UNL     1       3.057   0.245  21.128  0.00  0.00    -0.153 OA
BRANCH   4  27
ATOM      2 CL   UNL     1       7.736  -1.945  25.644  0.00  0.00    -0.084 Cl
ATOM     27  C   UNL     1       4.542   0.176  23.267  0.00  0.00    +0.106 A 
ATOM     30  C   UNL     1       4.374  -1.162  23.624  0.00  0.00    +0.030 A 
ATOM     31  C   UNL     1       5.698   0.859  23.646  0.00  0.00    +0.030 A 
ATOM     34  C   UNL     1       5.361  -1.817  24.358  0.00  0.00    +0.022 A 
ATOM     35  C   UNL     1       6.686   0.202  24.381  0.00  0.00    +0.022 A 
ATOM     37  C   UNL     1       6.517  -1.135  24.738  0.00  0.00    +0.041 A 
ENDBRANCH   4  27
ENDBRANCH  12   4
ENDBRANCH  20  10
ENDBRANCH  14  20
BRANCH  15  21
ATOM     21  C   UNL     1      -5.622  -0.284  24.206  0.00  0.00    +0.124 C 
BRANCH  21  11
ATOM     11  N   UNL     1      -5.333   0.485  25.428  0.00  0.00    -0.188 NA
ATOM     38  H   UNL     1      -5.243  -0.052  26.299  0.00  0.00    +0.148 HD
BRANCH  11   3
ATOM      3  S   UNL     1      -5.877   2.092  25.578  0.00  0.00    +0.058 S 
ATOM      5  O   UNL     1      -6.308   2.327  26.943  0.00  0.00    -0.153 OA
ATOM      6  O   UNL     1      -6.763   2.399  24.471  0.00  0.00    -0.153 OA
BRANCH   3  26
ATOM      1 CL   UNL     1      -0.580   5.330  24.641  0.00  0.00    -0.084 Cl
ATOM     26  C   UNL     1      -4.385   3.004  25.314  0.00  0.00    +0.105 A 
ATOM     28  C   UNL     1      -3.848   3.776  26.344  0.00  0.00    +0.030 A 
ATOM     29  C   UNL     1      -3.746   2.951  24.075  0.00  0.00    +0.030 A 
ATOM     32  C   UNL     1      -2.671   4.495  26.136  0.00  0.00    +0.022 A 
ATOM     33  C   UNL     1      -2.569   3.670  23.867  0.00  0.00    +0.022 A 
ATOM     36  C   UNL     1      -2.032   4.443  24.897  0.00  0.00    +0.041 A 
ENDBRANCH   3  26
ENDBRANCH  11   3
ENDBRANCH  21  11
ENDBRANCH  15  21
TORSDOF 8
ENDMDL
MODEL 5
REMARK VINA RESULT:       9.0      2.280      7.514
REMARK  Name = 40779107
REMARK  8 active torsions:
REMARK  status: ('A' for Active; 'I' for Inactive)
REMARK    1  A    between atoms: S_3  and  N_11
REMARK    2  A    between atoms: S_3  and  C_26
REMARK    3  A    between atoms: S_4  and  N_12
REMARK    4  A    between atoms: S_4  and  C_27
REMARK    5  A    between atoms: N_10  and  C_20
REMARK    6  A    between atoms: N_11  and  C_21
REMARK    7  A    between atoms: C_14  and  C_20
REMARK    8  A    between atoms: C_15  and  C_21
REMARK                            x       y       z     vdW  Elec       q    Type
REMARK                         _______ _______ _______ _____ _____    ______ ____
ROOT
ATOM      9  N   UNL     1      -1.304  -2.719  24.673  0.00  0.00    -0.298 NA
ATOM     13  C   UNL     1      -3.714  -2.728  25.651  0.00  0.00    -0.003 C 
ATOM     14  C   UNL     1      -3.746  -2.727  24.106  0.00  0.00    +0.020 C 
ATOM     15  C   UNL     1      -1.457  -1.617  25.660  0.00  0.00    +0.072 C 
ATOM     16  C   UNL     1      -2.920  -1.505  26.145  0.00  0.00    +0.024 C 
ATOM     17  C   UNL     1      -2.299  -2.576  23.583  0.00  0.00    +0.089 C 
ATOM     18  C   UNL     1      -2.933  -3.985  26.082  0.00  0.00    +0.019 C 
ATOM     19  C   UNL     1      -1.567  -4.000  25.374  0.00  0.00    +0.085 C 
ENDROOT
BRANCH  14  20
ATOM     20  C   UNL     1      -4.669  -1.660  23.522  0.00  0.00    +0.089 C 
BRANCH  20  10
ATOM     10  N   UNL     1      -4.271  -0.347  24.028  0.00  0.00    -0.299 NA
ATOM     12  N   UNL     1      -4.325   2.528  24.044  0.00  0.00    -0.174 NA
ATOM     22  C   UNL     1      -3.598   0.428  22.976  0.00  0.00    +0.101 C 
ATOM     23  C   UNL     1      -5.439   0.385  24.539  0.00  0.00    +0.101 C 
ATOM     24  C   UNL     1      -3.148   1.788  23.508  0.00  0.00    +0.125 C 
ATOM     25  C   UNL     1      -5.024   1.744  25.102  0.00  0.00    +0.125 C 
BRANCH  12   4
ATOM      4  S   UNL     1      -4.055   4.179  24.408  0.00  0.00    +0.061 S 
ATOM      7  O   UNL     1      -4.964   4.586  25.459  0.00  0.00    -0.153 OA
ATOM      8  O   UNL     1      -3.964   4.925  23.170  0.00  0.00    -0.153 OA
BRANCH   4  27
ATOM      2 CL   UNL     1       1.704   3.831  26.880  0.00  0.00    -0.084 Cl
ATOM     27  C   UNL     1      -2.435   4.081  25.103  0.00  0.00    +0.106 A 
ATOM     30  C   UNL     1      -2.152   3.128  26.082  0.00  0.00    +0.030 A 
ATOM     31  C   UNL     1      -1.439   4.958  24.674  0.00  0.00    +0.030 A 
ATOM     34  C   UNL     1      -0.873   3.051  26.631  0.00  0.00    +0.022 A 
ATOM     35  C   UNL     1      -0.158   4.880  25.224  0.00  0.00    +0.022 A 
ATOM     37  C   UNL     1       0.124   3.927  26.202  0.00  0.00    +0.041 A 
ENDBRANCH   4  27
ENDBRANCH  12   4
ENDBRANCH  20  10
ENDBRANCH  14  20
BRANCH  15  21
ATOM     21  C   UNL     1      -0.930  -0.282  25.130  0.00  0.00    +0.124 C 
BRANCH  21  11
ATOM     11  N   UNL     1       0.418  -0.481  24.572  0.00  0.00    -0.188 NA
ATOM     38  H   UNL     1       1.158  -0.734  25.238  0.00  0.00    +0.148 HD
BRANCH  11   3
ATOM      3  S   UNL     1       0.905   0.374  23.182  0.00  0.00    +0.058 S 
ATOM      5  O   UNL     1       0.632   1.787  23.369  0.00  0.00    -0.153 OA
ATOM      6  O   UNL     1       0.412  -0.313  22.005  0.00  0.00    -0.153 OA
BRANCH   3  26
ATOM      1 CL   UNL     1       7.131  -0.423  23.302  0.00  0.00    -0.084 Cl
ATOM     26  C   UNL     1       2.658   0.150  23.216  0.00  0.00    +0.105 A 
ATOM     28  C   UNL     1       3.502   1.190  22.828  0.00  0.00    +0.030 A 
ATOM     29  C   UNL     1       3.197  -1.068  23.631  0.00  0.00    +0.030 A 
ATOM     32  C   UNL     1       4.885   1.014  22.855  0.00  0.00    +0.022 A 
ATOM     33  C   UNL     1       4.581  -1.246  23.658  0.00  0.00    +0.022 A 
ATOM     36  C   UNL     1       5.425  -0.205  23.269  0.00  0.00    +0.041 A 
ENDBRANCH   3  26
ENDBRANCH  11   3
ENDBRANCH  21  11
ENDBRANCH  15  21
TORSDOF 8
ENDMDL
MODEL 6
REMARK VINA RESULT:       9.1      2.665      7.293
REMARK  Name = 40779107
REMARK  8 active torsions:
REMARK  status: ('A' for Active; 'I' for Inactive)
REMARK    1  A    between atoms: S_3  and  N_11
REMARK    2  A    between atoms: S_3  and  C_26
REMARK    3  A    between atoms: S_4  and  N_12
REMARK    4  A    between atoms: S_4  and  C_27
REMARK    5  A    between atoms: N_10  and  C_20
REMARK    6  A    between atoms: N_11  and  C_21
REMARK    7  A    between atoms: C_14  and  C_20
REMARK    8  A    between atoms: C_15  and  C_21
REMARK                            x       y       z     vdW  Elec       q    Type
REMARK                         _______ _______ _______ _____ _____    ______ ____
ROOT
ATOM      9  N   UNL     1      -1.851  -2.403  23.880  0.00  0.00    -0.298 NA
ATOM     13  C   UNL     1      -4.112  -2.412  25.165  0.00  0.00    -0.003 C 
ATOM     14  C   UNL     1      -4.267  -1.741  23.781  0.00  0.00    +0.020 C 
ATOM     15  C   UNL     1      -1.667  -1.824  25.237  0.00  0.00    +0.072 C 
ATOM     16  C   UNL     1      -3.021  -1.679  25.967  0.00  0.00    +0.024 C 
ATOM     17  C   UNL     1      -2.871  -1.634  23.126  0.00  0.00    +0.089 C 
ATOM     18  C   UNL     1      -3.608  -3.846  24.913  0.00  0.00    +0.019 C 
ATOM     19  C   UNL     1      -2.343  -3.793  24.038  0.00  0.00    +0.085 C 
ENDROOT
BRANCH  14  20
ATOM     20  C   UNL     1      -4.964  -0.384  23.843  0.00  0.00    +0.089 C 
BRANCH  20  10
ATOM     10  N   UNL     1      -4.073   0.590  24.472  0.00  0.00    -0.299 NA
ATOM     12  N   UNL     1      -2.983   3.227  24.826  0.00  0.00    -0.174 NA
ATOM     22  C   UNL     1      -3.159   1.170  23.478  0.00  0.00    +0.101 C 
ATOM     23  C   UNL     1      -4.849   1.646  25.136  0.00  0.00    +0.101 C 
ATOM     24  C   UNL     1      -2.201   2.162  24.136  0.00  0.00    +0.125 C 
ATOM     25  C   UNL     1      -3.924   2.648  25.827  0.00  0.00    +0.125 C 
BRANCH  12   4
ATOM      4  S   UNL     1      -2.077   4.577  25.363  0.00  0.00    +0.061 S 
ATOM      7  O   UNL     1      -2.942   5.456  26.121  0.00  0.00    -0.153 OA
ATOM      8  O   UNL     1      -1.285   5.080  24.260  0.00  0.00    -0.153 OA
BRANCH   4  27
ATOM      2 CL   UNL     1       1.811   1.756  29.402  0.00  0.00    -0.084 Cl
ATOM     27  C   UNL     1      -0.983   3.784  26.499  0.00  0.00    +0.106 A 
ATOM     30  C   UNL     1       0.267   3.338  26.069  0.00  0.00    +0.030 A 
ATOM     31  C   UNL     1      -1.370   3.602  27.827  0.00  0.00    +0.030 A 
ATOM     34  C   UNL     1       1.130   2.711  26.966  0.00  0.00    +0.022 A 
ATOM     35  C   UNL     1      -0.505   2.975  28.724  0.00  0.00    +0.022 A 
ATOM     37  C   UNL     1       0.744   2.529  28.295  0.00  0.00    +0.041 A 
ENDBRANCH   4  27
ENDBRANCH  12   4
ENDBRANCH  20  10
ENDBRANCH  14  20
BRANCH  15  21
ATOM     21  C   UNL     1      -0.892  -0.505  25.209  0.00  0.00    +0.124 C 
BRANCH  21  11
ATOM     11  N   UNL     1       0.418  -0.726  24.573  0.00  0.00    -0.188 NA
ATOM     38  H   UNL     1       1.181  -1.034  25.189  0.00  0.00    +0.148 HD
BRANCH  11   3
ATOM      3  S   UNL     1       0.864   0.170  23.196  0.00  0.00    +0.058 S 
ATOM      5  O   UNL     1       0.523   1.565  23.402  0.00  0.00    -0.153 OA
ATOM      6  O   UNL     1       0.406  -0.525  22.008  0.00  0.00    -0.153 OA
BRANCH   3  26
ATOM      1 CL   UNL     1       7.122  -0.328  23.315  0.00  0.00    -0.084 Cl
ATOM     26  C   UNL     1       2.626   0.029  23.230  0.00  0.00    +0.105 A 
ATOM     28  C   UNL     1       3.419   1.100  22.817  0.00  0.00    +0.030 A 
ATOM     29  C   UNL     1       3.223  -1.152  23.668  0.00  0.00    +0.030 A 
ATOM     32  C   UNL     1       4.809   0.990  22.844  0.00  0.00    +0.022 A 
ATOM     33  C   UNL     1       4.614  -1.263  23.695  0.00  0.00    +0.022 A 
ATOM     36  C   UNL     1       5.406  -0.192  23.282  0.00  0.00    +0.041 A 
ENDBRANCH   3  26
ENDBRANCH  11   3
ENDBRANCH  21  11
ENDBRANCH  15  21
TORSDOF 8
ENDMDL
MODEL 7
REMARK VINA RESULT:       9.9      1.203      6.801
REMARK  Name = 40779107
REMARK  8 active torsions:
REMARK  status: ('A' for Active; 'I' for Inactive)
REMARK    1  A    between atoms: S_3  and  N_11
REMARK    2  A    between atoms: S_3  and  C_26
REMARK    3  A    between atoms: S_4  and  N_12
REMARK    4  A    between atoms: S_4  and  C_27
REMARK    5  A    between atoms: N_10  and  C_20
REMARK    6  A    between atoms: N_11  and  C_21
REMARK    7  A    between atoms: C_14  and  C_20
REMARK    8  A    between atoms: C_15  and  C_21
REMARK                            x       y       z     vdW  Elec       q    Type
REMARK                         _______ _______ _______ _____ _____    ______ ____
ROOT
ATOM      9  N   UNL     1      -0.585   2.933  25.671  0.00  0.00    -0.298 NA
ATOM     13  C   UNL     1      -0.102   5.231  24.552  0.00  0.00    -0.003 C 
ATOM     14  C   UNL     1      -1.456   5.254  25.297  0.00  0.00    +0.020 C 
ATOM     15  C   UNL     1      -0.257   2.740  24.233  0.00  0.00    +0.072 C 
ATOM     16  C   UNL     1      -0.113   4.098  23.509  0.00  0.00    +0.024 C 
ATOM     17  C   UNL     1      -1.757   3.830  25.816  0.00  0.00    +0.089 C 
ATOM     18  C   UNL     1       0.977   4.881  25.595  0.00  0.00    +0.019 C 
ATOM     19  C   UNL     1       0.579   3.584  26.322  0.00  0.00    +0.085 C 
ENDROOT
BRANCH  14  20
ATOM     20  C   UNL     1      -2.602   5.797  24.447  0.00  0.00    +0.089 C 
BRANCH  20  10
ATOM     10  N   UNL     1      -3.728   4.865  24.500  0.00  0.00    -0.299 NA
ATOM     12  N   UNL     1      -4.940   2.326  25.093  0.00  0.00    -0.174 NA
ATOM     22  C   UNL     1      -3.462   3.687  23.663  0.00  0.00    +0.101 C 
ATOM     23  C   UNL     1      -3.999   4.461  25.887  0.00  0.00    +0.101 C 
ATOM     24  C   UNL     1      -4.649   2.725  23.687  0.00  0.00    +0.125 C 
ATOM     25  C   UNL     1      -5.198   3.515  25.954  0.00  0.00    +0.125 C 
BRANCH  12   4
ATOM      4  S   UNL     1      -6.044   1.030  25.278  0.00  0.00    +0.061 S 
ATOM      7  O   UNL     1      -6.995   1.059  24.187  0.00  0.00    -0.153 OA
ATOM      8  O   UNL     1      -6.489   0.985  26.655  0.00  0.00    -0.153 OA
BRANCH   4  27
ATOM      2 CL   UNL     1      -2.194  -3.837  24.336  0.00  0.00    -0.084 Cl
ATOM     27  C   UNL     1      -4.961  -0.339  25.013  0.00  0.00    +0.106 A 
ATOM     30  C   UNL     1      -5.074  -1.104  23.852  0.00  0.00    +0.030 A 
ATOM     31  C   UNL     1      -3.992  -0.656  25.966  0.00  0.00    +0.030 A 
ATOM     34  C   UNL     1      -4.219  -2.185  23.643  0.00  0.00    +0.022 A 
ATOM     35  C   UNL     1      -3.137  -1.738  25.756  0.00  0.00    +0.022 A 
ATOM     37  C   UNL     1      -3.250  -2.502  24.595  0.00  0.00    +0.041 A 
ENDBRANCH   4  27
ENDBRANCH  12   4
ENDBRANCH  20  10
ENDBRANCH  14  20
BRANCH  15  21
ATOM     21  C   UNL     1      -1.256   1.822  23.525  0.00  0.00    +0.124 C 
BRANCH  21  11
ATOM     11  N   UNL     1      -0.518   0.796  22.769  0.00  0.00    -0.188 NA
ATOM     38  H   UNL     1      -0.755   0.698  21.775  0.00  0.00    +0.148 HD
BRANCH  11   3
ATOM      3  S   UNL     1       0.053  -0.602  23.557  0.00  0.00    +0.058 S 
ATOM      5  O   UNL     1      -0.326  -1.773  22.788  0.00  0.00    -0.153 OA
ATOM      6  O   UNL     1      -0.272  -0.519  24.967  0.00  0.00    -0.153 OA
BRANCH   3  26
ATOM      1 CL   UNL     1       6.273   0.103  23.064  0.00  0.00    -0.084 Cl
ATOM     26  C   UNL     1       1.805  -0.404  23.418  0.00  0.00    +0.105 A 
ATOM     28  C   UNL     1       2.333   0.773  22.887  0.00  0.00    +0.030 A 
ATOM     29  C   UNL     1       2.657  -1.424  23.839  0.00  0.00    +0.030 A 
ATOM     32  C   UNL     1       3.715   0.930  22.779  0.00  0.00    +0.022 A 
ATOM     33  C   UNL     1       4.039  -1.268  23.730  0.00  0.00    +0.022 A 
ATOM     36  C   UNL     1       4.568  -0.091  23.199  0.00  0.00    +0.041 A 
ENDBRANCH   3  26
ENDBRANCH  11   3
ENDBRANCH  21  11
ENDBRANCH  15  21
TORSDOF 8
ENDMDL
MODEL 8
REMARK VINA RESULT:      10.3      3.287      7.750
REMARK  Name = 40779107
REMARK  8 active torsions:
REMARK  status: ('A' for Active; 'I' for Inactive)
REMARK    1  A    between atoms: S_3  and  N_11
REMARK    2  A    between atoms: S_3  and  C_26
REMARK    3  A    between atoms: S_4  and  N_12
REMARK    4  A    between atoms: S_4  and  C_27
REMARK    5  A    between atoms: N_10  and  C_20
REMARK    6  A    between atoms: N_11  and  C_21
REMARK    7  A    between atoms: C_14  and  C_20
REMARK    8  A    between atoms: C_15  and  C_21
REMARK                            x       y       z     vdW  Elec       q    Type
REMARK                         _______ _______ _______ _____ _____    ______ ____
ROOT
ATOM      9  N   UNL     1       0.212  -0.995  23.527  0.00  0.00    -0.298 NA
ATOM     13  C   UNL     1      -0.522  -2.297  25.655  0.00  0.00    -0.003 C 
ATOM     14  C   UNL     1      -1.271  -2.815  24.407  0.00  0.00    +0.020 C 
ATOM     15  C   UNL     1      -0.195  -0.041  24.592  0.00  0.00    +0.072 C 
ATOM     16  C   UNL     1      -0.777  -0.787  25.813  0.00  0.00    +0.024 C 
ATOM     17  C   UNL     1      -0.906  -1.915  23.205  0.00  0.00    +0.089 C 
ATOM     18  C   UNL     1       0.983  -2.480  25.382  0.00  0.00    +0.019 C 
ATOM     19  C   UNL     1       1.342  -1.805  24.046  0.00  0.00    +0.085 C 
ENDROOT
BRANCH  14  20
ATOM     20  C   UNL     1      -2.783  -2.903  24.604  0.00  0.00    +0.089 C 
BRANCH  20  10
ATOM     10  N   UNL     1      -3.343  -1.553  24.666  0.00  0.00    -0.299 NA
ATOM     12  N   UNL     1      -5.393   0.354  25.318  0.00  0.00    -0.174 NA
ATOM     22  C   UNL     1      -4.579  -1.471  23.874  0.00  0.00    +0.101 C 
ATOM     23  C   UNL     1      -3.597  -1.163  26.060  0.00  0.00    +0.101 C 
ATOM     24  C   UNL     1      -5.150  -0.054  23.906  0.00  0.00    +0.125 C 
ATOM     25  C   UNL     1      -4.149   0.261  26.133  0.00  0.00    +0.125 C 
BRANCH  12   4
ATOM      4  S   UNL     1      -6.302   1.791  25.524  0.00  0.00    +0.061 S 
ATOM      7  O   UNL     1      -6.788   1.851  26.887  0.00  0.00    -0.153 OA
ATOM      8  O   UNL     1      -7.207   1.940  24.403  0.00  0.00    -0.153 OA
BRANCH   4  27
ATOM      2 CL   UNL     1      -1.751   6.069  24.916  0.00  0.00    -0.084 Cl
ATOM     27  C   UNL     1      -5.022   2.994  25.353  0.00  0.00    +0.106 A 
ATOM     30  C   UNL     1      -4.458   3.579  26.487  0.00  0.00    +0.030 A 
ATOM     31  C   UNL     1      -4.575   3.360  24.084  0.00  0.00    +0.030 A 
ATOM     34  C   UNL     1      -3.447   4.530  26.351  0.00  0.00    +0.022 A 
ATOM     35  C   UNL     1      -3.563   4.311  23.949  0.00  0.00    +0.022 A 
ATOM     37  C   UNL     1      -2.999   4.896  25.082  0.00  0.00    +0.041 A 
ENDBRANCH   4  27
ENDBRANCH  12   4
ENDBRANCH  20  10
ENDBRANCH  14  20
BRANCH  15  21
ATOM     21  C   UNL     1      -1.151   1.037  24.076  0.00  0.00    +0.124 C 
BRANCH  21  11
ATOM     11  N   UNL     1      -1.101   2.200  24.977  0.00  0.00    -0.188 NA
ATOM     38  H   UNL     1      -1.982   2.710  25.119  0.00  0.00    +0.148 HD
BRANCH  11   3
ATOM      3  S   UNL     1       0.334   3.103  25.131  0.00  0.00    +0.058 S 
ATOM      5  O   UNL     1       0.028   4.515  24.996  0.00  0.00    -0.153 OA
ATOM      6  O   UNL     1       1.366   2.499  24.310  0.00  0.00    -0.153 OA
BRANCH   3  26
ATOM      1 CL   UNL     1       1.889   2.028  31.118  0.00  0.00    -0.084 Cl
ATOM     26  C   UNL     1       0.772   2.800  26.817  0.00  0.00    +0.105 A 
ATOM     28  C   UNL     1       2.036   3.159  27.285  0.00  0.00    +0.030 A 
ATOM     29  C   UNL     1      -0.147   2.202  27.679  0.00  0.00    +0.030 A 
ATOM     32  C   UNL     1       2.382   2.921  28.615  0.00  0.00    +0.022 A 
ATOM     33  C   UNL     1       0.198   1.963  29.010  0.00  0.00    +0.022 A 
ATOM     36  C   UNL     1       1.463   2.322  29.477  0.00  0.00    +0.041 A 
ENDBRANCH   3  26
ENDBRANCH  11   3
ENDBRANCH  21  11
ENDBRANCH  15  21
TORSDOF 8
ENDMDL
