MODEL 1
REMARK VINA RESULT:      11.3      0.000      0.000
REMARK  Name = 11887632
REMARK  3 active torsions:
REMARK  status: ('A' for Active; 'I' for Inactive)
REMARK    1  A    between atoms: N_7  and  C_15
REMARK    2  A    between atoms: C_13  and  C_16
REMARK    3  A    between atoms: C_23  and  C_27
REMARK                            x       y       z     vdW  Elec       q    Type
REMARK                         _______ _______ _______ _____ _____    ______ ____
ROOT
ATOM      2  O   UNL     1      -1.331   1.505  23.964  0.00  0.00    -0.273 OA
ATOM      3  O   UNL     1       0.525   0.353  21.717  0.00  0.00    -0.270 OA
ATOM      4  O   UNL     1      -4.775  -1.258  25.586  0.00  0.00    -0.252 OA
ATOM      5  N   UNL     1       0.294  -0.650  23.806  0.00  0.00    -0.284 N 
ATOM      6  N   UNL     1      -2.725  -2.104  25.156  0.00  0.00    -0.293 N 
ATOM      7  N   UNL     1      -3.112   0.210  24.792  0.00  0.00    -0.193 N 
ATOM      8  C   UNL     1      -1.365  -2.007  24.716  0.00  0.00    +0.105 C 
ATOM      9  C   UNL     1      -1.149  -0.875  23.735  0.00  0.00    +0.183 C 
ATOM     10  C   UNL     1      -0.357  -1.706  25.825  0.00  0.00    +0.043 C 
ATOM     11  C   UNL     1       0.852  -1.209  25.041  0.00  0.00    +0.111 C 
ATOM     12  C   UNL     1      -1.853   0.407  24.171  0.00  0.00    +0.250 C 
ATOM     13  C   UNL     1       1.011  -0.111  22.747  0.00  0.00    +0.247 C 
ATOM     14  C   UNL     1      -3.614  -1.049  25.219  0.00  0.00    +0.313 C 
ATOM     33  H   UNL     1      -3.057  -3.014  25.462  0.00  0.00    +0.151 HD
ENDROOT
BRANCH   7  15
ATOM      1  F   UNL     1      -6.292   4.694  25.659  0.00  0.00    -0.205 F 
ATOM     15  C   UNL     1      -3.940   1.378  25.019  0.00  0.00    +0.046 A 
ATOM     19  C   UNL     1      -5.320   1.268  24.916  0.00  0.00    +0.027 A 
ATOM     20  C   UNL     1      -3.342   2.590  25.336  0.00  0.00    +0.027 A 
ATOM     24  C   UNL     1      -6.117   2.392  25.132  0.00  0.00    +0.040 A 
ATOM     25  C   UNL     1      -4.139   3.714  25.552  0.00  0.00    +0.040 A 
ATOM     26  C   UNL     1      -5.526   3.615  25.451  0.00  0.00    +0.124 A 
ENDBRANCH   7  15
BRANCH  13  16
ATOM     16  C   UNL     1       2.476  -0.103  22.861  0.00  0.00    +0.037 A 
ATOM     17  C   UNL     1       3.139  -1.235  23.328  0.00  0.00    +0.013 A 
ATOM     18  C   UNL     1       3.192   1.036  22.504  0.00  0.00    +0.013 A 
ATOM     21  C   UNL     1       4.531  -1.227  23.437  0.00  0.00    +0.009 A 
ATOM     22  C   UNL     1       4.581   1.044  22.613  0.00  0.00    +0.009 A 
ATOM     23  C   UNL     1       5.251  -0.087  23.079  0.00  0.00    -0.018 A 
BRANCH  23  27
ATOM     27  C   UNL     1       6.693  -0.080  23.191  0.00  0.00    -0.018 A 
ATOM     28  C   UNL     1       7.326   0.874  23.989  0.00  0.00    +0.008 A 
ATOM     29  C   UNL     1       7.452  -1.026  22.502  0.00  0.00    +0.008 A 
ATOM     30  C   UNL     1       8.717   0.882  24.097  0.00  0.00    +0.001 A 
ATOM     31  C   UNL     1       8.843  -1.019  22.610  0.00  0.00    +0.001 A 
ATOM     32  C   UNL     1       9.475  -0.065  23.408  0.00  0.00    +0.000 A 
ENDBRANCH  23  27
ENDBRANCH  13  16
TORSDOF 3
ENDMDL
