MODEL 1
REMARK VINA RESULT:      -6.6      0.000      0.000
REMARK  Name = 71694393
REMARK  7 active torsions:
REMARK  status: ('A' for Active; 'I' for Inactive)
REMARK    1  A    between atoms: O_3  and  C_20
REMARK    2  A    between atoms: N_4  and  C_6
REMARK    3  A    between atoms: N_4  and  C_8
REMARK    4  A    between atoms: C_6  and  C_13
REMARK    5  A    between atoms: C_7  and  C_8
REMARK    6  A    between atoms: C_13  and  C_17
REMARK    7  A    between atoms: C_19  and  C_20
REMARK                            x       y       z     vdW  Elec       q    Type
REMARK                         _______ _______ _______ _____ _____    ______ ____
ROOT
ATOM      1  O   UNL     1      -2.036   4.951  25.489  0.00  0.00    -0.376 OA
ATOM      6  C   UNL     1      -1.889   2.835  25.234  0.00  0.00    +0.072 C 
ATOM     11  C   UNL     1      -1.484   4.093  24.455  0.00  0.00    +0.184 C 
ATOM     12  C   UNL     1      -2.684   3.811  26.111  0.00  0.00    +0.184 C 
ENDROOT
BRANCH   6   4
ATOM      4  N   UNL     1      -2.837   2.064  24.421  0.00  0.00    -0.306 NA
ATOM     21  H   UNL     1      -3.175   2.532  23.581  0.00  0.00    +0.123 HD
BRANCH   4   8
ATOM      8  C   UNL     1      -3.956   1.642  25.249  0.00  0.00    +0.085 C 
BRANCH   8   7
ATOM      7  C   UNL     1      -4.168   0.132  25.147  0.00  0.00    +0.003 C 
ATOM      9  C   UNL     1      -4.017  -0.340  23.694  0.00  0.00    +0.005 C 
ATOM     10  C   UNL     1      -3.196  -0.616  26.069  0.00  0.00    +0.005 C 
ATOM     14  C   UNL     1      -4.173  -1.855  23.575  0.00  0.00    +0.000 C 
ATOM     15  C   UNL     1      -3.352  -2.130  25.945  0.00  0.00    +0.000 C 
ATOM     16  C   UNL     1      -3.210  -2.594  24.499  0.00  0.00    +0.000 C 
ENDBRANCH   8   7
ENDBRANCH   4   8
ENDBRANCH   6   4
BRANCH   6  13
ATOM     13  C   UNL     1      -0.821   1.983  25.870  0.00  0.00    +0.085 C 
BRANCH  13  17
ATOM      2  O   UNL     1       0.271  -0.659  23.665  0.00  0.00    -0.357 OA
ATOM      5  N   UNL     1      -0.530  -0.160  24.685  0.00  0.00    -0.083 NA
ATOM     17  C   UNL     1      -0.151   1.112  24.832  0.00  0.00    +0.086 A 
ATOM     18  C   UNL     1       0.876   1.469  23.941  0.00  0.00    +0.073 A 
ATOM     19  C   UNL     1       1.105   0.321  23.230  0.00  0.00    +0.163 A 
BRANCH  19  20
ATOM     20  C   UNL     1       2.027  -0.037  22.146  0.00  0.00    +0.232 C 
BRANCH  20   3
ATOM      3  O   UNL     1       3.245   0.704  22.265  0.00  0.00    -0.387 OA
ATOM     22  H   UNL     1       3.965   0.054  22.333  0.00  0.00    +0.210 HD
ENDBRANCH  20   3
ENDBRANCH  19  20
ENDBRANCH  13  17
ENDBRANCH   6  13
TORSDOF 7
ENDMDL
MODEL 2
REMARK VINA RESULT:      -6.5      1.777      2.358
REMARK  Name = 71694393
REMARK  7 active torsions:
REMARK  status: ('A' for Active; 'I' for Inactive)
REMARK    1  A    between atoms: O_3  and  C_20
REMARK    2  A    between atoms: N_4  and  C_6
REMARK    3  A    between atoms: N_4  and  C_8
REMARK    4  A    between atoms: C_6  and  C_13
REMARK    5  A    between atoms: C_7  and  C_8
REMARK    6  A    between atoms: C_13  and  C_17
REMARK    7  A    between atoms: C_19  and  C_20
REMARK                            x       y       z     vdW  Elec       q    Type
REMARK                         _______ _______ _______ _____ _____    ______ ____
ROOT
ATOM      1  O   UNL     1      -5.752   3.993  25.699  0.00  0.00    -0.376 OA
ATOM      6  C   UNL     1      -4.224   2.699  24.955  0.00  0.00    +0.072 C 
ATOM     11  C   UNL     1      -5.758   2.737  24.969  0.00  0.00    +0.184 C 
ATOM     12  C   UNL     1      -4.331   3.854  25.959  0.00  0.00    +0.184 C 
ENDROOT
BRANCH   6   4
ATOM      4  N   UNL     1      -3.779   1.499  25.674  0.00  0.00    -0.306 NA
ATOM     21  H   UNL     1      -2.811   1.227  25.514  0.00  0.00    +0.123 HD
BRANCH   4   8
ATOM      8  C   UNL     1      -4.673   0.392  25.369  0.00  0.00    +0.085 C 
BRANCH   8   7
ATOM      7  C   UNL     1      -3.911  -0.932  25.348  0.00  0.00    +0.003 C 
ATOM      9  C   UNL     1      -4.121  -1.658  24.013  0.00  0.00    +0.005 C 
ATOM     10  C   UNL     1      -2.418  -0.703  25.617  0.00  0.00    +0.005 C 
ATOM     14  C   UNL     1      -3.326  -2.961  23.949  0.00  0.00    +0.000 C 
ATOM     15  C   UNL     1      -1.626  -2.007  25.549  0.00  0.00    +0.000 C 
ATOM     16  C   UNL     1      -1.844  -2.730  24.224  0.00  0.00    +0.000 C 
ENDBRANCH   8   7
ENDBRANCH   4   8
ENDBRANCH   6   4
BRANCH   6  13
ATOM     13  C   UNL     1      -3.490   2.922  23.658  0.00  0.00    +0.085 C 
BRANCH  13  17
ATOM      2  O   UNL     1      -0.046   2.086  24.344  0.00  0.00    -0.357 OA
ATOM      5  N   UNL     1      -1.180   2.869  24.518  0.00  0.00    -0.083 NA
ATOM     17  C   UNL     1      -2.104   2.323  23.724  0.00  0.00    +0.086 A 
ATOM     18  C   UNL     1      -1.616   1.203  23.030  0.00  0.00    +0.073 A 
ATOM     19  C   UNL     1      -0.318   1.096  23.455  0.00  0.00    +0.163 A 
BRANCH  19  20
ATOM     20  C   UNL     1       0.779   0.169  23.151  0.00  0.00    +0.232 C 
BRANCH  20   3
ATOM      3  O   UNL     1       2.026   0.869  23.120  0.00  0.00    -0.387 OA
ATOM     22  H   UNL     1       2.328   0.865  22.195  0.00  0.00    +0.210 HD
ENDBRANCH  20   3
ENDBRANCH  19  20
ENDBRANCH  13  17
ENDBRANCH   6  13
TORSDOF 7
ENDMDL
MODEL 3
REMARK VINA RESULT:      -6.2      2.068      4.715
REMARK  Name = 71694393
REMARK  7 active torsions:
REMARK  status: ('A' for Active; 'I' for Inactive)
REMARK    1  A    between atoms: O_3  and  C_20
REMARK    2  A    between atoms: N_4  and  C_6
REMARK    3  A    between atoms: N_4  and  C_8
REMARK    4  A    between atoms: C_6  and  C_13
REMARK    5  A    between atoms: C_7  and  C_8
REMARK    6  A    between atoms: C_13  and  C_17
REMARK    7  A    between atoms: C_19  and  C_20
REMARK                            x       y       z     vdW  Elec       q    Type
REMARK                         _______ _______ _______ _____ _____    ______ ____
ROOT
ATOM      1  O   UNL     1      -2.550  -3.152  25.028  0.00  0.00    -0.376 OA
ATOM      6  C   UNL     1      -2.233  -1.040  24.981  0.00  0.00    +0.072 C 
ATOM     11  C   UNL     1      -3.291  -2.007  25.528  0.00  0.00    +0.184 C 
ATOM     12  C   UNL     1      -1.688  -2.277  24.255  0.00  0.00    +0.184 C 
ENDROOT
BRANCH   6   4
ATOM      4  N   UNL     1      -2.868  -0.162  23.991  0.00  0.00    -0.306 NA
ATOM     21  H   UNL     1      -2.499   0.786  23.946  0.00  0.00    +0.123 HD
BRANCH   4   8
ATOM      8  C   UNL     1      -4.304  -0.137  24.215  0.00  0.00    +0.085 C 
BRANCH   8   7
ATOM      7  C   UNL     1      -4.821   1.300  24.269  0.00  0.00    +0.003 C 
ATOM      9  C   UNL     1      -5.297   1.653  25.685  0.00  0.00    +0.005 C 
ATOM     10  C   UNL     1      -3.742   2.282  23.795  0.00  0.00    +0.005 C 
ATOM     14  C   UNL     1      -5.770   3.102  25.776  0.00  0.00    +0.000 C 
ATOM     15  C   UNL     1      -4.217   3.731  23.890  0.00  0.00    +0.000 C 
ATOM     16  C   UNL     1      -4.697   4.075  25.295  0.00  0.00    +0.000 C 
ENDBRANCH   8   7
ENDBRANCH   4   8
ENDBRANCH   6   4
BRANCH   6  13
ATOM     13  C   UNL     1      -1.338  -0.302  25.944  0.00  0.00    +0.085 C 
BRANCH  13  17
ATOM      2  O   UNL     1       0.054   2.373  23.958  0.00  0.00    -0.357 OA
ATOM      5  N   UNL     1      -0.179   1.028  24.221  0.00  0.00    -0.083 NA
ATOM     17  C   UNL     1      -0.893   1.015  25.349  0.00  0.00    +0.086 A 
ATOM     18  C   UNL     1      -1.139   2.308  25.840  0.00  0.00    +0.073 A 
ATOM     19  C   UNL     1      -0.523   3.126  24.930  0.00  0.00    +0.163 A 
BRANCH  19  20
ATOM     20  C   UNL     1      -0.373   4.581  24.807  0.00  0.00    +0.232 C 
BRANCH  20   3
ATOM      3  O   UNL     1      -1.515   5.245  25.355  0.00  0.00    -0.387 OA
ATOM     22  H   UNL     1      -1.834   5.864  24.676  0.00  0.00    +0.210 HD
ENDBRANCH  20   3
ENDBRANCH  19  20
ENDBRANCH  13  17
ENDBRANCH   6  13
TORSDOF 7
ENDMDL
MODEL 4
REMARK VINA RESULT:      -6.2      1.847      4.784
REMARK  Name = 71694393
REMARK  7 active torsions:
REMARK  status: ('A' for Active; 'I' for Inactive)
REMARK    1  A    between atoms: O_3  and  C_20
REMARK    2  A    between atoms: N_4  and  C_6
REMARK    3  A    between atoms: N_4  and  C_8
REMARK    4  A    between atoms: C_6  and  C_13
REMARK    5  A    between atoms: C_7  and  C_8
REMARK    6  A    between atoms: C_13  and  C_17
REMARK    7  A    between atoms: C_19  and  C_20
REMARK                            x       y       z     vdW  Elec       q    Type
REMARK                         _______ _______ _______ _____ _____    ______ ____
ROOT
ATOM      1  O   UNL     1       1.468   0.973  23.477  0.00  0.00    -0.376 OA
ATOM      6  C   UNL     1      -0.516   1.452  24.111  0.00  0.00    +0.072 C 
ATOM     11  C   UNL     1       0.905   1.968  24.374  0.00  0.00    +0.184 C 
ATOM     12  C   UNL     1       0.194   0.278  23.424  0.00  0.00    +0.184 C 
ENDROOT
BRANCH   6   4
ATOM      4  N   UNL     1      -1.083   0.974  25.378  0.00  0.00    -0.306 NA
ATOM     21  H   UNL     1      -0.736   1.439  26.215  0.00  0.00    +0.123 HD
BRANCH   4   8
ATOM      8  C   UNL     1      -0.893  -0.464  25.482  0.00  0.00    +0.085 C 
BRANCH   8   7
ATOM      7  C   UNL     1      -2.225  -1.199  25.347  0.00  0.00    +0.003 C 
ATOM      9  C   UNL     1      -3.263  -0.315  24.642  0.00  0.00    +0.005 C 
ATOM     10  C   UNL     1      -2.039  -2.526  24.599  0.00  0.00    +0.005 C 
ATOM     14  C   UNL     1      -4.589  -1.049  24.448  0.00  0.00    +0.000 C 
ATOM     15  C   UNL     1      -3.366  -3.255  24.404  0.00  0.00    +0.000 C 
ATOM     16  C   UNL     1      -4.398  -2.371  23.712  0.00  0.00    +0.000 C 
ENDBRANCH   8   7
ENDBRANCH   4   8
ENDBRANCH   6   4
BRANCH   6  13
ATOM     13  C   UNL     1      -1.473   2.298  23.312  0.00  0.00    +0.085 C 
BRANCH  13  17
ATOM      2  O   UNL     1      -3.360   4.042  25.848  0.00  0.00    -0.357 OA
ATOM      5  N   UNL     1      -2.168   3.664  25.244  0.00  0.00    -0.083 NA
ATOM     17  C   UNL     1      -2.529   2.896  24.212  0.00  0.00    +0.086 A 
ATOM     18  C   UNL     1      -3.924   2.756  24.116  0.00  0.00    +0.073 A 
ATOM     19  C   UNL     1      -4.400   3.496  25.166  0.00  0.00    +0.163 A 
BRANCH  19  20
ATOM     20  C   UNL     1      -5.745   3.796  25.672  0.00  0.00    +0.232 C 
BRANCH  20   3
ATOM      3  O   UNL     1      -6.234   2.705  26.458  0.00  0.00    -0.387 OA
ATOM     22  H   UNL     1      -5.611   1.968  26.336  0.00  0.00    +0.210 HD
ENDBRANCH  20   3
ENDBRANCH  19  20
ENDBRANCH  13  17
ENDBRANCH   6  13
TORSDOF 7
ENDMDL
MODEL 5
REMARK VINA RESULT:      -6.0      2.301      6.010
REMARK  Name = 71694393
REMARK  7 active torsions:
REMARK  status: ('A' for Active; 'I' for Inactive)
REMARK    1  A    between atoms: O_3  and  C_20
REMARK    2  A    between atoms: N_4  and  C_6
REMARK    3  A    between atoms: N_4  and  C_8
REMARK    4  A    between atoms: C_6  and  C_13
REMARK    5  A    between atoms: C_7  and  C_8
REMARK    6  A    between atoms: C_13  and  C_17
REMARK    7  A    between atoms: C_19  and  C_20
REMARK                            x       y       z     vdW  Elec       q    Type
REMARK                         _______ _______ _______ _____ _____    ______ ____
ROOT
ATOM      1  O   UNL     1      -1.280  -2.325  24.862  0.00  0.00    -0.376 OA
ATOM      6  C   UNL     1      -1.298  -0.193  24.723  0.00  0.00    +0.072 C 
ATOM     11  C   UNL     1      -0.278  -1.325  24.538  0.00  0.00    +0.184 C 
ATOM     12  C   UNL     1      -2.188  -1.290  25.322  0.00  0.00    +0.184 C 
ENDROOT
BRANCH   6   4
ATOM      4  N   UNL     1      -0.838   0.678  25.810  0.00  0.00    -0.306 NA
ATOM     21  H   UNL     1      -1.573   1.094  26.379  0.00  0.00    +0.123 HD
BRANCH   4   8
ATOM      8  C   UNL     1       0.031   1.712  25.270  0.00  0.00    +0.085 C 
BRANCH   8   7
ATOM      7  C   UNL     1      -0.490   3.102  25.631  0.00  0.00    +0.003 C 
ATOM      9  C   UNL     1      -0.382   4.050  24.428  0.00  0.00    +0.005 C 
ATOM     10  C   UNL     1      -1.935   3.025  26.139  0.00  0.00    +0.005 C 
ATOM     14  C   UNL     1      -0.945   5.433  24.750  0.00  0.00    +0.000 C 
ATOM     15  C   UNL     1      -2.496   4.410  26.456  0.00  0.00    +0.000 C 
ATOM     16  C   UNL     1      -2.380   5.352  25.263  0.00  0.00    +0.000 C 
ENDBRANCH   8   7
ENDBRANCH   4   8
ENDBRANCH   6   4
BRANCH   6  13
ATOM     13  C   UNL     1      -1.785   0.567  23.516  0.00  0.00    +0.085 C 
BRANCH  13  17
ATOM      2  O   UNL     1      -4.581   2.838  23.765  0.00  0.00    -0.357 OA
ATOM      5  N   UNL     1      -3.331   2.473  23.278  0.00  0.00    -0.083 NA
ATOM     17  C   UNL     1      -3.079   1.282  23.828  0.00  0.00    +0.086 A 
ATOM     18  C   UNL     1      -4.122   0.850  24.665  0.00  0.00    +0.073 A 
ATOM     19  C   UNL     1      -5.042   1.863  24.590  0.00  0.00    +0.163 A 
BRANCH  19  20
ATOM     20  C   UNL     1      -6.359   2.087  25.197  0.00  0.00    +0.232 C 
BRANCH  20   3
ATOM      3  O   UNL     1      -6.213   2.536  26.548  0.00  0.00    -0.387 OA
ATOM     22  H   UNL     1      -5.904   3.457  26.507  0.00  0.00    +0.210 HD
ENDBRANCH  20   3
ENDBRANCH  19  20
ENDBRANCH  13  17
ENDBRANCH   6  13
TORSDOF 7
ENDMDL
MODEL 6
REMARK VINA RESULT:      -6.0      2.734      6.044
REMARK  Name = 71694393
REMARK  7 active torsions:
REMARK  status: ('A' for Active; 'I' for Inactive)
REMARK    1  A    between atoms: O_3  and  C_20
REMARK    2  A    between atoms: N_4  and  C_6
REMARK    3  A    between atoms: N_4  and  C_8
REMARK    4  A    between atoms: C_6  and  C_13
REMARK    5  A    between atoms: C_7  and  C_8
REMARK    6  A    between atoms: C_13  and  C_17
REMARK    7  A    between atoms: C_19  and  C_20
REMARK                            x       y       z     vdW  Elec       q    Type
REMARK                         _______ _______ _______ _____ _____    ______ ____
ROOT
ATOM      1  O   UNL     1      -3.186  -3.315  24.861  0.00  0.00    -0.376 OA
ATOM      6  C   UNL     1      -2.699  -1.252  24.588  0.00  0.00    +0.072 C 
ATOM     11  C   UNL     1      -2.162  -2.608  24.111  0.00  0.00    +0.184 C 
ATOM     12  C   UNL     1      -3.543  -2.092  25.557  0.00  0.00    +0.184 C 
ENDROOT
BRANCH   6   4
ATOM      4  N   UNL     1      -1.647  -0.576  25.356  0.00  0.00    -0.306 NA
ATOM     21  H   UNL     1      -1.961   0.191  25.947  0.00  0.00    +0.123 HD
BRANCH   4   8
ATOM      8  C   UNL     1      -0.602  -0.122  24.451  0.00  0.00    +0.085 C 
BRANCH   8   7
ATOM      7  C   UNL     1      -0.235   1.334  24.731  0.00  0.00    +0.003 C 
ATOM      9  C   UNL     1      -0.661   2.235  23.564  0.00  0.00    +0.005 C 
ATOM     10  C   UNL     1      -0.865   1.809  26.047  0.00  0.00    +0.005 C 
ATOM     14  C   UNL     1      -0.351   3.704  23.844  0.00  0.00    +0.000 C 
ATOM     15  C   UNL     1      -0.556   3.279  26.322  0.00  0.00    +0.000 C 
ATOM     16  C   UNL     1      -0.972   4.170  25.157  0.00  0.00    +0.000 C 
ENDBRANCH   8   7
ENDBRANCH   4   8
ENDBRANCH   6   4
BRANCH   6  13
ATOM     13  C   UNL     1      -3.397  -0.346  23.607  0.00  0.00    +0.085 C 
BRANCH  13  17
ATOM      2  O   UNL     1      -5.304   1.823  25.774  0.00  0.00    -0.357 OA
ATOM      5  N   UNL     1      -4.886   0.569  25.347  0.00  0.00    -0.083 NA
ATOM     17  C   UNL     1      -4.056   0.808  24.328  0.00  0.00    +0.086 A 
ATOM     18  C   UNL     1      -3.912   2.181  24.068  0.00  0.00    +0.073 A 
ATOM     19  C   UNL     1      -4.716   2.776  25.004  0.00  0.00    +0.163 A 
BRANCH  19  20
ATOM     20  C   UNL     1      -5.050   4.170  25.320  0.00  0.00    +0.232 C 
BRANCH  20   3
ATOM      3  O   UNL     1      -6.378   4.256  25.845  0.00  0.00    -0.387 OA
ATOM     22  H   UNL     1      -6.808   5.009  25.404  0.00  0.00    +0.210 HD
ENDBRANCH  20   3
ENDBRANCH  19  20
ENDBRANCH  13  17
ENDBRANCH   6  13
TORSDOF 7
ENDMDL
MODEL 7
REMARK VINA RESULT:      -5.7      1.810      4.139
REMARK  Name = 71694393
REMARK  7 active torsions:
REMARK  status: ('A' for Active; 'I' for Inactive)
REMARK    1  A    between atoms: O_3  and  C_20
REMARK    2  A    between atoms: N_4  and  C_6
REMARK    3  A    between atoms: N_4  and  C_8
REMARK    4  A    between atoms: C_6  and  C_13
REMARK    5  A    between atoms: C_7  and  C_8
REMARK    6  A    between atoms: C_13  and  C_17
REMARK    7  A    between atoms: C_19  and  C_20
REMARK                            x       y       z     vdW  Elec       q    Type
REMARK                         _______ _______ _______ _____ _____    ______ ____
ROOT
ATOM      1  O   UNL     1      -3.343  -3.025  25.477  0.00  0.00    -0.376 OA
ATOM      6  C   UNL     1      -2.566  -1.087  25.025  0.00  0.00    +0.072 C 
ATOM     11  C   UNL     1      -3.737  -1.672  25.826  0.00  0.00    +0.184 C 
ATOM     12  C   UNL     1      -2.410  -2.516  24.488  0.00  0.00    +0.184 C 
ENDROOT
BRANCH   6   4
ATOM      4  N   UNL     1      -3.107  -0.244  23.952  0.00  0.00    -0.306 NA
ATOM     21  H   UNL     1      -2.571   0.597  23.744  0.00  0.00    +0.123 HD
BRANCH   4   8
ATOM      8  C   UNL     1      -4.488   0.098  24.254  0.00  0.00    +0.085 C 
BRANCH   8   7
ATOM      7  C   UNL     1      -4.673   1.613  24.314  0.00  0.00    +0.003 C 
ATOM      9  C   UNL     1      -5.405   2.019  25.601  0.00  0.00    +0.005 C 
ATOM     10  C   UNL     1      -3.320   2.329  24.206  0.00  0.00    +0.005 C 
ATOM     14  C   UNL     1      -5.555   3.535  25.709  0.00  0.00    +0.000 C 
ATOM     15  C   UNL     1      -3.473   3.844  24.318  0.00  0.00    +0.000 C 
ATOM     16  C   UNL     1      -4.208   4.243  25.593  0.00  0.00    +0.000 C 
ENDBRANCH   8   7
ENDBRANCH   4   8
ENDBRANCH   6   4
BRANCH   6  13
ATOM     13  C   UNL     1      -1.413  -0.451  25.759  0.00  0.00    +0.085 C 
BRANCH  13  17
ATOM      2  O   UNL     1       0.883   1.456  23.728  0.00  0.00    -0.357 OA
ATOM      5  N   UNL     1      -0.100   1.350  24.703  0.00  0.00    -0.083 NA
ATOM     17  C   UNL     1      -0.373   0.045  24.781  0.00  0.00    +0.086 A 
ATOM     18  C   UNL     1       0.400  -0.715  23.887  0.00  0.00    +0.073 A 
ATOM     19  C   UNL     1       1.173   0.218  23.249  0.00  0.00    +0.163 A 
BRANCH  19  20
ATOM     20  C   UNL     1       2.200   0.145  22.202  0.00  0.00    +0.232 C 
BRANCH  20   3
ATOM      3  O   UNL     1       3.314   0.977  22.541  0.00  0.00    -0.387 OA
ATOM     22  H   UNL     1       3.467   0.868  23.496  0.00  0.00    +0.210 HD
ENDBRANCH  20   3
ENDBRANCH  19  20
ENDBRANCH  13  17
ENDBRANCH   6  13
TORSDOF 7
ENDMDL
MODEL 8
REMARK VINA RESULT:      -5.7      2.180      3.957
REMARK  Name = 71694393
REMARK  7 active torsions:
REMARK  status: ('A' for Active; 'I' for Inactive)
REMARK    1  A    between atoms: O_3  and  C_20
REMARK    2  A    between atoms: N_4  and  C_6
REMARK    3  A    between atoms: N_4  and  C_8
REMARK    4  A    between atoms: C_6  and  C_13
REMARK    5  A    between atoms: C_7  and  C_8
REMARK    6  A    between atoms: C_13  and  C_17
REMARK    7  A    between atoms: C_19  and  C_20
REMARK                            x       y       z     vdW  Elec       q    Type
REMARK                         _______ _______ _______ _____ _____    ______ ____
ROOT
ATOM      1  O   UNL     1      -1.452  -2.313  25.344  0.00  0.00    -0.376 OA
ATOM      6  C   UNL     1      -1.224  -0.491  24.253  0.00  0.00    +0.072 C 
ATOM     11  C   UNL     1      -0.510  -1.209  25.406  0.00  0.00    +0.184 C 
ATOM     12  C   UNL     1      -2.315  -1.549  24.462  0.00  0.00    +0.184 C 
ENDROOT
BRANCH   6   4
ATOM      4  N   UNL     1      -1.727   0.798  24.744  0.00  0.00    -0.306 NA
ATOM     21  H   UNL     1      -2.396   0.743  25.511  0.00  0.00    +0.123 HD
BRANCH   4   8
ATOM      8  C   UNL     1      -2.288   1.554  23.636  0.00  0.00    +0.085 C 
BRANCH   8   7
ATOM      7  C   UNL     1      -3.629   2.174  24.025  0.00  0.00    +0.003 C 
ATOM      9  C   UNL     1      -4.584   1.104  24.570  0.00  0.00    +0.005 C 
ATOM     10  C   UNL     1      -3.430   3.301  25.047  0.00  0.00    +0.005 C 
ATOM     14  C   UNL     1      -5.914   1.709  25.014  0.00  0.00    +0.000 C 
ATOM     15  C   UNL     1      -4.761   3.902  25.491  0.00  0.00    +0.000 C 
ATOM     16  C   UNL     1      -5.711   2.834  26.024  0.00  0.00    +0.000 C 
ENDBRANCH   8   7
ENDBRANCH   4   8
ENDBRANCH   6   4
BRANCH   6  13
ATOM     13  C   UNL     1      -0.546  -0.392  22.910  0.00  0.00    +0.085 C 
BRANCH  13  17
ATOM      2  O   UNL     1       2.393   1.548  23.707  0.00  0.00    -0.357 OA
ATOM      5  N   UNL     1       1.027   1.302  23.770  0.00  0.00    -0.083 NA
ATOM     17  C   UNL     1       0.843   0.185  23.060  0.00  0.00    +0.086 A 
ATOM     18  C   UNL     1       2.045  -0.314  22.529  0.00  0.00    +0.073 A 
ATOM     19  C   UNL     1       2.989   0.578  22.965  0.00  0.00    +0.163 A 
BRANCH  19  20
ATOM     20  C   UNL     1       4.443   0.685  22.795  0.00  0.00    +0.232 C 
BRANCH  20   3
ATOM      3  O   UNL     1       5.094   0.658  24.068  0.00  0.00    -0.387 OA
ATOM     22  H   UNL     1       4.744   1.408  24.580  0.00  0.00    +0.210 HD
ENDBRANCH  20   3
ENDBRANCH  19  20
ENDBRANCH  13  17
ENDBRANCH   6  13
TORSDOF 7
ENDMDL
MODEL 9
REMARK VINA RESULT:      -4.5      2.239      4.509
REMARK  Name = 71694393
REMARK  7 active torsions:
REMARK  status: ('A' for Active; 'I' for Inactive)
REMARK    1  A    between atoms: O_3  and  C_20
REMARK    2  A    between atoms: N_4  and  C_6
REMARK    3  A    between atoms: N_4  and  C_8
REMARK    4  A    between atoms: C_6  and  C_13
REMARK    5  A    between atoms: C_7  and  C_8
REMARK    6  A    between atoms: C_13  and  C_17
REMARK    7  A    between atoms: C_19  and  C_20
REMARK                            x       y       z     vdW  Elec       q    Type
REMARK                         _______ _______ _______ _____ _____    ______ ____
ROOT
ATOM      1  O   UNL     1      -1.605  -2.921  24.909  0.00  0.00    -0.376 OA
ATOM      6  C   UNL     1      -0.758  -1.003  24.500  0.00  0.00    +0.072 C 
ATOM     11  C   UNL     1      -0.262  -2.373  24.984  0.00  0.00    +0.184 C 
ATOM     12  C   UNL     1      -2.156  -1.590  24.731  0.00  0.00    +0.184 C 
ENDROOT
BRANCH   6   4
ATOM      4  N   UNL     1      -0.491  -0.012  25.549  0.00  0.00    -0.306 NA
ATOM     21  H   UNL     1      -0.034  -0.372  26.385  0.00  0.00    +0.123 HD
BRANCH   4   8
ATOM      8  C   UNL     1      -1.729   0.667  25.901  0.00  0.00    +0.085 C 
BRANCH   8   7
ATOM      7  C   UNL     1      -1.858   1.989  25.147  0.00  0.00    +0.003 C 
ATOM      9  C   UNL     1      -3.329   2.410  25.038  0.00  0.00    +0.005 C 
ATOM     10  C   UNL     1      -1.024   3.084  25.826  0.00  0.00    +0.005 C 
ATOM     14  C   UNL     1      -3.479   3.757  24.333  0.00  0.00    +0.000 C 
ATOM     15  C   UNL     1      -1.179   4.429  25.120  0.00  0.00    +0.000 C 
ATOM     16  C   UNL     1      -2.643   4.840  25.006  0.00  0.00    +0.000 C 
ENDBRANCH   8   7
ENDBRANCH   4   8
ENDBRANCH   6   4
BRANCH   6  13
ATOM     13  C   UNL     1      -0.382  -0.526  23.121  0.00  0.00    +0.085 C 
BRANCH  13  17
ATOM      2  O   UNL     1       2.506   1.614  23.457  0.00  0.00    -0.357 OA
ATOM      5  N   UNL     1       1.146   1.355  23.577  0.00  0.00    -0.083 NA
ATOM     17  C   UNL     1       0.991   0.104  23.134  0.00  0.00    +0.086 A 
ATOM     18  C   UNL     1       2.207  -0.471  22.725  0.00  0.00    +0.073 A 
ATOM     19  C   UNL     1       3.128   0.518  22.949  0.00  0.00    +0.163 A 
BRANCH  19  20
ATOM     20  C   UNL     1       4.579   0.619  22.755  0.00  0.00    +0.232 C 
BRANCH  20   3
ATOM      3  O   UNL     1       5.244   0.691  24.020  0.00  0.00    -0.387 OA
ATOM     22  H   UNL     1       4.563   0.886  24.686  0.00  0.00    +0.210 HD
ENDBRANCH  20   3
ENDBRANCH  19  20
ENDBRANCH  13  17
ENDBRANCH   6  13
TORSDOF 7
ENDMDL
MODEL 10
REMARK VINA RESULT:      -4.4     14.277     16.261
REMARK  Name = 71694393
REMARK  7 active torsions:
REMARK  status: ('A' for Active; 'I' for Inactive)
REMARK    1  A    between atoms: O_3  and  C_20
REMARK    2  A    between atoms: N_4  and  C_6
REMARK    3  A    between atoms: N_4  and  C_8
REMARK    4  A    between atoms: C_6  and  C_13
REMARK    5  A    between atoms: C_7  and  C_8
REMARK    6  A    between atoms: C_13  and  C_17
REMARK    7  A    between atoms: C_19  and  C_20
REMARK                            x       y       z     vdW  Elec       q    Type
REMARK                         _______ _______ _______ _____ _____    ______ ____
ROOT
ATOM      1  O   UNL     1      -5.823  -8.086   9.606  0.00  0.00    -0.376 OA
ATOM      6  C   UNL     1      -5.872  -9.405  11.285  0.00  0.00    +0.072 C 
ATOM     11  C   UNL     1      -6.778  -9.064  10.095  0.00  0.00    +0.184 C 
ATOM     12  C   UNL     1      -5.080  -8.165  10.850  0.00  0.00    +0.184 C 
ENDROOT
BRANCH   6   4
ATOM      4  N   UNL     1      -6.588  -9.086  12.526  0.00  0.00    -0.306 NA
ATOM     21  H   UNL     1      -6.001  -8.814  13.313  0.00  0.00    +0.123 HD
BRANCH   4   8
ATOM      8  C   UNL     1      -7.442 -10.205  12.895  0.00  0.00    +0.085 C 
BRANCH   8   7
ATOM      7  C   UNL     1      -7.535 -10.340  14.414  0.00  0.00    +0.003 C 
ATOM      9  C   UNL     1      -6.337  -9.662  15.093  0.00  0.00    +0.005 C 
ATOM     10  C   UNL     1      -8.857  -9.759  14.930  0.00  0.00    +0.005 C 
ATOM     14  C   UNL     1      -6.435  -9.740  16.615  0.00  0.00    +0.000 C 
ATOM     15  C   UNL     1      -8.950  -9.835  16.452  0.00  0.00    +0.000 C 
ATOM     16  C   UNL     1      -7.755  -9.169  17.124  0.00  0.00    +0.000 C 
ENDBRANCH   8   7
ENDBRANCH   4   8
ENDBRANCH   6   4
BRANCH   6  13
ATOM     13  C   UNL     1      -5.176 -10.741  11.326  0.00  0.00    +0.085 C 
BRANCH  13  17
ATOM      2  O   UNL     1      -1.788 -10.387  12.523  0.00  0.00    -0.357 OA
ATOM      5  N   UNL     1      -2.739 -10.412  11.510  0.00  0.00    -0.083 NA
ATOM     17  C   UNL     1      -3.899 -10.649  12.129  0.00  0.00    +0.086 A 
ATOM     18  C   UNL     1      -3.744 -10.781  13.520  0.00  0.00    +0.073 A 
ATOM     19  C   UNL     1      -2.399 -10.608  13.716  0.00  0.00    +0.163 A 
BRANCH  19  20
ATOM     20  C   UNL     1      -1.535 -10.615  14.902  0.00  0.00    +0.232 C 
BRANCH  20   3
ATOM      3  O   UNL     1      -1.153  -9.280  15.246  0.00  0.00    -0.387 OA
ATOM     22  H   UNL     1      -1.744  -8.683  14.756  0.00  0.00    +0.210 HD
ENDBRANCH  20   3
ENDBRANCH  19  20
ENDBRANCH  13  17
ENDBRANCH   6  13
TORSDOF 7
ENDMDL
