MODEL 1
REMARK VINA RESULT:       8.3      0.000      0.000
REMARK  Name = 11885295
REMARK  3 active torsions:
REMARK  status: ('A' for Active; 'I' for Inactive)
REMARK    1  A    between atoms: N_3  and  C_12
REMARK    2  A    between atoms: C_12  and  C_17
REMARK    3  A    between atoms: C_15  and  C_18
REMARK                            x       y       z     vdW  Elec       q    Type
REMARK                         _______ _______ _______ _____ _____    ______ ____
ROOT
ATOM      2  O   UNL     1       0.684   2.636  25.669  0.00  0.00    -0.267 OA
ATOM      3  N   UNL     1      -4.236   1.729  25.331  0.00  0.00    -0.297 NA
ATOM      4  N   UNL     1      -1.388   3.001  24.664  0.00  0.00    -0.311 N 
ATOM      5  C   UNL     1      -3.380   4.009  25.923  0.00  0.00    +0.024 C 
ATOM      6  C   UNL     1      -3.621   3.388  23.567  0.00  0.00    +0.050 C 
ATOM      7  C   UNL     1      -3.787   4.540  24.555  0.00  0.00    +0.017 C 
ATOM      8  C   UNL     1      -4.276   2.817  26.317  0.00  0.00    +0.090 C 
ATOM      9  C   UNL     1      -4.544   2.217  23.979  0.00  0.00    +0.094 C 
ATOM     10  C   UNL     1      -1.890   3.641  25.888  0.00  0.00    +0.130 C 
ATOM     11  C   UNL     1      -2.175   2.930  23.512  0.00  0.00    +0.026 A 
ATOM     13  C   UNL     1      -1.659   2.442  22.373  0.00  0.00    +0.022 A 
ATOM     14  C   UNL     1      -0.051   2.559  24.683  0.00  0.00    +0.259 A 
ATOM     15  C   UNL     1       0.489   1.985  23.400  0.00  0.00    +0.047 A 
ATOM     16  C   UNL     1      -0.309   1.958  22.322  0.00  0.00    +0.015 A 
ENDROOT
BRANCH  15  18
ATOM     18  C   UNL     1       1.861   1.454  23.318  0.00  0.00    -0.012 A 
ATOM     21  C   UNL     1       2.116   0.124  23.658  0.00  0.00    +0.017 A 
ATOM     22  C   UNL     1       2.903   2.278  22.902  0.00  0.00    +0.009 A 
ATOM     25  C   UNL     1       3.419  -0.397  23.586  0.00  0.00    -0.017 A 
ATOM     27  C   UNL     1       4.203   1.776  22.824  0.00  0.00    +0.009 A 
ATOM     28  C   UNL     1       4.477   0.441  23.163  0.00  0.00    -0.018 A 
ATOM     29  C   UNL     1       3.693  -1.732  23.924  0.00  0.00    +0.008 A 
ATOM     30  C   UNL     1       5.780  -0.081  23.090  0.00  0.00    +0.008 A 
ATOM     31  C   UNL     1       4.992  -2.234  23.846  0.00  0.00    +0.001 A 
ATOM     32  C   UNL     1       6.033  -1.409  23.430  0.00  0.00    +0.001 A 
ENDBRANCH  15  18
BRANCH   3  12
ATOM     12  C   UNL     1      -5.137   0.643  25.712  0.00  0.00    +0.119 C 
BRANCH  12  17
ATOM      1  F   UNL     1      -3.147  -4.327  24.001  0.00  0.00    -0.205 F 
ATOM     17  C   UNL     1      -4.605  -0.687  25.254  0.00  0.00    -0.033 A 
ATOM     19  C   UNL     1      -4.983  -1.186  24.014  0.00  0.00    +0.008 A 
ATOM     20  C   UNL     1      -3.743  -1.399  26.077  0.00  0.00    +0.008 A 
ATOM     23  C   UNL     1      -4.489  -2.419  23.590  0.00  0.00    +0.038 A 
ATOM     24  C   UNL     1      -3.249  -2.632  25.653  0.00  0.00    +0.038 A 
ATOM     26  C   UNL     1      -3.622  -3.143  24.409  0.00  0.00    +0.123 A 
ENDBRANCH  12  17
ENDBRANCH   3  12
TORSDOF 3
ENDMDL
MODEL 2
REMARK VINA RESULT:      11.3      2.561      4.659
REMARK  Name = 11885295
REMARK  3 active torsions:
REMARK  status: ('A' for Active; 'I' for Inactive)
REMARK    1  A    between atoms: N_3  and  C_12
REMARK    2  A    between atoms: C_12  and  C_17
REMARK    3  A    between atoms: C_15  and  C_18
REMARK                            x       y       z     vdW  Elec       q    Type
REMARK                         _______ _______ _______ _____ _____    ______ ____
ROOT
ATOM      2  O   UNL     1      -0.393  -0.415  22.048  0.00  0.00    -0.267 OA
ATOM      3  N   UNL     1      -4.281   0.403  25.106  0.00  0.00    -0.297 NA
ATOM      4  N   UNL     1      -1.862  -1.135  23.709  0.00  0.00    -0.311 N 
ATOM      5  C   UNL     1      -4.386  -1.358  23.324  0.00  0.00    +0.024 C 
ATOM      6  C   UNL     1      -3.437  -1.913  25.512  0.00  0.00    +0.050 C 
ATOM      7  C   UNL     1      -4.300  -2.456  24.377  0.00  0.00    +0.017 C 
ATOM      8  C   UNL     1      -5.017  -0.089  23.934  0.00  0.00    +0.090 C 
ATOM      9  C   UNL     1      -4.105  -0.654  26.112  0.00  0.00    +0.094 C 
ATOM     10  C   UNL     1      -2.982  -1.104  22.758  0.00  0.00    +0.130 C 
ATOM     11  C   UNL     1      -2.039  -1.587  25.019  0.00  0.00    +0.026 A 
ATOM     13  C   UNL     1      -0.983  -1.714  25.837  0.00  0.00    +0.022 A 
ATOM     14  C   UNL     1      -0.594  -0.786  23.205  0.00  0.00    +0.259 A 
ATOM     15  C   UNL     1       0.567  -0.905  24.157  0.00  0.00    +0.047 A 
ATOM     16  C   UNL     1       0.337  -1.360  25.397  0.00  0.00    +0.015 A 
ENDROOT
BRANCH  15  18
ATOM     18  C   UNL     1       1.931  -0.525  23.749  0.00  0.00    -0.012 A 
ATOM     21  C   UNL     1       3.018  -1.319  24.119  0.00  0.00    +0.017 A 
ATOM     22  C   UNL     1       2.137   0.628  22.995  0.00  0.00    +0.009 A 
ATOM     25  C   UNL     1       4.324  -0.970  23.738  0.00  0.00    -0.017 A 
ATOM     27  C   UNL     1       3.428   0.989  22.608  0.00  0.00    +0.009 A 
ATOM     28  C   UNL     1       4.531   0.201  22.971  0.00  0.00    -0.018 A 
ATOM     29  C   UNL     1       5.428  -1.758  24.101  0.00  0.00    +0.008 A 
ATOM     30  C   UNL     1       5.838   0.550  22.590  0.00  0.00    +0.008 A 
ATOM     31  C   UNL     1       6.719  -1.397  23.713  0.00  0.00    +0.001 A 
ATOM     32  C   UNL     1       6.923  -0.244  22.960  0.00  0.00    +0.001 A 
ENDBRANCH  15  18
BRANCH   3  12
ATOM     12  C   UNL     1      -4.940   1.572  25.686  0.00  0.00    +0.119 C 
BRANCH  12  17
ATOM      1  F   UNL     1      -1.616   6.097  25.437  0.00  0.00    -0.205 F 
ATOM     17  C   UNL     1      -4.050   2.783  25.620  0.00  0.00    -0.033 A 
ATOM     19  C   UNL     1      -2.796   2.678  25.034  0.00  0.00    +0.008 A 
ATOM     20  C   UNL     1      -4.495   3.988  26.144  0.00  0.00    +0.008 A 
ATOM     23  C   UNL     1      -1.971   3.802  24.973  0.00  0.00    +0.038 A 
ATOM     24  C   UNL     1      -3.671   5.111  26.082  0.00  0.00    +0.038 A 
ATOM     26  C   UNL     1      -2.408   5.019  25.497  0.00  0.00    +0.123 A 
ENDBRANCH  12  17
ENDBRANCH   3  12
TORSDOF 3
ENDMDL
