MODEL 1
REMARK VINA RESULT:      30.6      0.000      0.000
REMARK  Name = 7142422
REMARK  3 active torsions:
REMARK  status: ('A' for Active; 'I' for Inactive)
REMARK    1  A    between atoms: C_18  and  C_22
REMARK    2  A    between atoms: C_21  and  C_24
REMARK    3  A    between atoms: C_31  and  C_35
REMARK                            x       y       z     vdW  Elec       q    Type
REMARK                         _______ _______ _______ _____ _____    ______ ____
ROOT
ATOM      4  O   UNL     1       2.717  -0.595  21.197  0.00  0.00    -0.273 OA
ATOM      5  O   UNL     1       0.876   2.654  24.936  0.00  0.00    -0.270 OA
ATOM      6  O   UNL     1       5.572  -2.655  23.213  0.00  0.00    -0.270 OA
ATOM      7  N   UNL     1       2.019   0.834  24.083  0.00  0.00    -0.283 N 
ATOM      8  N   UNL     1       4.470  -0.663  23.635  0.00  0.00    -0.294 N 
ATOM      9  N   UNL     1       0.615   0.205  21.556  0.00  0.00    -0.283 N 
ATOM     10  C   UNL     1       1.973  -0.495  23.492  0.00  0.00    +0.180 C 
ATOM     11  C   UNL     1       3.193  -1.349  23.855  0.00  0.00    +0.140 C 
ATOM     12  C   UNL     1       3.297   1.273  24.647  0.00  0.00    +0.128 C 
ATOM     13  C   UNL     1       4.475   0.794  23.812  0.00  0.00    +0.127 C 
ATOM     14  C   UNL     1       1.830  -0.278  21.994  0.00  0.00    +0.239 C 
ATOM     15  C   UNL     1       0.885   1.616  24.272  0.00  0.00    +0.249 C 
ATOM     16  C   UNL     1      -0.388   1.209  23.619  0.00  0.00    +0.059 A 
ATOM     17  C   UNL     1      -0.474   0.655  22.331  0.00  0.00    +0.046 A 
ATOM     18  C   UNL     1       5.618  -1.431  23.354  0.00  0.00    +0.247 C 
ATOM     19  C   UNL     1      -1.568   1.579  24.290  0.00  0.00    +0.023 A 
ATOM     20  C   UNL     1      -1.735   0.552  21.717  0.00  0.00    +0.024 A 
ATOM     21  C   UNL     1      -2.815   1.424  23.686  0.00  0.00    -0.017 A 
ATOM     23  C   UNL     1      -2.898   0.923  22.394  0.00  0.00    +0.010 A 
ATOM     36  H   UNL     1       0.453   0.136  20.554  0.00  0.00    +0.155 HD
ENDROOT
BRANCH  18  22
ATOM     22  C   UNL     1       6.890  -0.722  23.247  0.00  0.00    +0.037 A 
ATOM     25  C   UNL     1       7.048   0.514  23.867  0.00  0.00    +0.013 A 
ATOM     26  C   UNL     1       7.938  -1.286  22.525  0.00  0.00    +0.013 A 
ATOM     29  C   UNL     1       8.263   1.191  23.765  0.00  0.00    +0.001 A 
ATOM     30  C   UNL     1       9.153  -0.609  22.422  0.00  0.00    +0.001 A 
ATOM     32  C   UNL     1       9.315   0.630  23.042  0.00  0.00    +0.000 A 
ENDBRANCH  18  22
BRANCH  21  24
ATOM     24  C   UNL     1      -4.017   1.807  24.394  0.00  0.00    -0.017 A 
ATOM     27  C   UNL     1      -4.294   3.155  24.621  0.00  0.00    +0.021 A 
ATOM     28  C   UNL     1      -4.898   0.827  24.852  0.00  0.00    +0.008 A 
ATOM     31  C   UNL     1      -5.453   3.523  25.304  0.00  0.00    +0.055 A 
ATOM     33  C   UNL     1      -6.057   1.194  25.535  0.00  0.00    +0.001 A 
ATOM     34  C   UNL     1      -6.335   2.543  25.762  0.00  0.00    +0.012 A 
BRANCH  31  35
ATOM      1  F   UNL     1      -7.005   5.187  26.041  0.00  0.00    -0.166 F 
ATOM      2  F   UNL     1      -5.667   5.737  24.425  0.00  0.00    -0.166 F 
ATOM      3  F   UNL     1      -4.896   5.532  26.448  0.00  0.00    -0.166 F 
ATOM     35  C   UNL     1      -5.751   4.964  25.548  0.00  0.00    +0.417 C 
ENDBRANCH  31  35
ENDBRANCH  21  24
TORSDOF 3
ENDMDL
MODEL 2
REMARK VINA RESULT:      31.0      5.050     10.818
REMARK  Name = 7142422
REMARK  3 active torsions:
REMARK  status: ('A' for Active; 'I' for Inactive)
REMARK    1  A    between atoms: C_18  and  C_22
REMARK    2  A    between atoms: C_21  and  C_24
REMARK    3  A    between atoms: C_31  and  C_35
REMARK                            x       y       z     vdW  Elec       q    Type
REMARK                         _______ _______ _______ _____ _____    ______ ____
ROOT
ATOM      4  O   UNL     1      -0.973   3.921  23.709  0.00  0.00    -0.273 OA
ATOM      5  O   UNL     1       0.827  -1.046  23.569  0.00  0.00    -0.270 OA
ATOM      6  O   UNL     1      -3.273   3.880  27.051  0.00  0.00    -0.270 OA
ATOM      7  N   UNL     1      -0.149   0.831  24.503  0.00  0.00    -0.283 N 
ATOM      8  N   UNL     1      -2.410   2.202  25.710  0.00  0.00    -0.294 N 
ATOM      9  N   UNL     1       1.028   3.093  23.004  0.00  0.00    -0.283 N 
ATOM     10  C   UNL     1       0.009   2.170  25.051  0.00  0.00    +0.180 C 
ATOM     11  C   UNL     1      -1.035   2.498  26.124  0.00  0.00    +0.140 C 
ATOM     12  C   UNL     1      -1.401   0.130  24.795  0.00  0.00    +0.128 C 
ATOM     13  C   UNL     1      -2.592   1.077  24.785  0.00  0.00    +0.127 C 
ATOM     14  C   UNL     1      -0.052   3.115  23.861  0.00  0.00    +0.239 C 
ATOM     15  C   UNL     1       0.883   0.148  23.868  0.00  0.00    +0.249 C 
ATOM     16  C   UNL     1       2.116   0.892  23.495  0.00  0.00    +0.059 A 
ATOM     17  C   UNL     1       2.127   2.210  23.009  0.00  0.00    +0.046 A 
ATOM     18  C   UNL     1      -3.468   2.942  26.277  0.00  0.00    +0.247 C 
ATOM     19  C   UNL     1       3.304   0.139  23.472  0.00  0.00    +0.023 A 
ATOM     20  C   UNL     1       3.312   2.718  22.446  0.00  0.00    +0.024 A 
ATOM     21  C   UNL     1       4.482   0.674  22.955  0.00  0.00    -0.017 A 
ATOM     23  C   UNL     1       4.483   1.960  22.429  0.00  0.00    +0.010 A 
ATOM     36  H   UNL     1       1.082   3.871  22.349  0.00  0.00    +0.155 HD
ENDROOT
BRANCH  18  22
ATOM     22  C   UNL     1      -4.828   2.547  25.921  0.00  0.00    +0.037 A 
ATOM     25  C   UNL     1      -5.194   2.457  24.581  0.00  0.00    +0.013 A 
ATOM     26  C   UNL     1      -5.750   2.262  26.923  0.00  0.00    +0.013 A 
ATOM     29  C   UNL     1      -6.493   2.079  24.241  0.00  0.00    +0.001 A 
ATOM     30  C   UNL     1      -7.049   1.884  26.583  0.00  0.00    +0.001 A 
ATOM     32  C   UNL     1      -7.421   1.793  25.243  0.00  0.00    +0.000 A 
ENDBRANCH  18  22
BRANCH  21  24
ATOM     24  C   UNL     1       5.694  -0.114  22.944  0.00  0.00    -0.017 A 
ATOM     27  C   UNL     1       6.925   0.494  23.189  0.00  0.00    +0.021 A 
ATOM     28  C   UNL     1       5.633  -1.485  22.686  0.00  0.00    +0.008 A 
ATOM     31  C   UNL     1       8.094  -0.266  23.178  0.00  0.00    +0.055 A 
ATOM     33  C   UNL     1       6.802  -2.246  22.674  0.00  0.00    +0.001 A 
ATOM     34  C   UNL     1       8.033  -1.637  22.920  0.00  0.00    +0.012 A 
BRANCH  31  35
ATOM      1  F   UNL     1      10.100  -0.179  24.478  0.00  0.00    -0.166 F 
ATOM      2  F   UNL     1       9.314   1.709  23.753  0.00  0.00    -0.166 F 
ATOM      3  F   UNL     1      10.251   0.321  22.366  0.00  0.00    -0.166 F 
ATOM     35  C   UNL     1       9.411   0.383  23.440  0.00  0.00    +0.417 C 
ENDBRANCH  31  35
ENDBRANCH  21  24
TORSDOF 3
ENDMDL
MODEL 3
REMARK VINA RESULT:      31.8      1.441      1.860
REMARK  Name = 7142422
REMARK  3 active torsions:
REMARK  status: ('A' for Active; 'I' for Inactive)
REMARK    1  A    between atoms: C_18  and  C_22
REMARK    2  A    between atoms: C_21  and  C_24
REMARK    3  A    between atoms: C_31  and  C_35
REMARK                            x       y       z     vdW  Elec       q    Type
REMARK                         _______ _______ _______ _____ _____    ______ ____
ROOT
ATOM      4  O   UNL     1       2.303  -0.663  21.260  0.00  0.00    -0.273 OA
ATOM      5  O   UNL     1       0.922   3.071  24.736  0.00  0.00    -0.270 OA
ATOM      6  O   UNL     1       5.022  -2.807  23.374  0.00  0.00    -0.270 OA
ATOM      7  N   UNL     1       1.854   1.078  24.021  0.00  0.00    -0.283 N 
ATOM      8  N   UNL     1       4.132  -0.687  23.642  0.00  0.00    -0.294 N 
ATOM      9  N   UNL     1       0.303   0.370  21.604  0.00  0.00    -0.283 N 
ATOM     10  C   UNL     1       1.658  -0.287  23.556  0.00  0.00    +0.180 C 
ATOM     11  C   UNL     1       2.804  -1.221  23.961  0.00  0.00    +0.140 C 
ATOM     12  C   UNL     1       3.188   1.437  24.506  0.00  0.00    +0.128 C 
ATOM     13  C   UNL     1       4.283   0.772  23.686  0.00  0.00    +0.127 C 
ATOM     14  C   UNL     1       1.481  -0.191  22.049  0.00  0.00    +0.239 C 
ATOM     15  C   UNL     1       0.807   1.982  24.170  0.00  0.00    +0.249 C 
ATOM     16  C   UNL     1      -0.523   1.646  23.594  0.00  0.00    +0.059 A 
ATOM     17  C   UNL     1      -0.708   0.992  22.364  0.00  0.00    +0.046 A 
ATOM     18  C   UNL     1       5.190  -1.587  23.401  0.00  0.00    +0.247 C 
ATOM     19  C   UNL     1      -1.636   2.188  24.261  0.00  0.00    +0.023 A 
ATOM     20  C   UNL     1      -1.996   0.960  21.799  0.00  0.00    +0.024 A 
ATOM     21  C   UNL     1      -2.913   2.105  23.710  0.00  0.00    -0.017 A 
ATOM     23  C   UNL     1      -3.092   1.502  22.472  0.00  0.00    +0.010 A 
ATOM     36  H   UNL     1       0.097   0.229  20.617  0.00  0.00    +0.155 HD
ENDROOT
BRANCH  18  22
ATOM     22  C   UNL     1       6.519  -1.018  23.193  0.00  0.00    +0.037 A 
ATOM     25  C   UNL     1       6.877   0.160  23.841  0.00  0.00    +0.013 A 
ATOM     26  C   UNL     1       7.421  -1.659  22.348  0.00  0.00    +0.013 A 
ATOM     29  C   UNL     1       8.147   0.703  23.643  0.00  0.00    +0.001 A 
ATOM     30  C   UNL     1       8.690  -1.117  22.149  0.00  0.00    +0.001 A 
ATOM     32  C   UNL     1       9.053   0.064  22.796  0.00  0.00    +0.000 A 
ENDBRANCH  18  22
BRANCH  21  24
ATOM     24  C   UNL     1      -4.046   2.665  24.413  0.00  0.00    -0.017 A 
ATOM     27  C   UNL     1      -4.718   1.905  25.370  0.00  0.00    +0.021 A 
ATOM     28  C   UNL     1      -4.467   3.966  24.134  0.00  0.00    +0.008 A 
ATOM     31  C   UNL     1      -5.811   2.445  26.048  0.00  0.00    +0.055 A 
ATOM     33  C   UNL     1      -5.560   4.507  24.811  0.00  0.00    +0.001 A 
ATOM     34  C   UNL     1      -6.232   3.746  25.769  0.00  0.00    +0.012 A 
BRANCH  31  35
ATOM      1  F   UNL     1      -7.881   1.576  26.871  0.00  0.00    -0.166 F 
ATOM      2  F   UNL     1      -6.379   2.100  28.346  0.00  0.00    -0.166 F 
ATOM      3  F   UNL     1      -6.109   0.336  27.103  0.00  0.00    -0.166 F 
ATOM     35  C   UNL     1      -6.531   1.634  27.072  0.00  0.00    +0.417 C 
ENDBRANCH  31  35
ENDBRANCH  21  24
TORSDOF 3
ENDMDL
MODEL 4
REMARK VINA RESULT:      32.3      4.675     10.505
REMARK  Name = 7142422
REMARK  3 active torsions:
REMARK  status: ('A' for Active; 'I' for Inactive)
REMARK    1  A    between atoms: C_18  and  C_22
REMARK    2  A    between atoms: C_21  and  C_24
REMARK    3  A    between atoms: C_31  and  C_35
REMARK                            x       y       z     vdW  Elec       q    Type
REMARK                         _______ _______ _______ _____ _____    ______ ____
ROOT
ATOM      4  O   UNL     1      -0.960  -1.277  24.177  0.00  0.00    -0.273 OA
ATOM      5  O   UNL     1       2.845   2.333  24.826  0.00  0.00    -0.270 OA
ATOM      6  O   UNL     1      -3.751   0.816  22.106  0.00  0.00    -0.270 OA
ATOM      7  N   UNL     1       0.933   1.408  23.913  0.00  0.00    -0.283 N 
ATOM      8  N   UNL     1      -1.924   1.453  23.377  0.00  0.00    -0.294 N 
ATOM      9  N   UNL     1       1.305  -1.510  24.233  0.00  0.00    -0.283 N 
ATOM     10  C   UNL     1       0.332   0.413  23.035  0.00  0.00    +0.180 C 
ATOM     11  C   UNL     1      -0.979   0.895  22.404  0.00  0.00    +0.140 C 
ATOM     12  C   UNL     1       0.099   2.543  24.310  0.00  0.00    +0.128 C 
ATOM     13  C   UNL     1      -1.345   2.126  24.546  0.00  0.00    +0.127 C 
ATOM     14  C   UNL     1       0.154  -0.835  23.884  0.00  0.00    +0.239 C 
ATOM     15  C   UNL     1       2.283   1.403  24.245  0.00  0.00    +0.249 C 
ATOM     16  C   UNL     1       3.102   0.205  23.917  0.00  0.00    +0.059 A 
ATOM     17  C   UNL     1       2.643  -1.119  24.020  0.00  0.00    +0.046 A 
ATOM     18  C   UNL     1      -3.305   1.391  23.101  0.00  0.00    +0.247 C 
ATOM     19  C   UNL     1       4.465   0.444  23.663  0.00  0.00    +0.023 A 
ATOM     20  C   UNL     1       3.574  -2.170  23.937  0.00  0.00    +0.024 A 
ATOM     21  C   UNL     1       5.366  -0.611  23.535  0.00  0.00    -0.017 A 
ATOM     23  C   UNL     1       4.923  -1.919  23.685  0.00  0.00    +0.010 A 
ATOM     36  H   UNL     1       1.167  -2.448  24.602  0.00  0.00    +0.155 HD
ENDROOT
BRANCH  18  22
ATOM     22  C   UNL     1      -4.207   2.051  24.041  0.00  0.00    +0.037 A 
ATOM     25  C   UNL     1      -5.103   1.293  24.789  0.00  0.00    +0.013 A 
ATOM     26  C   UNL     1      -4.164   3.435  24.184  0.00  0.00    +0.013 A 
ATOM     29  C   UNL     1      -5.964   1.924  25.687  0.00  0.00    +0.001 A 
ATOM     30  C   UNL     1      -5.025   4.066  25.082  0.00  0.00    +0.001 A 
ATOM     32  C   UNL     1      -5.925   3.311  25.833  0.00  0.00    +0.000 A 
ENDBRANCH  18  22
BRANCH  21  24
ATOM     24  C   UNL     1       6.763  -0.345  23.270  0.00  0.00    -0.017 A 
ATOM     27  C   UNL     1       7.354   0.823  23.749  0.00  0.00    +0.021 A 
ATOM     28  C   UNL     1       7.519  -1.258  22.533  0.00  0.00    +0.008 A 
ATOM     31  C   UNL     1       8.701   1.080  23.492  0.00  0.00    +0.055 A 
ATOM     33  C   UNL     1       8.866  -1.002  22.275  0.00  0.00    +0.001 A 
ATOM     34  C   UNL     1       9.457   0.168  22.755  0.00  0.00    +0.012 A 
BRANCH  31  35
ATOM      1  F   UNL     1       8.444   3.205  24.559  0.00  0.00    -0.166 F 
ATOM      2  F   UNL     1       9.986   3.046  23.042  0.00  0.00    -0.166 F 
ATOM      3  F   UNL     1      10.264   2.088  24.974  0.00  0.00    -0.166 F 
ATOM     35  C   UNL     1       9.334   2.330  24.004  0.00  0.00    +0.417 C 
ENDBRANCH  31  35
ENDBRANCH  21  24
TORSDOF 3
ENDMDL
