MODEL 1
REMARK VINA RESULT:      -3.0      0.000      0.000
REMARK  Name = 28961487
REMARK  13 active torsions:
REMARK  status: ('A' for Active; 'I' for Inactive)
REMARK    1  A    between atoms: O_3  and  C_12
REMARK    2  A    between atoms: O_4  and  C_15
REMARK    3  A    between atoms: N_6  and  C_10
REMARK    4  A    between atoms: N_6  and  C_16
REMARK    5  A    between atoms: N_6  and  C_17
REMARK    6  A    between atoms: N_7  and  C_14
REMARK    7  A    between atoms: N_8  and  C_18
REMARK    8  A    between atoms: N_8  and  C_20
REMARK    9  A    between atoms: N_8  and  C_21
REMARK   10  A    between atoms: N_9  and  C_22
REMARK   11  A    between atoms: C_11  and  C_14
REMARK   12  A    between atoms: C_13  and  C_15
REMARK   13  A    between atoms: C_16  and  C_18
REMARK                            x       y       z     vdW  Elec       q    Type
REMARK                         _______ _______ _______ _____ _____    ______ ____
ROOT
ATOM      2  O   UNL     1      -1.427   3.063  25.216  0.00  0.00    -0.365 OA
ATOM     10  C   UNL     1      -3.618   2.165  25.472  0.00  0.00    +0.118 C 
ATOM     11  C   UNL     1      -2.200   1.869  24.962  0.00  0.00    +0.155 C 
ATOM     12  C   UNL     1      -3.708   3.680  25.374  0.00  0.00    +0.165 C 
ATOM     13  C   UNL     1      -2.291   4.073  25.774  0.00  0.00    +0.174 C 
ENDROOT
BRANCH  12   3
ATOM      3  O   UNL     1      -3.981   4.101  24.043  0.00  0.00    -0.388 OA
ATOM     28  H   UNL     1      -4.296   3.326  23.549  0.00  0.00    +0.210 HD
ENDBRANCH  12   3
BRANCH  10   6
ATOM      6  N   UNL     1      -4.696   1.437  24.829  0.00  0.00    -0.296 NA
ATOM     17  C   UNL     1      -5.992   2.054  25.126  0.00  0.00    +0.105 C 
BRANCH   6  16
ATOM     16  C   UNL     1      -4.701   0.032  25.248  0.00  0.00    +0.100 C 
BRANCH  16  18
ATOM     18  C   UNL     1      -4.310  -0.868  24.079  0.00  0.00    +0.099 C 
BRANCH  18   8
ATOM      8  N   UNL     1      -3.184  -1.716  24.452  0.00  0.00    -0.307 NA
ATOM     20  C   UNL     1      -3.533  -3.130  24.305  0.00  0.00    +0.104 C 
ATOM     21  C   UNL     1      -2.763  -1.437  25.826  0.00  0.00    +0.104 C 
ENDBRANCH  18   8
ENDBRANCH  16  18
ENDBRANCH   6  16
ENDBRANCH  10   6
BRANCH  11  14
ATOM     14  C   UNL     1      -2.062   1.548  23.478  0.00  0.00    +0.139 C 
BRANCH  14   7
ATOM      5  O   UNL     1       0.709   2.194  23.801  0.00  0.00    -0.253 OA
ATOM      7  N   UNL     1      -0.947   0.681  23.240  0.00  0.00    -0.297 N 
ATOM      9  N   UNL     1       1.258   0.018  23.114  0.00  0.00    -0.269 N 
ATOM     19  C   UNL     1       0.391   1.071  23.422  0.00  0.00    +0.304 C 
ATOM     29  H   UNL     1      -1.136  -0.269  22.936  0.00  0.00    +0.150 HD
ATOM     31  H   UNL     1       0.829  -0.853  22.812  0.00  0.00    +0.156 HD
BRANCH   9  22
ATOM      1 CL   UNL     1       5.578  -2.527  24.218  0.00  0.00    -0.083 Cl
ATOM     22  C   UNL     1       2.672   0.014  23.170  0.00  0.00    +0.036 A 
ATOM     23  C   UNL     1       3.349  -1.123  23.614  0.00  0.00    +0.043 A 
ATOM     24  C   UNL     1       3.388   1.145  22.781  0.00  0.00    +0.023 A 
ATOM     25  C   UNL     1       4.742  -1.127  23.669  0.00  0.00    +0.043 A 
ATOM     26  C   UNL     1       4.782   1.141  22.836  0.00  0.00    +0.003 A 
ATOM     27  C   UNL     1       5.460   0.006  23.280  0.00  0.00    +0.020 A 
ENDBRANCH   9  22
ENDBRANCH  14   7
ENDBRANCH  11  14
BRANCH  13  15
ATOM     15  C   UNL     1      -1.833   5.441  25.301  0.00  0.00    +0.190 C 
BRANCH  15   4
ATOM      4  O   UNL     1      -0.593   5.302  24.627  0.00  0.00    -0.392 OA
ATOM     30  H   UNL     1       0.086   5.713  25.188  0.00  0.00    +0.210 HD
ENDBRANCH  15   4
ENDBRANCH  13  15
TORSDOF 10
ENDMDL
MODEL 2
REMARK VINA RESULT:      -2.9      1.816      3.908
REMARK  Name = 28961487
REMARK  13 active torsions:
REMARK  status: ('A' for Active; 'I' for Inactive)
REMARK    1  A    between atoms: O_3  and  C_12
REMARK    2  A    between atoms: O_4  and  C_15
REMARK    3  A    between atoms: N_6  and  C_10
REMARK    4  A    between atoms: N_6  and  C_16
REMARK    5  A    between atoms: N_6  and  C_17
REMARK    6  A    between atoms: N_7  and  C_14
REMARK    7  A    between atoms: N_8  and  C_18
REMARK    8  A    between atoms: N_8  and  C_20
REMARK    9  A    between atoms: N_8  and  C_21
REMARK   10  A    between atoms: N_9  and  C_22
REMARK   11  A    between atoms: C_11  and  C_14
REMARK   12  A    between atoms: C_13  and  C_15
REMARK   13  A    between atoms: C_16  and  C_18
REMARK                            x       y       z     vdW  Elec       q    Type
REMARK                         _______ _______ _______ _____ _____    ______ ____
ROOT
ATOM      2  O   UNL     1      -3.237  -0.573  23.153  0.00  0.00    -0.365 OA
ATOM     10  C   UNL     1      -4.611   0.779  24.551  0.00  0.00    +0.118 C 
ATOM     11  C   UNL     1      -3.530   0.808  23.462  0.00  0.00    +0.155 C 
ATOM     12  C   UNL     1      -4.382  -0.564  25.226  0.00  0.00    +0.165 C 
ATOM     13  C   UNL     1      -4.009  -1.423  24.024  0.00  0.00    +0.174 C 
ENDROOT
BRANCH  12   3
ATOM      3  O   UNL     1      -3.301  -0.507  26.148  0.00  0.00    -0.388 OA
ATOM     28  H   UNL     1      -3.579   0.051  26.893  0.00  0.00    +0.210 HD
ENDBRANCH  12   3
BRANCH  10   6
ATOM      6  N   UNL     1      -4.652   1.922  25.445  0.00  0.00    -0.296 NA
ATOM     17  C   UNL     1      -5.955   2.018  26.110  0.00  0.00    +0.105 C 
BRANCH   6  16
ATOM     16  C   UNL     1      -4.368   3.164  24.718  0.00  0.00    +0.100 C 
BRANCH  16  18
ATOM     18  C   UNL     1      -3.582   4.125  25.605  0.00  0.00    +0.099 C 
BRANCH  18   8
ATOM      8  N   UNL     1      -2.153   3.999  25.340  0.00  0.00    -0.307 NA
ATOM     20  C   UNL     1      -1.480   3.327  26.453  0.00  0.00    +0.104 C 
ATOM     21  C   UNL     1      -1.556   5.314  25.105  0.00  0.00    +0.104 C 
ENDBRANCH  18   8
ENDBRANCH  16  18
ENDBRANCH   6  16
ENDBRANCH  10   6
BRANCH  11  14
ATOM     14  C   UNL     1      -2.211   1.480  23.827  0.00  0.00    +0.139 C 
BRANCH  14   7
ATOM      5  O   UNL     1       0.561   2.044  24.277  0.00  0.00    -0.253 OA
ATOM      7  N   UNL     1      -1.095   0.699  23.383  0.00  0.00    -0.297 N 
ATOM      9  N   UNL     1       1.112   0.095  23.089  0.00  0.00    -0.269 N 
ATOM     19  C   UNL     1       0.243   1.041  23.644  0.00  0.00    +0.304 C 
ATOM     29  H   UNL     1      -1.282  -0.153  22.864  0.00  0.00    +0.150 HD
ATOM     31  H   UNL     1       0.682  -0.681  22.592  0.00  0.00    +0.156 HD
BRANCH   9  22
ATOM      1 CL   UNL     1       5.429  -2.484  24.123  0.00  0.00    -0.083 Cl
ATOM     22  C   UNL     1       2.525   0.084  23.134  0.00  0.00    +0.036 A 
ATOM     23  C   UNL     1       3.201  -1.061  23.557  0.00  0.00    +0.043 A 
ATOM     24  C   UNL     1       3.243   1.217  22.756  0.00  0.00    +0.023 A 
ATOM     25  C   UNL     1       4.595  -1.072  23.600  0.00  0.00    +0.043 A 
ATOM     26  C   UNL     1       4.638   1.207  22.800  0.00  0.00    +0.003 A 
ATOM     27  C   UNL     1       5.314   0.063  23.222  0.00  0.00    +0.020 A 
ENDBRANCH   9  22
ENDBRANCH  14   7
ENDBRANCH  11  14
BRANCH  13  15
ATOM     15  C   UNL     1      -3.211  -2.676  24.337  0.00  0.00    +0.190 C 
BRANCH  15   4
ATOM      4  O   UNL     1      -1.830  -2.358  24.314  0.00  0.00    -0.392 OA
ATOM     30  H   UNL     1      -1.410  -2.849  25.040  0.00  0.00    +0.210 HD
ENDBRANCH  15   4
ENDBRANCH  13  15
TORSDOF 10
ENDMDL
MODEL 3
REMARK VINA RESULT:      -1.1      1.813      2.727
REMARK  Name = 28961487
REMARK  13 active torsions:
REMARK  status: ('A' for Active; 'I' for Inactive)
REMARK    1  A    between atoms: O_3  and  C_12
REMARK    2  A    between atoms: O_4  and  C_15
REMARK    3  A    between atoms: N_6  and  C_10
REMARK    4  A    between atoms: N_6  and  C_16
REMARK    5  A    between atoms: N_6  and  C_17
REMARK    6  A    between atoms: N_7  and  C_14
REMARK    7  A    between atoms: N_8  and  C_18
REMARK    8  A    between atoms: N_8  and  C_20
REMARK    9  A    between atoms: N_8  and  C_21
REMARK   10  A    between atoms: N_9  and  C_22
REMARK   11  A    between atoms: C_11  and  C_14
REMARK   12  A    between atoms: C_13  and  C_15
REMARK   13  A    between atoms: C_16  and  C_18
REMARK                            x       y       z     vdW  Elec       q    Type
REMARK                         _______ _______ _______ _____ _____    ______ ____
ROOT
ATOM      2  O   UNL     1      -4.284   3.920  26.374  0.00  0.00    -0.365 OA
ATOM     10  C   UNL     1      -3.749   1.798  25.436  0.00  0.00    +0.118 C 
ATOM     11  C   UNL     1      -3.209   2.959  26.283  0.00  0.00    +0.155 C 
ATOM     12  C   UNL     1      -4.820   2.463  24.586  0.00  0.00    +0.165 C 
ATOM     13  C   UNL     1      -5.399   3.455  25.588  0.00  0.00    +0.174 C 
ENDROOT
BRANCH  12   3
ATOM      3  O   UNL     1      -4.254   3.152  23.478  0.00  0.00    -0.388 OA
ATOM     28  H   UNL     1      -4.446   2.633  22.680  0.00  0.00    +0.210 HD
ENDBRANCH  12   3
BRANCH  10   6
ATOM      6  N   UNL     1      -2.763   1.029  24.699  0.00  0.00    -0.296 NA
ATOM     17  C   UNL     1      -3.275   0.651  23.378  0.00  0.00    +0.105 C 
BRANCH   6  16
ATOM     16  C   UNL     1      -2.370  -0.171  25.446  0.00  0.00    +0.100 C 
BRANCH  16  18
ATOM     18  C   UNL     1      -3.559  -1.116  25.587  0.00  0.00    +0.099 C 
BRANCH  18   8
ATOM      8  N   UNL     1      -3.227  -2.427  25.042  0.00  0.00    -0.307 NA
ATOM     20  C   UNL     1      -1.843  -2.452  24.567  0.00  0.00    +0.104 C 
ATOM     21  C   UNL     1      -4.143  -2.780  23.956  0.00  0.00    +0.104 C 
ENDBRANCH  18   8
ENDBRANCH  16  18
ENDBRANCH   6  16
ENDBRANCH  10   6
BRANCH  11  14
ATOM     14  C   UNL     1      -1.990   3.693  25.736  0.00  0.00    +0.139 C 
BRANCH  14   7
ATOM      5  O   UNL     1      -0.764   2.774  23.316  0.00  0.00    -0.253 OA
ATOM      7  N   UNL     1      -0.865   2.814  25.627  0.00  0.00    -0.297 N 
ATOM      9  N   UNL     1       0.772   1.551  24.603  0.00  0.00    -0.269 N 
ATOM     19  C   UNL     1      -0.316   2.406  24.399  0.00  0.00    +0.304 C 
ATOM     29  H   UNL     1      -0.433   2.479  26.482  0.00  0.00    +0.150 HD
ATOM     31  H   UNL     1       1.014   1.345  25.569  0.00  0.00    +0.156 HD
BRANCH   9  22
ATOM      1 CL   UNL     1       5.489   0.449  22.903  0.00  0.00    -0.083 Cl
ATOM     22  C   UNL     1       1.584   0.931  23.625  0.00  0.00    +0.036 A 
ATOM     23  C   UNL     1       2.974   0.988  23.734  0.00  0.00    +0.043 A 
ATOM     24  C   UNL     1       0.996   0.263  22.552  0.00  0.00    +0.023 A 
ATOM     25  C   UNL     1       3.775   0.378  22.770  0.00  0.00    +0.043 A 
ATOM     26  C   UNL     1       1.797  -0.348  21.587  0.00  0.00    +0.003 A 
ATOM     27  C   UNL     1       3.187  -0.291  21.695  0.00  0.00    +0.020 A 
ENDBRANCH   9  22
ENDBRANCH  14   7
ENDBRANCH  11  14
BRANCH  13  15
ATOM     15  C   UNL     1      -6.120   4.647  24.986  0.00  0.00    +0.190 C 
BRANCH  15   4
ATOM      4  O   UNL     1      -6.534   5.510  26.032  0.00  0.00    -0.392 OA
ATOM     30  H   UNL     1      -6.031   6.336  25.939  0.00  0.00    +0.210 HD
ENDBRANCH  15   4
ENDBRANCH  13  15
TORSDOF 10
ENDMDL
MODEL 4
REMARK VINA RESULT:      -1.0      1.951      4.067
REMARK  Name = 28961487
REMARK  13 active torsions:
REMARK  status: ('A' for Active; 'I' for Inactive)
REMARK    1  A    between atoms: O_3  and  C_12
REMARK    2  A    between atoms: O_4  and  C_15
REMARK    3  A    between atoms: N_6  and  C_10
REMARK    4  A    between atoms: N_6  and  C_16
REMARK    5  A    between atoms: N_6  and  C_17
REMARK    6  A    between atoms: N_7  and  C_14
REMARK    7  A    between atoms: N_8  and  C_18
REMARK    8  A    between atoms: N_8  and  C_20
REMARK    9  A    between atoms: N_8  and  C_21
REMARK   10  A    between atoms: N_9  and  C_22
REMARK   11  A    between atoms: C_11  and  C_14
REMARK   12  A    between atoms: C_13  and  C_15
REMARK   13  A    between atoms: C_16  and  C_18
REMARK                            x       y       z     vdW  Elec       q    Type
REMARK                         _______ _______ _______ _____ _____    ______ ____
ROOT
ATOM      2  O   UNL     1      -3.065  -0.284  24.066  0.00  0.00    -0.365 OA
ATOM     10  C   UNL     1      -2.134   1.367  25.508  0.00  0.00    +0.118 C 
ATOM     11  C   UNL     1      -2.794   1.134  24.141  0.00  0.00    +0.155 C 
ATOM     12  C   UNL     1      -1.499   0.020  25.816  0.00  0.00    +0.165 C 
ATOM     13  C   UNL     1      -2.554  -0.924  25.251  0.00  0.00    +0.174 C 
ENDROOT
BRANCH  12   3
ATOM      3  O   UNL     1      -0.267  -0.146  25.126  0.00  0.00    -0.388 OA
ATOM     28  H   UNL     1       0.085   0.740  24.936  0.00  0.00    +0.210 HD
ENDBRANCH  12   3
BRANCH  10   6
ATOM      6  N   UNL     1      -1.242   2.508  25.603  0.00  0.00    -0.296 NA
ATOM     17  C   UNL     1      -0.427   2.434  26.819  0.00  0.00    +0.105 C 
BRANCH   6  16
ATOM     16  C   UNL     1      -1.997   3.765  25.581  0.00  0.00    +0.100 C 
BRANCH  16  18
ATOM     18  C   UNL     1      -3.234   3.652  26.466  0.00  0.00    +0.099 C 
BRANCH  18   8
ATOM      8  N   UNL     1      -4.432   3.984  25.703  0.00  0.00    -0.307 NA
ATOM     20  C   UNL     1      -5.436   2.927  25.833  0.00  0.00    +0.104 C 
ATOM     21  C   UNL     1      -4.100   4.199  24.293  0.00  0.00    +0.104 C 
ENDBRANCH  18   8
ENDBRANCH  16  18
ENDBRANCH   6  16
ENDBRANCH  10   6
BRANCH  11  14
ATOM     14  C   UNL     1      -1.970   1.503  22.913  0.00  0.00    +0.139 C 
BRANCH  14   7
ATOM      5  O   UNL     1       0.752   2.165  23.513  0.00  0.00    -0.253 OA
ATOM      7  N   UNL     1      -0.831   0.645  22.780  0.00  0.00    -0.297 N 
ATOM      9  N   UNL     1       1.381  -0.003  22.867  0.00  0.00    -0.269 N 
ATOM     19  C   UNL     1       0.480   1.042  23.096  0.00  0.00    +0.304 C 
ATOM     29  H   UNL     1      -0.982  -0.304  22.452  0.00  0.00    +0.150 HD
ATOM     31  H   UNL     1       0.989  -0.874  22.518  0.00  0.00    +0.156 HD
BRANCH   9  22
ATOM      1 CL   UNL     1       5.600  -2.557  24.295  0.00  0.00    -0.083 Cl
ATOM     22  C   UNL     1       2.782   0.001  23.063  0.00  0.00    +0.036 A 
ATOM     23  C   UNL     1       3.425  -1.147  23.527  0.00  0.00    +0.043 A 
ATOM     24  C   UNL     1       3.520   1.152  22.790  0.00  0.00    +0.023 A 
ATOM     25  C   UNL     1       4.806  -1.142  23.720  0.00  0.00    +0.043 A 
ATOM     26  C   UNL     1       4.902   1.157  22.982  0.00  0.00    +0.003 A 
ATOM     27  C   UNL     1       5.545   0.010  23.447  0.00  0.00    +0.020 A 
ENDBRANCH   9  22
ENDBRANCH  14   7
ENDBRANCH  11  14
BRANCH  13  15
ATOM     15  C   UNL     1      -2.063  -2.316  24.897  0.00  0.00    +0.190 C 
BRANCH  15   4
ATOM      4  O   UNL     1      -3.183  -3.169  24.730  0.00  0.00    -0.392 OA
ATOM     30  H   UNL     1      -3.890  -2.639  24.323  0.00  0.00    +0.210 HD
ENDBRANCH  15   4
ENDBRANCH  13  15
TORSDOF 10
ENDMDL
MODEL 5
REMARK VINA RESULT:      -0.6      1.395      2.196
REMARK  Name = 28961487
REMARK  13 active torsions:
REMARK  status: ('A' for Active; 'I' for Inactive)
REMARK    1  A    between atoms: O_3  and  C_12
REMARK    2  A    between atoms: O_4  and  C_15
REMARK    3  A    between atoms: N_6  and  C_10
REMARK    4  A    between atoms: N_6  and  C_16
REMARK    5  A    between atoms: N_6  and  C_17
REMARK    6  A    between atoms: N_7  and  C_14
REMARK    7  A    between atoms: N_8  and  C_18
REMARK    8  A    between atoms: N_8  and  C_20
REMARK    9  A    between atoms: N_8  and  C_21
REMARK   10  A    between atoms: N_9  and  C_22
REMARK   11  A    between atoms: C_11  and  C_14
REMARK   12  A    between atoms: C_13  and  C_15
REMARK   13  A    between atoms: C_16  and  C_18
REMARK                            x       y       z     vdW  Elec       q    Type
REMARK                         _______ _______ _______ _____ _____    ______ ____
ROOT
ATOM      2  O   UNL     1      -2.817   3.027  25.394  0.00  0.00    -0.365 OA
ATOM     10  C   UNL     1      -3.607   0.813  25.012  0.00  0.00    +0.118 C 
ATOM     11  C   UNL     1      -2.439   1.780  24.768  0.00  0.00    +0.155 C 
ATOM     12  C   UNL     1      -4.796   1.746  25.175  0.00  0.00    +0.165 C 
ATOM     13  C   UNL     1      -4.148   2.900  25.931  0.00  0.00    +0.174 C 
ENDROOT
BRANCH  12   3
ATOM      3  O   UNL     1      -5.285   2.192  23.916  0.00  0.00    -0.388 OA
ATOM     28  H   UNL     1      -4.704   2.909  23.612  0.00  0.00    +0.210 HD
ENDBRANCH  12   3
BRANCH  10   6
ATOM      6  N   UNL     1      -3.778  -0.244  24.033  0.00  0.00    -0.296 NA
ATOM     17  C   UNL     1      -5.140  -0.784  24.080  0.00  0.00    +0.105 C 
BRANCH   6  16
ATOM     16  C   UNL     1      -2.805  -1.320  24.249  0.00  0.00    +0.100 C 
BRANCH  16  18
ATOM     18  C   UNL     1      -2.552  -1.510  25.741  0.00  0.00    +0.099 C 
BRANCH  18   8
ATOM      8  N   UNL     1      -1.121  -1.489  26.016  0.00  0.00    -0.307 NA
ATOM     20  C   UNL     1      -0.718  -0.190  26.558  0.00  0.00    +0.104 C 
ATOM     21  C   UNL     1      -0.359  -1.791  24.803  0.00  0.00    +0.104 C 
ENDBRANCH  18   8
ENDBRANCH  16  18
ENDBRANCH   6  16
ENDBRANCH  10   6
BRANCH  11  14
ATOM     14  C   UNL     1      -2.100   2.088  23.314  0.00  0.00    +0.139 C 
BRANCH  14   7
ATOM      5  O   UNL     1       0.609   2.219  24.235  0.00  0.00    -0.253 OA
ATOM      7  N   UNL     1      -1.001   1.288  22.861  0.00  0.00    -0.297 N 
ATOM      9  N   UNL     1       1.163   0.501  22.734  0.00  0.00    -0.269 N 
ATOM     19  C   UNL     1       0.306   1.410  23.363  0.00  0.00    +0.304 C 
ATOM     29  H   UNL     1      -1.181   0.588  22.148  0.00  0.00    +0.150 HD
ATOM     31  H   UNL     1       0.749  -0.102  22.028  0.00  0.00    +0.156 HD
BRANCH   9  22
ATOM      1 CL   UNL     1       4.984  -2.656  24.072  0.00  0.00    -0.083 Cl
ATOM     22  C   UNL     1       2.547   0.315  22.960  0.00  0.00    +0.036 A 
ATOM     23  C   UNL     1       3.027  -0.934  23.358  0.00  0.00    +0.043 A 
ATOM     24  C   UNL     1       3.431   1.378  22.785  0.00  0.00    +0.023 A 
ATOM     25  C   UNL     1       4.391  -1.117  23.580  0.00  0.00    +0.043 A 
ATOM     26  C   UNL     1       4.796   1.195  23.008  0.00  0.00    +0.003 A 
ATOM     27  C   UNL     1       5.277  -0.052  23.406  0.00  0.00    +0.020 A 
ENDBRANCH   9  22
ENDBRANCH  14   7
ENDBRANCH  11  14
BRANCH  13  15
ATOM     15  C   UNL     1      -4.861   4.235  25.823  0.00  0.00    +0.190 C 
BRANCH  15   4
ATOM      4  O   UNL     1      -6.261   4.010  25.827  0.00  0.00    -0.392 OA
ATOM     30  H   UNL     1      -6.484   3.601  26.681  0.00  0.00    +0.210 HD
ENDBRANCH  15   4
ENDBRANCH  13  15
TORSDOF 10
ENDMDL
MODEL 6
REMARK VINA RESULT:       0.4      3.330      7.104
REMARK  Name = 28961487
REMARK  13 active torsions:
REMARK  status: ('A' for Active; 'I' for Inactive)
REMARK    1  A    between atoms: O_3  and  C_12
REMARK    2  A    between atoms: O_4  and  C_15
REMARK    3  A    between atoms: N_6  and  C_10
REMARK    4  A    between atoms: N_6  and  C_16
REMARK    5  A    between atoms: N_6  and  C_17
REMARK    6  A    between atoms: N_7  and  C_14
REMARK    7  A    between atoms: N_8  and  C_18
REMARK    8  A    between atoms: N_8  and  C_20
REMARK    9  A    between atoms: N_8  and  C_21
REMARK   10  A    between atoms: N_9  and  C_22
REMARK   11  A    between atoms: C_11  and  C_14
REMARK   12  A    between atoms: C_13  and  C_15
REMARK   13  A    between atoms: C_16  and  C_18
REMARK                            x       y       z     vdW  Elec       q    Type
REMARK                         _______ _______ _______ _____ _____    ______ ____
ROOT
ATOM      2  O   UNL     1       2.162   1.413  22.744  0.00  0.00    -0.365 OA
ATOM     10  C   UNL     1       0.611  -0.312  23.280  0.00  0.00    +0.118 C 
ATOM     11  C   UNL     1       0.898   1.190  23.408  0.00  0.00    +0.155 C 
ATOM     12  C   UNL     1       1.999  -0.916  23.140  0.00  0.00    +0.165 C 
ATOM     13  C   UNL     1       2.685   0.148  22.292  0.00  0.00    +0.174 C 
ENDROOT
BRANCH  12   3
ATOM      3  O   UNL     1       2.645  -1.036  24.402  0.00  0.00    -0.388 OA
ATOM     28  H   UNL     1       3.574  -0.778  24.282  0.00  0.00    +0.210 HD
ENDBRANCH  12   3
BRANCH  10   6
ATOM      6  N   UNL     1      -0.217  -0.898  24.318  0.00  0.00    -0.296 NA
ATOM     17  C   UNL     1       0.419  -2.092  24.882  0.00  0.00    +0.105 C 
BRANCH   6  16
ATOM     16  C   UNL     1      -1.546  -1.236  23.798  0.00  0.00    +0.100 C 
BRANCH  16  18
ATOM     18  C   UNL     1      -1.990  -2.595  24.329  0.00  0.00    +0.099 C 
BRANCH  18   8
ATOM      8  N   UNL     1      -3.344  -2.510  24.863  0.00  0.00    -0.307 NA
ATOM     20  C   UNL     1      -4.282  -2.082  23.823  0.00  0.00    +0.104 C 
ATOM     21  C   UNL     1      -3.392  -1.589  26.000  0.00  0.00    +0.104 C 
ENDBRANCH  18   8
ENDBRANCH  16  18
ENDBRANCH   6  16
ENDBRANCH  10   6
BRANCH  11  14
ATOM     14  C   UNL     1       1.026   1.743  24.823  0.00  0.00    +0.139 C 
BRANCH  14   7
ATOM      5  O   UNL     1      -1.516   2.463  23.718  0.00  0.00    -0.253 OA
ATOM      7  N   UNL     1      -0.237   1.727  25.499  0.00  0.00    -0.297 N 
ATOM      9  N   UNL     1      -2.511   1.981  25.789  0.00  0.00    -0.269 N 
ATOM     19  C   UNL     1      -1.448   2.096  24.887  0.00  0.00    +0.304 C 
ATOM     29  H   UNL     1      -0.259   1.422  26.466  0.00  0.00    +0.150 HD
ATOM     31  H   UNL     1      -2.281   1.661  26.726  0.00  0.00    +0.156 HD
BRANCH   9  22
ATOM      1 CL   UNL     1      -6.296   5.445  25.598  0.00  0.00    -0.083 Cl
ATOM     22  C   UNL     1      -3.878   2.258  25.556  0.00  0.00    +0.036 A 
ATOM     23  C   UNL     1      -4.357   3.563  25.677  0.00  0.00    +0.043 A 
ATOM     24  C   UNL     1      -4.748   1.226  25.207  0.00  0.00    +0.023 A 
ATOM     25  C   UNL     1      -5.705   3.836  25.448  0.00  0.00    +0.043 A 
ATOM     26  C   UNL     1      -6.098   1.498  24.977  0.00  0.00    +0.003 A 
ATOM     27  C   UNL     1      -6.576   2.803  25.098  0.00  0.00    +0.020 A 
ENDBRANCH   9  22
ENDBRANCH  14   7
ENDBRANCH  11  14
BRANCH  13  15
ATOM     15  C   UNL     1       4.201   0.174  22.375  0.00  0.00    +0.190 C 
BRANCH  15   4
ATOM      4  O   UNL     1       4.585   0.876  23.546  0.00  0.00    -0.392 OA
ATOM     30  H   UNL     1       5.494   1.191  23.407  0.00  0.00    +0.210 HD
ENDBRANCH  15   4
ENDBRANCH  13  15
TORSDOF 10
ENDMDL
MODEL 7
REMARK VINA RESULT:       0.5      3.240      7.248
REMARK  Name = 28961487
REMARK  13 active torsions:
REMARK  status: ('A' for Active; 'I' for Inactive)
REMARK    1  A    between atoms: O_3  and  C_12
REMARK    2  A    between atoms: O_4  and  C_15
REMARK    3  A    between atoms: N_6  and  C_10
REMARK    4  A    between atoms: N_6  and  C_16
REMARK    5  A    between atoms: N_6  and  C_17
REMARK    6  A    between atoms: N_7  and  C_14
REMARK    7  A    between atoms: N_8  and  C_18
REMARK    8  A    between atoms: N_8  and  C_20
REMARK    9  A    between atoms: N_8  and  C_21
REMARK   10  A    between atoms: N_9  and  C_22
REMARK   11  A    between atoms: C_11  and  C_14
REMARK   12  A    between atoms: C_13  and  C_15
REMARK   13  A    between atoms: C_16  and  C_18
REMARK                            x       y       z     vdW  Elec       q    Type
REMARK                         _______ _______ _______ _____ _____    ______ ____
ROOT
ATOM      2  O   UNL     1       3.998   1.507  23.159  0.00  0.00    -0.365 OA
ATOM     10  C   UNL     1       2.597  -0.107  22.110  0.00  0.00    +0.118 C 
ATOM     11  C   UNL     1       2.625   1.277  22.773  0.00  0.00    +0.155 C 
ATOM     12  C   UNL     1       3.786  -0.814  22.742  0.00  0.00    +0.165 C 
ATOM     13  C   UNL     1       4.778   0.338  22.841  0.00  0.00    +0.174 C 
ENDROOT
BRANCH  12   3
ATOM      3  O   UNL     1       3.469  -1.308  24.038  0.00  0.00    -0.388 OA
ATOM     28  H   UNL     1       3.047  -0.586  24.533  0.00  0.00    +0.210 HD
ENDBRANCH  12   3
BRANCH  10   6
ATOM      6  N   UNL     1       1.339  -0.827  22.180  0.00  0.00    -0.296 NA
ATOM     17  C   UNL     1       0.443  -0.421  21.093  0.00  0.00    +0.105 C 
BRANCH   6  16
ATOM     16  C   UNL     1       0.685  -0.612  23.475  0.00  0.00    +0.100 C 
BRANCH  16  18
ATOM     18  C   UNL     1      -0.613  -1.410  23.550  0.00  0.00    +0.099 C 
BRANCH  18   8
ATOM      8  N   UNL     1      -1.497  -0.840  24.560  0.00  0.00    -0.307 NA
ATOM     20  C   UNL     1      -1.018  -1.162  25.905  0.00  0.00    +0.104 C 
ATOM     21  C   UNL     1      -2.866  -1.326  24.378  0.00  0.00    +0.104 C 
ENDBRANCH  18   8
ENDBRANCH  16  18
ENDBRANCH   6  16
ENDBRANCH  10   6
BRANCH  11  14
ATOM     14  C   UNL     1       1.768   1.453  24.022  0.00  0.00    +0.139 C 
BRANCH  14   7
ATOM      5  O   UNL     1      -0.350   2.083  25.844  0.00  0.00    -0.253 OA
ATOM      7  N   UNL     1       0.440   1.868  23.681  0.00  0.00    -0.297 N 
ATOM      9  N   UNL     1      -1.742   2.539  24.009  0.00  0.00    -0.269 N 
ATOM     19  C   UNL     1      -0.550   2.162  24.635  0.00  0.00    +0.304 C 
ATOM     29  H   UNL     1       0.207   1.968  22.698  0.00  0.00    +0.150 HD
ATOM     31  H   UNL     1      -1.739   2.552  22.992  0.00  0.00    +0.156 HD
BRANCH   9  22
ATOM      1 CL   UNL     1      -6.736   1.581  24.723  0.00  0.00    -0.083 Cl
ATOM     22  C   UNL     1      -2.963   2.909  24.620  0.00  0.00    +0.036 A 
ATOM     23  C   UNL     1      -4.113   2.151  24.397  0.00  0.00    +0.043 A 
ATOM     24  C   UNL     1      -3.017   4.030  25.446  0.00  0.00    +0.023 A 
ATOM     25  C   UNL     1      -5.316   2.515  24.999  0.00  0.00    +0.043 A 
ATOM     26  C   UNL     1      -4.221   4.395  26.050  0.00  0.00    +0.003 A 
ATOM     27  C   UNL     1      -5.371   3.638  25.826  0.00  0.00    +0.020 A 
ENDBRANCH   9  22
ENDBRANCH  14   7
ENDBRANCH  11  14
BRANCH  13  15
ATOM     15  C   UNL     1       5.874   0.169  23.878  0.00  0.00    +0.190 C 
BRANCH  15   4
ATOM      4  O   UNL     1       5.370   0.555  25.146  0.00  0.00    -0.392 OA
ATOM     30  H   UNL     1       5.179   1.507  25.101  0.00  0.00    +0.210 HD
ENDBRANCH  15   4
ENDBRANCH  13  15
TORSDOF 10
ENDMDL
MODEL 8
REMARK VINA RESULT:       0.6      3.133      6.741
REMARK  Name = 28961487
REMARK  13 active torsions:
REMARK  status: ('A' for Active; 'I' for Inactive)
REMARK    1  A    between atoms: O_3  and  C_12
REMARK    2  A    between atoms: O_4  and  C_15
REMARK    3  A    between atoms: N_6  and  C_10
REMARK    4  A    between atoms: N_6  and  C_16
REMARK    5  A    between atoms: N_6  and  C_17
REMARK    6  A    between atoms: N_7  and  C_14
REMARK    7  A    between atoms: N_8  and  C_18
REMARK    8  A    between atoms: N_8  and  C_20
REMARK    9  A    between atoms: N_8  and  C_21
REMARK   10  A    between atoms: N_9  and  C_22
REMARK   11  A    between atoms: C_11  and  C_14
REMARK   12  A    between atoms: C_13  and  C_15
REMARK   13  A    between atoms: C_16  and  C_18
REMARK                            x       y       z     vdW  Elec       q    Type
REMARK                         _______ _______ _______ _____ _____    ______ ____
ROOT
ATOM      2  O   UNL     1       1.926  -0.231  21.696  0.00  0.00    -0.365 OA
ATOM     10  C   UNL     1       0.690  -0.602  23.697  0.00  0.00    +0.118 C 
ATOM     11  C   UNL     1       0.587  -0.500  22.169  0.00  0.00    +0.155 C 
ATOM     12  C   UNL     1       1.914   0.243  24.016  0.00  0.00    +0.165 C 
ATOM     13  C   UNL     1       2.807  -0.096  22.828  0.00  0.00    +0.174 C 
ENDROOT
BRANCH  12   3
ATOM      3  O   UNL     1       1.602   1.630  24.020  0.00  0.00    -0.388 OA
ATOM     28  H   UNL     1       1.928   2.002  24.857  0.00  0.00    +0.210 HD
ENDBRANCH  12   3
BRANCH  10   6
ATOM      6  N   UNL     1      -0.507  -0.264  24.445  0.00  0.00    -0.296 NA
ATOM     17  C   UNL     1      -0.246   0.830  25.384  0.00  0.00    +0.105 C 
BRANCH   6  16
ATOM     16  C   UNL     1      -1.019  -1.434  25.167  0.00  0.00    +0.100 C 
BRANCH  16  18
ATOM     18  C   UNL     1      -1.969  -2.229  24.277  0.00  0.00    +0.099 C 
BRANCH  18   8
ATOM      8  N   UNL     1      -3.275  -2.348  24.914  0.00  0.00    -0.307 NA
ATOM     20  C   UNL     1      -4.346  -2.147  23.937  0.00  0.00    +0.104 C 
ATOM     21  C   UNL     1      -3.402  -1.387  26.011  0.00  0.00    +0.104 C 
ENDBRANCH  18   8
ENDBRANCH  16  18
ENDBRANCH   6  16
ENDBRANCH  10   6
BRANCH  11  14
ATOM     14  C   UNL     1      -0.316   0.598  21.618  0.00  0.00    +0.139 C 
BRANCH  14   7
ATOM      5  O   UNL     1      -1.472   2.687  23.200  0.00  0.00    -0.253 OA
ATOM      7  N   UNL     1      -1.598   0.579  22.256  0.00  0.00    -0.297 N 
ATOM      9  N   UNL     1      -3.372   1.345  23.516  0.00  0.00    -0.269 N 
ATOM     19  C   UNL     1      -2.100   1.648  23.019  0.00  0.00    +0.304 C 
ATOM     29  H   UNL     1      -2.180  -0.245  22.139  0.00  0.00    +0.150 HD
ATOM     31  H   UNL     1      -3.751   0.433  23.272  0.00  0.00    +0.156 HD
BRANCH   9  22
ATOM      1 CL   UNL     1      -6.984   1.640  27.153  0.00  0.00    -0.083 Cl
ATOM     22  C   UNL     1      -4.204   2.156  24.323  0.00  0.00    +0.036 A 
ATOM     23  C   UNL     1      -5.081   1.567  25.234  0.00  0.00    +0.043 A 
ATOM     24  C   UNL     1      -4.147   3.544  24.208  0.00  0.00    +0.023 A 
ATOM     25  C   UNL     1      -5.901   2.366  26.030  0.00  0.00    +0.043 A 
ATOM     26  C   UNL     1      -4.967   4.345  25.004  0.00  0.00    +0.003 A 
ATOM     27  C   UNL     1      -5.844   3.756  25.915  0.00  0.00    +0.020 A 
ENDBRANCH   9  22
ENDBRANCH  14   7
ENDBRANCH  11  14
BRANCH  13  15
ATOM     15  C   UNL     1       3.883   0.925  22.507  0.00  0.00    +0.190 C 
BRANCH  15   4
ATOM      4  O   UNL     1       4.801   0.980  23.587  0.00  0.00    -0.392 OA
ATOM     30  H   UNL     1       5.529   1.564  23.315  0.00  0.00    +0.210 HD
ENDBRANCH  15   4
ENDBRANCH  13  15
TORSDOF 10
ENDMDL
MODEL 9
REMARK VINA RESULT:       0.8      1.676      3.112
REMARK  Name = 28961487
REMARK  13 active torsions:
REMARK  status: ('A' for Active; 'I' for Inactive)
REMARK    1  A    between atoms: O_3  and  C_12
REMARK    2  A    between atoms: O_4  and  C_15
REMARK    3  A    between atoms: N_6  and  C_10
REMARK    4  A    between atoms: N_6  and  C_16
REMARK    5  A    between atoms: N_6  and  C_17
REMARK    6  A    between atoms: N_7  and  C_14
REMARK    7  A    between atoms: N_8  and  C_18
REMARK    8  A    between atoms: N_8  and  C_20
REMARK    9  A    between atoms: N_8  and  C_21
REMARK   10  A    between atoms: N_9  and  C_22
REMARK   11  A    between atoms: C_11  and  C_14
REMARK   12  A    between atoms: C_13  and  C_15
REMARK   13  A    between atoms: C_16  and  C_18
REMARK                            x       y       z     vdW  Elec       q    Type
REMARK                         _______ _______ _______ _____ _____    ______ ____
ROOT
ATOM      2  O   UNL     1      -1.255   0.579  25.933  0.00  0.00    -0.365 OA
ATOM     10  C   UNL     1      -3.262   1.575  25.127  0.00  0.00    +0.118 C 
ATOM     11  C   UNL     1      -2.539   0.241  25.364  0.00  0.00    +0.155 C 
ATOM     12  C   UNL     1      -2.116   2.562  24.967  0.00  0.00    +0.165 C 
ATOM     13  C   UNL     1      -1.128   2.013  25.989  0.00  0.00    +0.174 C 
ENDROOT
BRANCH  12   3
ATOM      3  O   UNL     1      -1.558   2.506  23.660  0.00  0.00    -0.388 OA
ATOM     28  H   UNL     1      -1.539   3.412  23.310  0.00  0.00    +0.210 HD
ENDBRANCH  12   3
BRANCH  10   6
ATOM      6  N   UNL     1      -4.246   1.590  24.060  0.00  0.00    -0.296 NA
ATOM     17  C   UNL     1      -3.946   2.646  23.088  0.00  0.00    +0.105 C 
BRANCH   6  16
ATOM     16  C   UNL     1      -5.598   1.774  24.598  0.00  0.00    +0.100 C 
BRANCH  16  18
ATOM     18  C   UNL     1      -5.549   2.617  25.869  0.00  0.00    +0.099 C 
BRANCH  18   8
ATOM      8  N   UNL     1      -5.091   3.966  25.561  0.00  0.00    -0.307 NA
ATOM     20  C   UNL     1      -4.083   4.403  26.529  0.00  0.00    +0.104 C 
ATOM     21  C   UNL     1      -6.218   4.901  25.545  0.00  0.00    +0.104 C 
ENDBRANCH  18   8
ENDBRANCH  16  18
ENDBRANCH   6  16
ENDBRANCH  10   6
BRANCH  11  14
ATOM     14  C   UNL     1      -2.276  -0.621  24.134  0.00  0.00    +0.139 C 
BRANCH  14   7
ATOM      5  O   UNL     1       0.454  -1.072  24.873  0.00  0.00    -0.253 OA
ATOM      7  N   UNL     1      -1.113  -0.172  23.429  0.00  0.00    -0.297 N 
ATOM      9  N   UNL     1       1.128   0.126  22.970  0.00  0.00    -0.269 N 
ATOM     19  C   UNL     1       0.201  -0.434  23.855  0.00  0.00    +0.304 C 
ATOM     29  H   UNL     1      -1.246   0.352  22.570  0.00  0.00    +0.150 HD
ATOM     31  H   UNL     1       0.749   0.627  22.171  0.00  0.00    +0.156 HD
BRANCH   9  22
ATOM      1 CL   UNL     1       5.360  -2.576  24.039  0.00  0.00    -0.083 Cl
ATOM     22  C   UNL     1       2.539   0.082  23.050  0.00  0.00    +0.036 A 
ATOM     23  C   UNL     1       3.179  -1.089  23.457  0.00  0.00    +0.043 A 
ATOM     24  C   UNL     1       3.291   1.209  22.722  0.00  0.00    +0.023 A 
ATOM     25  C   UNL     1       4.570  -1.133  23.535  0.00  0.00    +0.043 A 
ATOM     26  C   UNL     1       4.684   1.166  22.800  0.00  0.00    +0.003 A 
ATOM     27  C   UNL     1       5.324  -0.004  23.207  0.00  0.00    +0.020 A 
ENDBRANCH   9  22
ENDBRANCH  14   7
ENDBRANCH  11  14
BRANCH  13  15
ATOM     15  C   UNL     1       0.324   2.396  25.766  0.00  0.00    +0.190 C 
BRANCH  15   4
ATOM      4  O   UNL     1       0.984   2.447  27.020  0.00  0.00    -0.392 OA
ATOM     30  H   UNL     1       1.242   1.537  27.246  0.00  0.00    +0.210 HD
ENDBRANCH  15   4
ENDBRANCH  13  15
TORSDOF 10
ENDMDL
