MODEL 1
REMARK VINA RESULT:      16.1      0.000      0.000
REMARK  Name = 26762014
REMARK  4 active torsions:
REMARK  status: ('A' for Active; 'I' for Inactive)
REMARK    1  A    between atoms: C_11  and  C_16
REMARK    2  A    between atoms: C_17  and  C_19
REMARK    3  A    between atoms: C_20  and  C_21
REMARK    4  A    between atoms: C_31  and  C_33
REMARK                            x       y       z     vdW  Elec       q    Type
REMARK                         _______ _______ _______ _____ _____    ______ ____
ROOT
ATOM      2  O   UNL     1      -1.778   1.632  27.046  0.00  0.00    -0.270 OA
ATOM      5  N   UNL     1      -2.496   0.312  25.246  0.00  0.00    -0.280 N 
ATOM      6  N   UNL     1      -4.709  -1.863  23.174  0.00  0.00    -0.347 N 
ATOM      7  N   UNL     1      -3.762  -3.535  24.314  0.00  0.00    -0.240 NA
ATOM     11  C   UNL     1      -1.460  -0.747  25.492  0.00  0.00    +0.171 C 
ATOM     12  C   UNL     1      -2.116  -2.152  25.656  0.00  0.00    +0.089 C 
ATOM     13  C   UNL     1      -3.413   0.136  24.084  0.00  0.00    +0.163 C 
ATOM     14  C   UNL     1      -3.199  -2.340  24.665  0.00  0.00    +0.066 A 
ATOM     15  C   UNL     1      -3.767  -1.294  23.979  0.00  0.00    +0.056 A 
ATOM     17  C   UNL     1      -2.514   1.443  26.077  0.00  0.00    +0.248 C 
ATOM     18  C   UNL     1      -4.667  -3.213  23.412  0.00  0.00    +0.197 A 
ATOM     34  H   UNL     1      -5.320  -1.386  22.524  0.00  0.00    +0.167 HD
ENDROOT
BRANCH  17  19
ATOM     19  C   UNL     1      -3.474   2.515  25.775  0.00  0.00    +0.037 A 
ATOM     22  C   UNL     1      -4.844   2.257  25.814  0.00  0.00    +0.014 A 
ATOM     23  C   UNL     1      -3.014   3.791  25.449  0.00  0.00    +0.014 A 
ATOM     28  C   UNL     1      -5.753   3.274  25.528  0.00  0.00    +0.019 A 
ATOM     29  C   UNL     1      -3.924   4.808  25.162  0.00  0.00    +0.019 A 
ATOM     31  C   UNL     1      -5.294   4.551  25.202  0.00  0.00    +0.052 A 
BRANCH  31  33
ATOM     10  N   UNL     1      -6.983   6.439  24.668  0.00  0.00    -0.191 NA
ATOM     33  C   UNL     1      -6.226   5.592  24.908  0.00  0.00    +0.099 C 
ENDBRANCH  31  33
ENDBRANCH  17  19
BRANCH  11  16
ATOM      1  O   UNL     1      -0.687  -0.693  23.163  0.00  0.00    -0.336 OA
ATOM      8  N   UNL     1       0.956  -0.485  24.672  0.00  0.00    -0.190 NA
ATOM      9  N   UNL     1       0.501  -0.570  22.431  0.00  0.00    -0.056 NA
ATOM     16  C   UNL     1      -0.330  -0.633  24.473  0.00  0.00    +0.249 A 
ATOM     20  C   UNL     1       1.423  -0.452  23.390  0.00  0.00    +0.202 A 
BRANCH  20  21
ATOM      3  O   UNL     1       6.158  -1.288  24.260  0.00  0.00    -0.453 OA
ATOM      4  O   UNL     1       6.847   0.065  22.388  0.00  0.00    -0.453 OA
ATOM     21  C   UNL     1       2.821  -0.297  23.102  0.00  0.00    +0.026 A 
ATOM     24  C   UNL     1       3.769  -0.931  23.908  0.00  0.00    +0.061 A 
ATOM     25  C   UNL     1       3.222   0.493  22.010  0.00  0.00    +0.015 A 
ATOM     26  C   UNL     1       5.100  -0.753  23.592  0.00  0.00    +0.167 A 
ATOM     27  C   UNL     1       5.494   0.020  22.523  0.00  0.00    +0.166 A 
ATOM     30  C   UNL     1       4.578   0.656  21.712  0.00  0.00    +0.050 A 
ATOM     32  C   UNL     1       7.262  -0.766  23.492  0.00  0.00    +0.466 C 
ENDBRANCH  20  21
ENDBRANCH  11  16
TORSDOF 4
ENDMDL
MODEL 2
REMARK VINA RESULT:      19.8      1.376      1.481
REMARK  Name = 26762014
REMARK  4 active torsions:
REMARK  status: ('A' for Active; 'I' for Inactive)
REMARK    1  A    between atoms: C_11  and  C_16
REMARK    2  A    between atoms: C_17  and  C_19
REMARK    3  A    between atoms: C_20  and  C_21
REMARK    4  A    between atoms: C_31  and  C_33
REMARK                            x       y       z     vdW  Elec       q    Type
REMARK                         _______ _______ _______ _____ _____    ______ ____
ROOT
ATOM      2  O   UNL     1      -1.726   2.156  26.887  0.00  0.00    -0.270 OA
ATOM      5  N   UNL     1      -2.303   0.619  25.213  0.00  0.00    -0.280 N 
ATOM      6  N   UNL     1      -4.435  -1.457  22.963  0.00  0.00    -0.347 N 
ATOM      7  N   UNL     1      -4.339  -2.954  24.619  0.00  0.00    -0.240 NA
ATOM     11  C   UNL     1      -1.718  -0.547  25.956  0.00  0.00    +0.171 C 
ATOM     12  C   UNL     1      -2.771  -1.682  26.148  0.00  0.00    +0.089 C 
ATOM     13  C   UNL     1      -2.900   0.364  23.871  0.00  0.00    +0.163 C 
ATOM     14  C   UNL     1      -3.567  -1.867  24.914  0.00  0.00    +0.066 A 
ATOM     15  C   UNL     1      -3.611  -0.929  23.911  0.00  0.00    +0.056 A 
ATOM     17  C   UNL     1      -2.209   1.898  25.784  0.00  0.00    +0.248 C 
ATOM     18  C   UNL     1      -4.848  -2.677  23.434  0.00  0.00    +0.197 A 
ATOM     34  H   UNL     1      -4.693  -1.036  22.080  0.00  0.00    +0.167 HD
ENDROOT
BRANCH  17  19
ATOM     19  C   UNL     1      -2.706   3.045  25.011  0.00  0.00    +0.037 A 
ATOM     22  C   UNL     1      -3.877   2.928  24.261  0.00  0.00    +0.014 A 
ATOM     23  C   UNL     1      -2.006   4.252  25.026  0.00  0.00    +0.014 A 
ATOM     28  C   UNL     1      -4.348   4.016  23.529  0.00  0.00    +0.019 A 
ATOM     29  C   UNL     1      -2.477   5.340  24.293  0.00  0.00    +0.019 A 
ATOM     31  C   UNL     1      -3.649   5.223  23.545  0.00  0.00    +0.052 A 
BRANCH  31  33
ATOM     10  N   UNL     1      -4.523   7.244  22.182  0.00  0.00    -0.191 NA
ATOM     33  C   UNL     1      -4.131   6.338  22.793  0.00  0.00    +0.099 C 
ENDBRANCH  31  33
ENDBRANCH  17  19
BRANCH  11  16
ATOM      1  O   UNL     1      -0.085  -2.277  25.353  0.00  0.00    -0.336 OA
ATOM      8  N   UNL     1       0.547  -0.200  24.802  0.00  0.00    -0.190 NA
ATOM      9  N   UNL     1       1.173  -2.400  24.750  0.00  0.00    -0.056 NA
ATOM     16  C   UNL     1      -0.379  -0.951  25.344  0.00  0.00    +0.249 A 
ATOM     20  C   UNL     1       1.479  -1.134  24.453  0.00  0.00    +0.202 A 
BRANCH  20  21
ATOM      3  O   UNL     1       6.325  -1.372  23.872  0.00  0.00    -0.453 OA
ATOM      4  O   UNL     1       6.286   0.196  22.042  0.00  0.00    -0.453 OA
ATOM     21  C   UNL     1       2.706  -0.768  23.806  0.00  0.00    +0.026 A 
ATOM     24  C   UNL     1       3.912  -1.323  24.242  0.00  0.00    +0.061 A 
ATOM     25  C   UNL     1       2.683   0.147  22.738  0.00  0.00    +0.015 A 
ATOM     26  C   UNL     1       5.065  -0.940  23.588  0.00  0.00    +0.167 A 
ATOM     27  C   UNL     1       5.044  -0.045  22.544  0.00  0.00    +0.166 A 
ATOM     30  C   UNL     1       3.866   0.517  22.094  0.00  0.00    +0.050 A 
ATOM     32  C   UNL     1       7.093  -0.648  22.889  0.00  0.00    +0.466 C 
ENDBRANCH  20  21
ENDBRANCH  11  16
TORSDOF 4
ENDMDL
