MODEL 1
REMARK VINA RESULT:      -2.4      0.000      0.000
REMARK  Name = 26742406
REMARK  7 active torsions:
REMARK  status: ('A' for Active; 'I' for Inactive)
REMARK    1  A    between atoms: S_1  and  N_6
REMARK    2  A    between atoms: S_1  and  C_21
REMARK    3  A    between atoms: N_6  and  C_16
REMARK    4  A    between atoms: C_10  and  C_17
REMARK    5  A    between atoms: C_11  and  C_16
REMARK    6  A    between atoms: C_19  and  C_22
REMARK    7  A    between atoms: C_20  and  C_23
REMARK                            x       y       z     vdW  Elec       q    Type
REMARK                         _______ _______ _______ _____ _____    ______ ____
ROOT
ATOM      5  N   UNL     1      12.269  -6.198  32.836  0.00  0.00    -0.297 NA
ATOM      9  C   UNL     1      12.159  -7.553  30.614  0.00  0.00    +0.002 C 
ATOM     10  C   UNL     1      13.038  -8.294  31.661  0.00  0.00    +0.055 C 
ATOM     11  C   UNL     1      12.582  -5.311  31.685  0.00  0.00    +0.072 C 
ATOM     12  C   UNL     1      12.725  -6.135  30.386  0.00  0.00    +0.024 C 
ATOM     13  C   UNL     1      10.761  -7.388  31.246  0.00  0.00    +0.019 C 
ATOM     14  C   UNL     1      13.221  -7.337  32.873  0.00  0.00    +0.094 C 
ATOM     15  C   UNL     1      10.905  -6.741  32.635  0.00  0.00    +0.085 C 
ENDROOT
BRANCH  10  17
ATOM      7  N   UNL     1      15.225  -9.274  32.156  0.00  0.00    -0.237 NA
ATOM      8  N   UNL     1      16.741  -9.974  30.419  0.00  0.00    -0.232 NA
ATOM     17  C   UNL     1      14.357  -8.893  31.195  0.00  0.00    +0.050 A 
ATOM     18  C   UNL     1      14.607  -9.019  29.843  0.00  0.00    +0.052 A 
ATOM     19  C   UNL     1      15.828  -9.571  29.511  0.00  0.00    +0.081 A 
ATOM     20  C   UNL     1      16.380  -9.798  31.703  0.00  0.00    +0.127 A 
ATOM     23  C   UNL     1      17.364 -10.232  32.738  0.00  0.00    +0.088 C 
BRANCH  19  22
ATOM      2  S   UNL     1      15.267 -10.775  27.140  0.00  0.00    -0.095 S 
ATOM     22  C   UNL     1      16.217  -9.759  28.139  0.00  0.00    +0.038 A 
ATOM     24  C   UNL     1      17.292  -9.226  27.460  0.00  0.00    +0.017 A 
ATOM     25  C   UNL     1      17.335  -9.657  26.102  0.00  0.00    +0.008 A 
ATOM     26  C   UNL     1      16.291 -10.503  25.795  0.00  0.00    +0.046 A 
ENDBRANCH  19  22
ENDBRANCH  10  17
BRANCH  11  16
ATOM     16  C   UNL     1      13.808  -4.433  31.940  0.00  0.00    +0.124 C 
BRANCH  16   6
ATOM      6  N   UNL     1      14.918  -4.891  31.089  0.00  0.00    -0.193 NA
ATOM     27  H   UNL     1      14.611  -5.448  30.278  0.00  0.00    +0.148 HD
BRANCH   6   1
ATOM      1  S   UNL     1      16.255  -3.861  30.835  0.00  0.00    +0.027 S 
ATOM      3  O   UNL     1      15.851  -2.479  31.007  0.00  0.00    -0.158 OA
ATOM      4  O   UNL     1      16.945  -4.289  29.633  0.00  0.00    -0.158 OA
ATOM     21  C   UNL     1      17.278  -4.307  32.220  0.00  0.00    +0.214 C 
ENDBRANCH   6   1
ENDBRANCH  16   6
ENDBRANCH  11  16
TORSDOF 5
ENDMDL
MODEL 2
REMARK VINA RESULT:      -2.3     16.989     19.342
REMARK  Name = 26742406
REMARK  7 active torsions:
REMARK  status: ('A' for Active; 'I' for Inactive)
REMARK    1  A    between atoms: S_1  and  N_6
REMARK    2  A    between atoms: S_1  and  C_21
REMARK    3  A    between atoms: N_6  and  C_16
REMARK    4  A    between atoms: C_10  and  C_17
REMARK    5  A    between atoms: C_11  and  C_16
REMARK    6  A    between atoms: C_19  and  C_22
REMARK    7  A    between atoms: C_20  and  C_23
REMARK                            x       y       z     vdW  Elec       q    Type
REMARK                         _______ _______ _______ _____ _____    ______ ____
ROOT
ATOM      5  N   UNL     1      -3.718  -1.338  25.896  0.00  0.00    -0.297 NA
ATOM      9  C   UNL     1      -2.618  -1.498  23.541  0.00  0.00    +0.002 C 
ATOM     10  C   UNL     1      -1.549  -1.164  24.619  0.00  0.00    +0.055 C 
ATOM     11  C   UNL     1      -4.479  -0.511  24.924  0.00  0.00    +0.072 C 
ATOM     12  C   UNL     1      -3.729  -0.427  23.576  0.00  0.00    +0.024 C 
ATOM     13  C   UNL     1      -3.265  -2.836  23.955  0.00  0.00    +0.019 C 
ATOM     14  C   UNL     1      -2.305  -0.887  25.950  0.00  0.00    +0.094 C 
ATOM     15  C   UNL     1      -3.739  -2.740  25.416  0.00  0.00    +0.085 C 
ENDROOT
BRANCH  10  17
ATOM      7  N   UNL     1      -0.947   1.193  24.362  0.00  0.00    -0.237 NA
ATOM      8  N   UNL     1       1.276   1.890  23.745  0.00  0.00    -0.232 NA
ATOM     17  C   UNL     1      -0.522  -0.087  24.303  0.00  0.00    +0.050 A 
ATOM     18  C   UNL     1       0.768  -0.452  23.977  0.00  0.00    +0.052 A 
ATOM     19  C   UNL     1       1.632   0.589  23.704  0.00  0.00    +0.081 A 
ATOM     20  C   UNL     1      -0.009   2.116  24.075  0.00  0.00    +0.127 A 
ATOM     23  C   UNL     1      -0.442   3.543  24.132  0.00  0.00    +0.088 C 
BRANCH  19  22
ATOM      2  S   UNL     1       3.739  -1.123  23.822  0.00  0.00    -0.095 S 
ATOM     22  C   UNL     1       3.006   0.351  23.349  0.00  0.00    +0.038 A 
ATOM     24  C   UNL     1       3.877   1.162  22.654  0.00  0.00    +0.017 A 
ATOM     25  C   UNL     1       5.162   0.565  22.506  0.00  0.00    +0.008 A 
ATOM     26  C   UNL     1       5.225  -0.680  23.094  0.00  0.00    +0.046 A 
ENDBRANCH  19  22
ENDBRANCH  10  17
BRANCH  11  16
ATOM     16  C   UNL     1      -4.818   0.875  25.475  0.00  0.00    +0.124 C 
BRANCH  16   6
ATOM      6  N   UNL     1      -3.985   1.882  24.798  0.00  0.00    -0.193 NA
ATOM     27  H   UNL     1      -3.715   1.616  23.841  0.00  0.00    +0.148 HD
BRANCH   6   1
ATOM      1  S   UNL     1      -4.302   3.540  25.060  0.00  0.00    +0.027 S 
ATOM      3  O   UNL     1      -5.636   3.705  25.601  0.00  0.00    -0.158 OA
ATOM      4  O   UNL     1      -3.879   4.280  23.886  0.00  0.00    -0.158 OA
ATOM     21  C   UNL     1      -3.137   3.893  26.357  0.00  0.00    +0.214 C 
ENDBRANCH   6   1
ENDBRANCH  16   6
ENDBRANCH  11  16
TORSDOF 5
ENDMDL
MODEL 3
REMARK VINA RESULT:      -2.1     17.551     20.554
REMARK  Name = 26742406
REMARK  7 active torsions:
REMARK  status: ('A' for Active; 'I' for Inactive)
REMARK    1  A    between atoms: S_1  and  N_6
REMARK    2  A    between atoms: S_1  and  C_21
REMARK    3  A    between atoms: N_6  and  C_16
REMARK    4  A    between atoms: C_10  and  C_17
REMARK    5  A    between atoms: C_11  and  C_16
REMARK    6  A    between atoms: C_19  and  C_22
REMARK    7  A    between atoms: C_20  and  C_23
REMARK                            x       y       z     vdW  Elec       q    Type
REMARK                         _______ _______ _______ _____ _____    ______ ____
ROOT
ATOM      5  N   UNL     1      -2.633  -2.255  23.715  0.00  0.00    -0.297 NA
ATOM      9  C   UNL     1      -2.915  -1.289  26.117  0.00  0.00    +0.002 C 
ATOM     10  C   UNL     1      -3.903  -0.600  25.133  0.00  0.00    +0.055 C 
ATOM     11  C   UNL     1      -1.307  -1.871  24.266  0.00  0.00    +0.072 C 
ATOM     12  C   UNL     1      -1.473  -1.108  25.599  0.00  0.00    +0.024 C 
ATOM     13  C   UNL     1      -3.227  -2.800  26.075  0.00  0.00    +0.019 C 
ATOM     14  C   UNL     1      -3.538  -1.079  23.699  0.00  0.00    +0.094 C 
ATOM     15  C   UNL     1      -3.219  -3.279  24.613  0.00  0.00    +0.085 C 
ENDROOT
BRANCH  10  17
ATOM      7  N   UNL     1      -5.297   1.379  25.487  0.00  0.00    -0.237 NA
ATOM      8  N   UNL     1      -4.405   3.614  25.372  0.00  0.00    -0.232 NA
ATOM     17  C   UNL     1      -4.061   0.911  25.215  0.00  0.00    +0.050 A 
ATOM     18  C   UNL     1      -2.962   1.722  25.012  0.00  0.00    +0.052 A 
ATOM     19  C   UNL     1      -3.196   3.079  25.102  0.00  0.00    +0.081 A 
ATOM     20  C   UNL     1      -5.395   2.720  25.550  0.00  0.00    +0.127 A 
ATOM     23  C   UNL     1      -6.747   3.275  25.851  0.00  0.00    +0.088 C 
BRANCH  19  22
ATOM      2  S   UNL     1      -0.646   3.504  24.268  0.00  0.00    -0.095 S 
ATOM     22  C   UNL     1      -2.141   4.036  24.912  0.00  0.00    +0.038 A 
ATOM     24  C   UNL     1      -2.135   5.388  25.180  0.00  0.00    +0.017 A 
ATOM     25  C   UNL     1      -0.888   5.995  24.851  0.00  0.00    +0.008 A 
ATOM     26  C   UNL     1       0.013   5.083  24.344  0.00  0.00    +0.046 A 
ENDBRANCH  19  22
ENDBRANCH  10  17
BRANCH  11  16
ATOM     16  C   UNL     1      -0.463  -1.085  23.261  0.00  0.00    +0.124 C 
BRANCH  16   6
ATOM      6  N   UNL     1       0.796  -0.673  23.904  0.00  0.00    -0.193 NA
ATOM     27  H   UNL     1       1.114  -1.322  24.637  0.00  0.00    +0.148 HD
BRANCH   6   1
ATOM      1  S   UNL     1       2.017   0.055  22.958  0.00  0.00    +0.027 S 
ATOM      3  O   UNL     1       2.246   1.412  23.411  0.00  0.00    -0.158 OA
ATOM      4  O   UNL     1       1.747  -0.226  21.561  0.00  0.00    -0.158 OA
ATOM     21  C   UNL     1       3.424  -0.924  23.433  0.00  0.00    +0.214 C 
ENDBRANCH   6   1
ENDBRANCH  16   6
ENDBRANCH  11  16
TORSDOF 5
ENDMDL
MODEL 4
REMARK VINA RESULT:      -1.6     17.829     20.424
REMARK  Name = 26742406
REMARK  7 active torsions:
REMARK  status: ('A' for Active; 'I' for Inactive)
REMARK    1  A    between atoms: S_1  and  N_6
REMARK    2  A    between atoms: S_1  and  C_21
REMARK    3  A    between atoms: N_6  and  C_16
REMARK    4  A    between atoms: C_10  and  C_17
REMARK    5  A    between atoms: C_11  and  C_16
REMARK    6  A    between atoms: C_19  and  C_22
REMARK    7  A    between atoms: C_20  and  C_23
REMARK                            x       y       z     vdW  Elec       q    Type
REMARK                         _______ _______ _______ _____ _____    ______ ____
ROOT
ATOM      5  N   UNL     1      -3.336  -1.999  26.025  0.00  0.00    -0.297 NA
ATOM      9  C   UNL     1      -2.385  -1.924  23.601  0.00  0.00    +0.002 C 
ATOM     10  C   UNL     1      -1.303  -1.475  24.625  0.00  0.00    +0.055 C 
ATOM     11  C   UNL     1      -4.269  -1.259  25.136  0.00  0.00    +0.072 C 
ATOM     12  C   UNL     1      -3.630  -1.025  23.749  0.00  0.00    +0.024 C 
ATOM     13  C   UNL     1      -2.807  -3.354  24.000  0.00  0.00    +0.019 C 
ATOM     14  C   UNL     1      -2.000  -1.352  26.010  0.00  0.00    +0.094 C 
ATOM     15  C   UNL     1      -3.191  -3.373  25.489  0.00  0.00    +0.085 C 
ENDROOT
BRANCH  10  17
ATOM      7  N   UNL     1       0.739  -0.478  23.719  0.00  0.00    -0.237 NA
ATOM      8  N   UNL     1       1.091   1.905  23.670  0.00  0.00    -0.232 NA
ATOM     17  C   UNL     1      -0.462  -0.252  24.290  0.00  0.00    +0.050 A 
ATOM     18  C   UNL     1      -0.949   1.007  24.578  0.00  0.00    +0.052 A 
ATOM     19  C   UNL     1      -0.121   2.059  24.244  0.00  0.00    +0.081 A 
ATOM     20  C   UNL     1       1.452   0.629  23.440  0.00  0.00    +0.127 A 
ATOM     23  C   UNL     1       2.786   0.419  22.806  0.00  0.00    +0.088 C 
BRANCH  19  22
ATOM      2  S   UNL     1      -1.578   3.763  25.778  0.00  0.00    -0.095 S 
ATOM     22  C   UNL     1      -0.503   3.423  24.489  0.00  0.00    +0.038 A 
ATOM     24  C   UNL     1      -0.126   4.566  23.817  0.00  0.00    +0.017 A 
ATOM     25  C   UNL     1      -0.727   5.735  24.368  0.00  0.00    +0.008 A 
ATOM     26  C   UNL     1      -1.540   5.441  25.441  0.00  0.00    +0.046 A 
ENDBRANCH  19  22
ENDBRANCH  10  17
BRANCH  11  16
ATOM     16  C   UNL     1      -4.762   0.046  25.763  0.00  0.00    +0.124 C 
BRANCH  16   6
ATOM      6  N   UNL     1      -4.203   1.184  25.016  0.00  0.00    -0.193 NA
ATOM     27  H   UNL     1      -3.684   0.906  24.171  0.00  0.00    +0.148 HD
BRANCH   6   1
ATOM      1  S   UNL     1      -5.100   2.633  24.908  0.00  0.00    +0.027 S 
ATOM      3  O   UNL     1      -4.849   3.454  26.076  0.00  0.00    -0.158 OA
ATOM      4  O   UNL     1      -6.455   2.309  24.506  0.00  0.00    -0.158 OA
ATOM     21  C   UNL     1      -4.304   3.406  23.517  0.00  0.00    +0.214 C 
ENDBRANCH   6   1
ENDBRANCH  16   6
ENDBRANCH  11  16
TORSDOF 5
ENDMDL
MODEL 5
REMARK VINA RESULT:      -1.0     18.392     20.847
REMARK  Name = 26742406
REMARK  7 active torsions:
REMARK  status: ('A' for Active; 'I' for Inactive)
REMARK    1  A    between atoms: S_1  and  N_6
REMARK    2  A    between atoms: S_1  and  C_21
REMARK    3  A    between atoms: N_6  and  C_16
REMARK    4  A    between atoms: C_10  and  C_17
REMARK    5  A    between atoms: C_11  and  C_16
REMARK    6  A    between atoms: C_19  and  C_22
REMARK    7  A    between atoms: C_20  and  C_23
REMARK                            x       y       z     vdW  Elec       q    Type
REMARK                         _______ _______ _______ _____ _____    ______ ____
ROOT
ATOM      5  N   UNL     1      -3.041   4.636  24.714  0.00  0.00    -0.297 NA
ATOM      9  C   UNL     1      -0.552   4.029  25.183  0.00  0.00    +0.002 C 
ATOM     10  C   UNL     1      -1.082   3.242  23.952  0.00  0.00    +0.055 C 
ATOM     11  C   UNL     1      -2.865   4.290  26.149  0.00  0.00    +0.072 C 
ATOM     12  C   UNL     1      -1.448   3.730  26.403  0.00  0.00    +0.024 C 
ATOM     13  C   UNL     1      -0.717   5.529  24.856  0.00  0.00    +0.019 C 
ATOM     14  C   UNL     1      -2.613   3.500  23.860  0.00  0.00    +0.094 C 
ATOM     15  C   UNL     1      -2.167   5.795  24.415  0.00  0.00    +0.085 C 
ENDROOT
BRANCH  10  17
ATOM      7  N   UNL     1       0.528   1.457  23.491  0.00  0.00    -0.237 NA
ATOM      8  N   UNL     1      -0.065  -0.873  23.632  0.00  0.00    -0.232 NA
ATOM     17  C   UNL     1      -0.738   1.763  23.844  0.00  0.00    +0.050 A 
ATOM     18  C   UNL     1      -1.711   0.818  24.103  0.00  0.00    +0.052 A 
ATOM     19  C   UNL     1      -1.313  -0.497  23.979  0.00  0.00    +0.081 A 
ATOM     20  C   UNL     1       0.791   0.140  23.406  0.00  0.00    +0.127 A 
ATOM     23  C   UNL     1       2.183  -0.237  23.020  0.00  0.00    +0.088 C 
BRANCH  19  22
ATOM      2  S   UNL     1      -3.808  -1.493  23.570  0.00  0.00    -0.095 S 
ATOM     22  C   UNL     1      -2.226  -1.583  24.220  0.00  0.00    +0.038 A 
ATOM     24  C   UNL     1      -2.023  -2.747  24.928  0.00  0.00    +0.017 A 
ATOM     25  C   UNL     1      -3.182  -3.577  24.937  0.00  0.00    +0.008 A 
ATOM     26  C   UNL     1      -4.226  -3.015  24.235  0.00  0.00    +0.046 A 
ENDBRANCH  19  22
ENDBRANCH  10  17
BRANCH  11  16
ATOM     16  C   UNL     1      -3.952   3.343  26.658  0.00  0.00    +0.124 C 
BRANCH  16   6
ATOM      6  N   UNL     1      -5.068   3.324  25.698  0.00  0.00    -0.193 NA
ATOM     27  H   UNL     1      -4.839   3.761  24.794  0.00  0.00    +0.148 HD
BRANCH   6   1
ATOM      1  S   UNL     1      -6.097   1.963  25.640  0.00  0.00    +0.027 S 
ATOM      3  O   UNL     1      -6.893   2.000  24.429  0.00  0.00    -0.158 OA
ATOM      4  O   UNL     1      -6.726   1.805  26.937  0.00  0.00    -0.158 OA
ATOM     21  C   UNL     1      -4.901   0.657  25.468  0.00  0.00    +0.214 C 
ENDBRANCH   6   1
ENDBRANCH  16   6
ENDBRANCH  11  16
TORSDOF 5
ENDMDL
MODEL 6
REMARK VINA RESULT:      -0.4     17.635     19.911
REMARK  Name = 26742406
REMARK  7 active torsions:
REMARK  status: ('A' for Active; 'I' for Inactive)
REMARK    1  A    between atoms: S_1  and  N_6
REMARK    2  A    between atoms: S_1  and  C_21
REMARK    3  A    between atoms: N_6  and  C_16
REMARK    4  A    between atoms: C_10  and  C_17
REMARK    5  A    between atoms: C_11  and  C_16
REMARK    6  A    between atoms: C_19  and  C_22
REMARK    7  A    between atoms: C_20  and  C_23
REMARK                            x       y       z     vdW  Elec       q    Type
REMARK                         _______ _______ _______ _____ _____    ______ ____
ROOT
ATOM      5  N   UNL     1      -3.111   4.217  24.538  0.00  0.00    -0.297 NA
ATOM      9  C   UNL     1      -0.575   4.039  25.104  0.00  0.00    +0.002 C 
ATOM     10  C   UNL     1      -0.933   3.110  23.910  0.00  0.00    +0.055 C 
ATOM     11  C   UNL     1      -2.931   3.984  25.995  0.00  0.00    +0.072 C 
ATOM     12  C   UNL     1      -1.454   3.669  26.317  0.00  0.00    +0.024 C 
ATOM     13  C   UNL     1      -0.961   5.473  24.683  0.00  0.00    +0.019 C 
ATOM     14  C   UNL     1      -2.482   3.117  23.765  0.00  0.00    +0.094 C 
ATOM     15  C   UNL     1      -2.419   5.482  24.192  0.00  0.00    +0.085 C 
ENDROOT
BRANCH  10  17
ATOM      7  N   UNL     1      -1.228   0.689  24.102  0.00  0.00    -0.237 NA
ATOM      8  N   UNL     1       0.615  -0.849  23.891  0.00  0.00    -0.232 NA
ATOM     17  C   UNL     1      -0.359   1.701  23.899  0.00  0.00    +0.050 A 
ATOM     18  C   UNL     1       0.993   1.519  23.688  0.00  0.00    +0.052 A 
ATOM     19  C   UNL     1       1.428   0.209  23.696  0.00  0.00    +0.081 A 
ATOM     20  C   UNL     1      -0.681  -0.541  24.086  0.00  0.00    +0.127 A 
ATOM     23  C   UNL     1      -1.612  -1.686  24.305  0.00  0.00    +0.088 C 
BRANCH  19  22
ATOM      2  S   UNL     1       3.836   1.026  22.738  0.00  0.00    -0.095 S 
ATOM     22  C   UNL     1       2.812  -0.123  23.490  0.00  0.00    +0.038 A 
ATOM     24  C   UNL     1       3.485  -1.280  23.815  0.00  0.00    +0.017 A 
ATOM     25  C   UNL     1       4.860  -1.223  23.443  0.00  0.00    +0.008 A 
ATOM     26  C   UNL     1       5.185  -0.024  22.848  0.00  0.00    +0.046 A 
ENDBRANCH  19  22
ENDBRANCH  10  17
BRANCH  11  16
ATOM     16  C   UNL     1      -3.873   2.906  26.534  0.00  0.00    +0.124 C 
BRANCH  16   6
ATOM      6  N   UNL     1      -5.183   3.034  25.875  0.00  0.00    -0.193 NA
ATOM     27  H   UNL     1      -5.210   3.766  25.152  0.00  0.00    +0.148 HD
BRANCH   6   1
ATOM      1  S   UNL     1      -6.101   1.629  25.561  0.00  0.00    +0.027 S 
ATOM      3  O   UNL     1      -6.933   1.837  24.392  0.00  0.00    -0.158 OA
ATOM      4  O   UNL     1      -6.676   1.165  26.809  0.00  0.00    -0.158 OA
ATOM     21  C   UNL     1      -4.810   0.489  25.116  0.00  0.00    +0.214 C 
ENDBRANCH   6   1
ENDBRANCH  16   6
ENDBRANCH  11  16
TORSDOF 5
ENDMDL
MODEL 7
REMARK VINA RESULT:      -0.2     17.419     20.136
REMARK  Name = 26742406
REMARK  7 active torsions:
REMARK  status: ('A' for Active; 'I' for Inactive)
REMARK    1  A    between atoms: S_1  and  N_6
REMARK    2  A    between atoms: S_1  and  C_21
REMARK    3  A    between atoms: N_6  and  C_16
REMARK    4  A    between atoms: C_10  and  C_17
REMARK    5  A    between atoms: C_11  and  C_16
REMARK    6  A    between atoms: C_19  and  C_22
REMARK    7  A    between atoms: C_20  and  C_23
REMARK                            x       y       z     vdW  Elec       q    Type
REMARK                         _______ _______ _______ _____ _____    ______ ____
ROOT
ATOM      5  N   UNL     1       0.343   3.186  25.604  0.00  0.00    -0.297 NA
ATOM      9  C   UNL     1      -1.696   4.023  24.215  0.00  0.00    +0.002 C 
ATOM     10  C   UNL     1      -2.173   3.165  25.421  0.00  0.00    +0.055 C 
ATOM     11  C   UNL     1       0.556   2.893  24.162  0.00  0.00    +0.072 C 
ATOM     12  C   UNL     1      -0.725   3.191  23.351  0.00  0.00    +0.024 C 
ATOM     13  C   UNL     1      -0.888   5.201  24.800  0.00  0.00    +0.019 C 
ATOM     14  C   UNL     1      -0.908   2.541  26.075  0.00  0.00    +0.094 C 
ATOM     15  C   UNL     1       0.191   4.654  25.751  0.00  0.00    +0.085 C 
ENDROOT
BRANCH  10  17
ATOM      7  N   UNL     1      -4.542   2.567  25.279  0.00  0.00    -0.237 NA
ATOM      8  N   UNL     1      -5.271   0.330  24.760  0.00  0.00    -0.232 NA
ATOM     17  C   UNL     1      -3.267   2.135  25.180  0.00  0.00    +0.050 A 
ATOM     18  C   UNL     1      -2.920   0.833  24.879  0.00  0.00    +0.052 A 
ATOM     19  C   UNL     1      -3.975  -0.034  24.678  0.00  0.00    +0.081 A 
ATOM     20  C   UNL     1      -5.479   1.626  25.060  0.00  0.00    +0.127 A 
ATOM     23  C   UNL     1      -6.901   2.067  25.159  0.00  0.00    +0.088 C 
BRANCH  19  22
ATOM      2  S   UNL     1      -2.214  -2.104  24.652  0.00  0.00    -0.095 S 
ATOM     22  C   UNL     1      -3.756  -1.419  24.358  0.00  0.00    +0.038 A 
ATOM     24  C   UNL     1      -4.635  -2.337  23.823  0.00  0.00    +0.017 A 
ATOM     25  C   UNL     1      -4.034  -3.618  23.652  0.00  0.00    +0.008 A 
ATOM     26  C   UNL     1      -2.719  -3.631  24.064  0.00  0.00    +0.046 A 
ENDBRANCH  19  22
ENDBRANCH  10  17
BRANCH  11  16
ATOM     16  C   UNL     1       1.061   1.469  23.925  0.00  0.00    +0.124 C 
BRANCH  16   6
ATOM      6  N   UNL     1       2.412   1.524  23.344  0.00  0.00    -0.193 NA
ATOM     27  H   UNL     1       3.054   2.144  23.857  0.00  0.00    +0.148 HD
BRANCH   6   1
ATOM      1  S   UNL     1       3.096   0.105  22.685  0.00  0.00    +0.027 S 
ATOM      3  O   UNL     1       2.932   0.104  21.245  0.00  0.00    -0.158 OA
ATOM      4  O   UNL     1       2.667  -1.027  23.482  0.00  0.00    -0.158 OA
ATOM     21  C   UNL     1       4.818   0.380  23.038  0.00  0.00    +0.214 C 
ENDBRANCH   6   1
ENDBRANCH  16   6
ENDBRANCH  11  16
TORSDOF 5
ENDMDL
MODEL 8
REMARK VINA RESULT:       0.2     17.150     19.409
REMARK  Name = 26742406
REMARK  7 active torsions:
REMARK  status: ('A' for Active; 'I' for Inactive)
REMARK    1  A    between atoms: S_1  and  N_6
REMARK    2  A    between atoms: S_1  and  C_21
REMARK    3  A    between atoms: N_6  and  C_16
REMARK    4  A    between atoms: C_10  and  C_17
REMARK    5  A    between atoms: C_11  and  C_16
REMARK    6  A    between atoms: C_19  and  C_22
REMARK    7  A    between atoms: C_20  and  C_23
REMARK                            x       y       z     vdW  Elec       q    Type
REMARK                         _______ _______ _______ _____ _____    ______ ____
ROOT
ATOM      5  N   UNL     1      -3.005   4.043  24.087  0.00  0.00    -0.297 NA
ATOM      9  C   UNL     1      -0.700   3.838  25.281  0.00  0.00    +0.002 C 
ATOM     10  C   UNL     1      -0.667   3.114  23.905  0.00  0.00    +0.055 C 
ATOM     11  C   UNL     1      -3.197   3.573  25.484  0.00  0.00    +0.072 C 
ATOM     12  C   UNL     1      -1.837   3.247  26.140  0.00  0.00    +0.024 C 
ATOM     13  C   UNL     1      -1.061   5.311  24.998  0.00  0.00    +0.019 C 
ATOM     14  C   UNL     1      -2.121   3.105  23.352  0.00  0.00    +0.094 C 
ATOM     15  C   UNL     1      -2.337   5.365  24.140  0.00  0.00    +0.085 C 
ENDROOT
BRANCH  10  17
ATOM      7  N   UNL     1      -0.830   0.672  23.939  0.00  0.00    -0.237 NA
ATOM      8  N   UNL     1       1.104  -0.746  23.708  0.00  0.00    -0.232 NA
ATOM     17  C   UNL     1      -0.014   1.741  23.832  0.00  0.00    +0.050 A 
ATOM     18  C   UNL     1       1.353   1.647  23.663  0.00  0.00    +0.052 A 
ATOM     19  C   UNL     1       1.862   0.366  23.609  0.00  0.00    +0.081 A 
ATOM     20  C   UNL     1      -0.214  -0.523  23.870  0.00  0.00    +0.127 A 
ATOM     23  C   UNL     1      -1.085  -1.728  23.983  0.00  0.00    +0.088 C 
BRANCH  19  22
ATOM      2  S   UNL     1       3.905  -1.406  23.874  0.00  0.00    -0.095 S 
ATOM     22  C   UNL     1       3.269   0.123  23.437  0.00  0.00    +0.038 A 
ATOM     24  C   UNL     1       4.244   0.969  22.953  0.00  0.00    +0.017 A 
ATOM     25  C   UNL     1       5.529   0.353  22.939  0.00  0.00    +0.008 A 
ATOM     26  C   UNL     1       5.488  -0.940  23.414  0.00  0.00    +0.046 A 
ENDBRANCH  19  22
ENDBRANCH  10  17
BRANCH  11  16
ATOM     16  C   UNL     1      -4.170   2.396  25.576  0.00  0.00    +0.124 C 
BRANCH  16   6
ATOM      6  N   UNL     1      -3.477   1.162  25.172  0.00  0.00    -0.193 NA
ATOM     27  H   UNL     1      -2.658   0.941  25.756  0.00  0.00    +0.148 HD
BRANCH   6   1
ATOM      1  S   UNL     1      -4.394  -0.169  24.622  0.00  0.00    +0.027 S 
ATOM      3  O   UNL     1      -3.946  -0.562  23.301  0.00  0.00    -0.158 OA
ATOM      4  O   UNL     1      -5.796   0.098  24.883  0.00  0.00    -0.158 OA
ATOM     21  C   UNL     1      -3.870  -1.422  25.771  0.00  0.00    +0.214 C 
ENDBRANCH   6   1
ENDBRANCH  16   6
ENDBRANCH  11  16
TORSDOF 5
ENDMDL
MODEL 9
REMARK VINA RESULT:       0.3     17.796     20.284
REMARK  Name = 26742406
REMARK  7 active torsions:
REMARK  status: ('A' for Active; 'I' for Inactive)
REMARK    1  A    between atoms: S_1  and  N_6
REMARK    2  A    between atoms: S_1  and  C_21
REMARK    3  A    between atoms: N_6  and  C_16
REMARK    4  A    between atoms: C_10  and  C_17
REMARK    5  A    between atoms: C_11  and  C_16
REMARK    6  A    between atoms: C_19  and  C_22
REMARK    7  A    between atoms: C_20  and  C_23
REMARK                            x       y       z     vdW  Elec       q    Type
REMARK                         _______ _______ _______ _____ _____    ______ ____
ROOT
ATOM      5  N   UNL     1      -5.122   2.790  24.005  0.00  0.00    -0.297 NA
ATOM      9  C   UNL     1      -3.846   3.619  26.119  0.00  0.00    +0.002 C 
ATOM     10  C   UNL     1      -2.881   3.523  24.903  0.00  0.00    +0.055 C 
ATOM     11  C   UNL     1      -5.408   1.893  25.155  0.00  0.00    +0.072 C 
ATOM     12  C   UNL     1      -4.503   2.243  26.357  0.00  0.00    +0.024 C 
ATOM     13  C   UNL     1      -4.970   4.597  25.718  0.00  0.00    +0.019 C 
ATOM     14  C   UNL     1      -3.661   2.835  23.746  0.00  0.00    +0.094 C 
ATOM     15  C   UNL     1      -5.570   4.155  24.372  0.00  0.00    +0.085 C 
ENDROOT
BRANCH  10  17
ATOM      7  N   UNL     1      -0.946   3.086  26.335  0.00  0.00    -0.237 NA
ATOM      8  N   UNL     1       0.953   1.814  25.573  0.00  0.00    -0.232 NA
ATOM     17  C   UNL     1      -1.509   2.903  25.122  0.00  0.00    +0.050 A 
ATOM     18  C   UNL     1      -0.911   2.196  24.098  0.00  0.00    +0.052 A 
ATOM     19  C   UNL     1       0.333   1.670  24.383  0.00  0.00    +0.081 A 
ATOM     20  C   UNL     1       0.267   2.523  26.488  0.00  0.00    +0.127 A 
ATOM     23  C   UNL     1       0.921   2.704  27.817  0.00  0.00    +0.088 C 
BRANCH  19  22
ATOM      2  S   UNL     1       2.740   1.226  23.203  0.00  0.00    -0.095 S 
ATOM     22  C   UNL     1       1.069   0.913  23.406  0.00  0.00    +0.038 A 
ATOM     24  C   UNL     1       0.622  -0.078  22.559  0.00  0.00    +0.017 A 
ATOM     25  C   UNL     1       1.666  -0.588  21.733  0.00  0.00    +0.008 A 
ATOM     26  C   UNL     1       2.871   0.034  21.981  0.00  0.00    +0.046 A 
ENDBRANCH  19  22
ENDBRANCH  10  17
BRANCH  11  16
ATOM     16  C   UNL     1      -5.308   0.413  24.780  0.00  0.00    +0.124 C 
BRANCH  16   6
ATOM      6  N   UNL     1      -4.290  -0.233  25.623  0.00  0.00    -0.193 NA
ATOM     27  H   UNL     1      -4.684  -0.736  26.431  0.00  0.00    +0.148 HD
BRANCH   6   1
ATOM      1  S   UNL     1      -2.922  -0.942  24.886  0.00  0.00    +0.027 S 
ATOM      3  O   UNL     1      -1.772  -0.816  25.760  0.00  0.00    -0.158 OA
ATOM      4  O   UNL     1      -2.859  -0.497  23.507  0.00  0.00    -0.158 OA
ATOM     21  C   UNL     1      -3.410  -2.652  24.870  0.00  0.00    +0.214 C 
ENDBRANCH   6   1
ENDBRANCH  16   6
ENDBRANCH  11  16
TORSDOF 5
ENDMDL
MODEL 10
REMARK VINA RESULT:       0.3     17.888     20.257
REMARK  Name = 26742406
REMARK  7 active torsions:
REMARK  status: ('A' for Active; 'I' for Inactive)
REMARK    1  A    between atoms: S_1  and  N_6
REMARK    2  A    between atoms: S_1  and  C_21
REMARK    3  A    between atoms: N_6  and  C_16
REMARK    4  A    between atoms: C_10  and  C_17
REMARK    5  A    between atoms: C_11  and  C_16
REMARK    6  A    between atoms: C_19  and  C_22
REMARK    7  A    between atoms: C_20  and  C_23
REMARK                            x       y       z     vdW  Elec       q    Type
REMARK                         _______ _______ _______ _____ _____    ______ ____
ROOT
ATOM      5  N   UNL     1      -4.415   3.411  25.737  0.00  0.00    -0.297 NA
ATOM      9  C   UNL     1      -5.362   1.227  24.681  0.00  0.00    +0.002 C 
ATOM     10  C   UNL     1      -4.104   0.916  25.539  0.00  0.00    +0.055 C 
ATOM     11  C   UNL     1      -4.635   3.606  24.280  0.00  0.00    +0.072 C 
ATOM     12  C   UNL     1      -4.998   2.267  23.601  0.00  0.00    +0.024 C 
ATOM     13  C   UNL     1      -6.389   1.892  25.623  0.00  0.00    +0.019 C 
ATOM     14  C   UNL     1      -3.484   2.278  25.964  0.00  0.00    +0.094 C 
ATOM     15  C   UNL     1      -5.720   3.070  26.352  0.00  0.00    +0.085 C 
ENDROOT
BRANCH  10  17
ATOM      7  N   UNL     1      -3.390  -1.348  24.945  0.00  0.00    -0.237 NA
ATOM      8  N   UNL     1      -1.238  -1.797  23.958  0.00  0.00    -0.232 NA
ATOM     17  C   UNL     1      -3.065  -0.039  24.969  0.00  0.00    +0.050 A 
ATOM     18  C   UNL     1      -1.861   0.461  24.512  0.00  0.00    +0.052 A 
ATOM     19  C   UNL     1      -0.977  -0.475  24.013  0.00  0.00    +0.081 A 
ATOM     20  C   UNL     1      -2.444  -2.159  24.434  0.00  0.00    +0.127 A 
ATOM     23  C   UNL     1      -2.770  -3.614  24.389  0.00  0.00    +0.088 C 
BRANCH  19  22
ATOM      2  S   UNL     1       1.064   1.315  24.129  0.00  0.00    -0.095 S 
ATOM     22  C   UNL     1       0.312  -0.092  23.505  0.00  0.00    +0.038 A 
ATOM     24  C   UNL     1       1.085  -0.707  22.544  0.00  0.00    +0.017 A 
ATOM     25  C   UNL     1       2.309  -0.015  22.316  0.00  0.00    +0.008 A 
ATOM     26  C   UNL     1       2.427   1.104  23.113  0.00  0.00    +0.046 A 
ENDBRANCH  19  22
ENDBRANCH  10  17
BRANCH  11  16
ATOM     16  C   UNL     1      -3.448   4.288  23.596  0.00  0.00    +0.124 C 
BRANCH  16   6
ATOM      6  N   UNL     1      -2.203   3.622  24.010  0.00  0.00    -0.193 NA
ATOM     27  H   UNL     1      -1.913   2.862  23.378  0.00  0.00    +0.148 HD
BRANCH   6   1
ATOM      1  S   UNL     1      -0.946   4.553  24.696  0.00  0.00    +0.027 S 
ATOM      3  O   UNL     1      -1.500   5.732  25.332  0.00  0.00    -0.158 OA
ATOM      4  O   UNL     1       0.126   4.667  23.726  0.00  0.00    -0.158 OA
ATOM     21  C   UNL     1      -0.388   3.453  25.978  0.00  0.00    +0.214 C 
ENDBRANCH   6   1
ENDBRANCH  16   6
ENDBRANCH  11  16
TORSDOF 5
ENDMDL
