MODEL 1
REMARK VINA RESULT:       5.1      0.000      0.000
REMARK  Name = 7674053
REMARK  5 active torsions:
REMARK  status: ('A' for Active; 'I' for Inactive)
REMARK    1  A    between atoms: S_1  and  N_8
REMARK    2  A    between atoms: S_1  and  C_22
REMARK    3  A    between atoms: N_10  and  C_18
REMARK    4  A    between atoms: N_12  and  C_29
REMARK    5  A    between atoms: C_13  and  C_17
REMARK                            x       y       z     vdW  Elec       q    Type
REMARK                         _______ _______ _______ _____ _____    ______ ____
ROOT
ATOM      6  O   UNL     1       1.708  -0.317  21.745  0.00  0.00    -0.252 OA
ATOM      8  N   UNL     1      -2.379  -0.784  24.563  0.00  0.00    -0.162 NA
ATOM      9  N   UNL     1       0.256  -0.949  23.434  0.00  0.00    -0.282 N 
ATOM     12  N   UNL     1       2.562  -0.720  23.874  0.00  0.00    -0.269 N 
ATOM     13  C   UNL     1      -2.144  -0.329  23.164  0.00  0.00    +0.183 C 
ATOM     14  C   UNL     1      -0.899  -0.945  22.532  0.00  0.00    +0.139 C 
ATOM     15  C   UNL     1      -1.434  -1.824  25.042  0.00  0.00    +0.129 C 
ATOM     16  C   UNL     1      -0.007  -1.337  24.825  0.00  0.00    +0.126 C 
ATOM     21  C   UNL     1       1.540  -0.638  22.924  0.00  0.00    +0.307 C 
ATOM     38  H   UNL     1       2.316  -0.969  24.825  0.00  0.00    +0.156 HD
ENDROOT
BRANCH  12  29
ATOM     29  C   UNL     1       3.945  -0.471  23.684  0.00  0.00    +0.035 A 
ATOM     31  C   UNL     1       4.876  -1.477  23.947  0.00  0.00    +0.023 A 
ATOM     32  C   UNL     1       4.375   0.777  23.236  0.00  0.00    +0.023 A 
ATOM     33  C   UNL     1       6.236  -1.234  23.760  0.00  0.00    +0.002 A 
ATOM     34  C   UNL     1       5.735   1.020  23.049  0.00  0.00    +0.002 A 
ATOM     35  C   UNL     1       6.667   0.014  23.311  0.00  0.00    +0.000 A 
ENDBRANCH  12  29
BRANCH  13  17
ATOM      3  O   UNL     1      -2.839   1.918  22.771  0.00  0.00    -0.274 OA
ATOM     10  N   UNL     1      -0.878   1.534  23.966  0.00  0.00    -0.303 N 
ATOM     17  C   UNL     1      -2.015   1.157  23.273  0.00  0.00    +0.234 C 
ATOM     36  H   UNL     1      -0.281   0.817  24.366  0.00  0.00    +0.149 HD
BRANCH  10  18
ATOM      7  O   UNL     1      -0.199   2.292  26.503  0.00  0.00    -0.274 OA
ATOM     11  N   UNL     1      -0.827   4.450  26.090  0.00  0.00    -0.314 N 
ATOM     18  C   UNL     1      -0.512   2.909  24.190  0.00  0.00    +0.159 C 
ATOM     19  C   UNL     1      -1.403   3.846  23.385  0.00  0.00    +0.033 C 
ATOM     20  C   UNL     1      -1.111   5.286  23.774  0.00  0.00    +0.021 C 
ATOM     23  C   UNL     1      -0.531   3.161  25.694  0.00  0.00    +0.233 C 
ATOM     24  C   UNL     1      -1.419   5.473  25.249  0.00  0.00    +0.104 C 
ATOM     37  H   UNL     1      -0.787   4.643  27.086  0.00  0.00    +0.149 HD
ENDBRANCH  10  18
ENDBRANCH  13  17
BRANCH   8   1
ATOM      1  S   UNL     1      -4.008  -0.963  25.050  0.00  0.00    +0.062 S 
ATOM      4  O   UNL     1      -4.044  -1.541  26.377  0.00  0.00    -0.153 OA
ATOM      5  O   UNL     1      -4.764  -1.547  23.963  0.00  0.00    -0.153 OA
BRANCH   1  22
ATOM      2  F   UNL     1      -5.574   4.700  25.516  0.00  0.00    -0.205 F 
ATOM     22  C   UNL     1      -4.478   0.734  25.189  0.00  0.00    +0.106 A 
ATOM     25  C   UNL     1      -3.616   1.647  25.798  0.00  0.00    +0.031 A 
ATOM     26  C   UNL     1      -5.709   1.159  24.692  0.00  0.00    +0.031 A 
ATOM     27  C   UNL     1      -3.987   2.987  25.908  0.00  0.00    +0.040 A 
ATOM     28  C   UNL     1      -6.079   2.500  24.802  0.00  0.00    +0.040 A 
ATOM     30  C   UNL     1      -5.219   3.414  25.411  0.00  0.00    +0.124 A 
ENDBRANCH   1  22
ENDBRANCH   8   1
TORSDOF 5
ENDMDL
MODEL 2
REMARK VINA RESULT:       7.5      2.148      4.478
REMARK  Name = 7674053
REMARK  5 active torsions:
REMARK  status: ('A' for Active; 'I' for Inactive)
REMARK    1  A    between atoms: S_1  and  N_8
REMARK    2  A    between atoms: S_1  and  C_22
REMARK    3  A    between atoms: N_10  and  C_18
REMARK    4  A    between atoms: N_12  and  C_29
REMARK    5  A    between atoms: C_13  and  C_17
REMARK                            x       y       z     vdW  Elec       q    Type
REMARK                         _______ _______ _______ _____ _____    ______ ____
ROOT
ATOM      6  O   UNL     1       1.372   0.746  25.629  0.00  0.00    -0.252 OA
ATOM      8  N   UNL     1      -2.449   3.230  23.606  0.00  0.00    -0.162 NA
ATOM      9  N   UNL     1       0.137   2.217  24.337  0.00  0.00    -0.282 N 
ATOM     12  N   UNL     1       2.164   1.332  23.519  0.00  0.00    -0.269 N 
ATOM     13  C   UNL     1      -2.299   2.402  24.836  0.00  0.00    +0.183 C 
ATOM     14  C   UNL     1      -0.874   2.389  25.383  0.00  0.00    +0.139 C 
ATOM     15  C   UNL     1      -1.225   3.970  23.207  0.00  0.00    +0.129 C 
ATOM     16  C   UNL     1      -0.062   2.992  23.106  0.00  0.00    +0.126 C 
ATOM     21  C   UNL     1       1.251   1.376  24.576  0.00  0.00    +0.307 C 
ATOM     38  H   UNL     1       1.961   1.869  22.684  0.00  0.00    +0.156 HD
ENDROOT
BRANCH  12  29
ATOM     29  C   UNL     1       3.371   0.591  23.446  0.00  0.00    +0.035 A 
ATOM     31  C   UNL     1       4.582   1.252  23.235  0.00  0.00    +0.023 A 
ATOM     32  C   UNL     1       3.349  -0.796  23.584  0.00  0.00    +0.023 A 
ATOM     33  C   UNL     1       5.770   0.525  23.163  0.00  0.00    +0.002 A 
ATOM     34  C   UNL     1       4.537  -1.523  23.513  0.00  0.00    +0.002 A 
ATOM     35  C   UNL     1       5.748  -0.863  23.302  0.00  0.00    +0.000 A 
ENDBRANCH  12  29
BRANCH  13  17
ATOM      3  O   UNL     1      -3.088   0.791  23.265  0.00  0.00    -0.274 OA
ATOM     10  N   UNL     1      -2.689   0.127  25.461  0.00  0.00    -0.303 N 
ATOM     17  C   UNL     1      -2.729   1.033  24.415  0.00  0.00    +0.234 C 
ATOM     36  H   UNL     1      -2.343   0.431  26.366  0.00  0.00    +0.149 HD
BRANCH  10  18
ATOM      7  O   UNL     1      -0.719  -1.768  25.439  0.00  0.00    -0.274 OA
ATOM     11  N   UNL     1      -2.024  -3.196  24.225  0.00  0.00    -0.314 N 
ATOM     18  C   UNL     1      -3.075  -1.254  25.323  0.00  0.00    +0.159 C 
ATOM     19  C   UNL     1      -4.211  -1.402  24.320  0.00  0.00    +0.033 C 
ATOM     20  C   UNL     1      -4.476  -2.876  24.064  0.00  0.00    +0.021 C 
ATOM     23  C   UNL     1      -1.826  -2.059  24.980  0.00  0.00    +0.233 C 
ATOM     24  C   UNL     1      -3.228  -3.511  23.479  0.00  0.00    +0.104 C 
ATOM     37  H   UNL     1      -1.208  -3.771  24.039  0.00  0.00    +0.149 HD
ENDBRANCH  10  18
ENDBRANCH  13  17
BRANCH   8   1
ATOM      1  S   UNL     1      -3.930   4.062  23.414  0.00  0.00    +0.062 S 
ATOM      4  O   UNL     1      -4.471   3.768  22.104  0.00  0.00    -0.153 OA
ATOM      5  O   UNL     1      -3.765   5.429  23.861  0.00  0.00    -0.153 OA
BRANCH   1  22
ATOM      2  F   UNL     1      -7.229   1.235  27.398  0.00  0.00    -0.205 F 
ATOM     22  C   UNL     1      -4.918   3.215  24.608  0.00  0.00    +0.106 A 
ATOM     25  C   UNL     1      -5.688   2.118  24.223  0.00  0.00    +0.031 A 
ATOM     26  C   UNL     1      -4.928   3.644  25.934  0.00  0.00    +0.031 A 
ATOM     27  C   UNL     1      -6.469   1.449  25.165  0.00  0.00    +0.040 A 
ATOM     28  C   UNL     1      -5.708   2.975  26.877  0.00  0.00    +0.040 A 
ATOM     30  C   UNL     1      -6.479   1.878  26.493  0.00  0.00    +0.124 A 
ENDBRANCH   1  22
ENDBRANCH   8   1
TORSDOF 5
ENDMDL
MODEL 3
REMARK VINA RESULT:       8.8      1.637      2.385
REMARK  Name = 7674053
REMARK  5 active torsions:
REMARK  status: ('A' for Active; 'I' for Inactive)
REMARK    1  A    between atoms: S_1  and  N_8
REMARK    2  A    between atoms: S_1  and  C_22
REMARK    3  A    between atoms: N_10  and  C_18
REMARK    4  A    between atoms: N_12  and  C_29
REMARK    5  A    between atoms: C_13  and  C_17
REMARK                            x       y       z     vdW  Elec       q    Type
REMARK                         _______ _______ _______ _____ _____    ______ ____
ROOT
ATOM      6  O   UNL     1       1.808   1.153  22.535  0.00  0.00    -0.252 OA
ATOM      8  N   UNL     1      -2.358  -0.456  24.753  0.00  0.00    -0.162 NA
ATOM      9  N   UNL     1       0.233  -0.215  23.540  0.00  0.00    -0.282 N 
ATOM     12  N   UNL     1       2.534  -0.664  23.799  0.00  0.00    -0.269 N 
ATOM     13  C   UNL     1      -2.019   0.765  23.969  0.00  0.00    +0.183 C 
ATOM     14  C   UNL     1      -0.884   0.544  22.972  0.00  0.00    +0.139 C 
ATOM     15  C   UNL     1      -1.615  -1.676  24.350  0.00  0.00    +0.129 C 
ATOM     16  C   UNL     1      -0.122  -1.377  24.364  0.00  0.00    +0.126 C 
ATOM     21  C   UNL     1       1.562   0.166  23.234  0.00  0.00    +0.307 C 
ATOM     38  H   UNL     1       2.230  -1.436  24.380  0.00  0.00    +0.156 HD
ENDROOT
BRANCH  12  29
ATOM     29  C   UNL     1       3.943  -0.553  23.685  0.00  0.00    +0.035 A 
ATOM     31  C   UNL     1       4.521   0.676  23.363  0.00  0.00    +0.023 A 
ATOM     32  C   UNL     1       4.751  -1.670  23.893  0.00  0.00    +0.023 A 
ATOM     33  C   UNL     1       5.907   0.787  23.251  0.00  0.00    +0.002 A 
ATOM     34  C   UNL     1       6.137  -1.559  23.781  0.00  0.00    +0.002 A 
ATOM     35  C   UNL     1       6.715  -0.330  23.459  0.00  0.00    +0.000 A 
ENDBRANCH  12  29
BRANCH  13  17
ATOM      3  O   UNL     1      -2.013   2.946  24.933  0.00  0.00    -0.274 OA
ATOM     10  N   UNL     1      -0.830   1.240  25.989  0.00  0.00    -0.303 N 
ATOM     17  C   UNL     1      -1.640   1.777  25.003  0.00  0.00    +0.234 C 
ATOM     36  H   UNL     1      -0.611   0.249  25.964  0.00  0.00    +0.149 HD
BRANCH  10  18
ATOM      7  O   UNL     1       0.774   3.379  25.418  0.00  0.00    -0.274 OA
ATOM     11  N   UNL     1       1.812   3.217  27.447  0.00  0.00    -0.314 N 
ATOM     18  C   UNL     1      -0.310   2.013  27.088  0.00  0.00    +0.159 C 
ATOM     19  C   UNL     1       0.101   1.108  28.242  0.00  0.00    +0.033 C 
ATOM     20  C   UNL     1       0.803   1.930  29.309  0.00  0.00    +0.021 C 
ATOM     23  C   UNL     1       0.812   2.895  26.552  0.00  0.00    +0.233 C 
ATOM     24  C   UNL     1       2.053   2.552  28.713  0.00  0.00    +0.104 C 
ATOM     37  H   UNL     1       2.534   3.851  27.118  0.00  0.00    +0.149 HD
ENDBRANCH  10  18
ENDBRANCH  13  17
BRANCH   8   1
ATOM      1  S   UNL     1      -4.004  -0.675  25.162  0.00  0.00    +0.062 S 
ATOM      4  O   UNL     1      -4.093  -1.156  26.524  0.00  0.00    -0.153 OA
ATOM      5  O   UNL     1      -4.669  -1.372  24.082  0.00  0.00    -0.153 OA
BRANCH   1  22
ATOM      2  F   UNL     1      -5.836   4.927  25.107  0.00  0.00    -0.205 F 
ATOM     22  C   UNL     1      -4.553   1.003  25.146  0.00  0.00    +0.106 A 
ATOM     25  C   UNL     1      -4.441   1.762  23.981  0.00  0.00    +0.031 A 
ATOM     26  C   UNL     1      -5.097   1.569  26.298  0.00  0.00    +0.031 A 
ATOM     27  C   UNL     1      -4.874   3.087  23.968  0.00  0.00    +0.040 A 
ATOM     28  C   UNL     1      -5.532   2.895  26.285  0.00  0.00    +0.040 A 
ATOM     30  C   UNL     1      -5.419   3.654  25.120  0.00  0.00    +0.124 A 
ENDBRANCH   1  22
ENDBRANCH   8   1
TORSDOF 5
ENDMDL
