MODEL 1
REMARK VINA RESULT:      -4.5      0.000      0.000
REMARK  Name = 56775661
REMARK  8 active torsions:
REMARK  status: ('A' for Active; 'I' for Inactive)
REMARK    1  A    between atoms: O_5  and  C_22
REMARK    2  A    between atoms: O_5  and  C_24
REMARK    3  A    between atoms: N_6  and  C_8
REMARK    4  A    between atoms: N_6  and  C_12
REMARK    5  A    between atoms: C_8  and  C_11
REMARK    6  A    between atoms: C_11  and  C_13
REMARK    7  A    between atoms: C_12  and  C_14
REMARK    8  A    between atoms: C_16  and  C_22
REMARK                            x       y       z     vdW  Elec       q    Type
REMARK                         _______ _______ _______ _____ _____    ______ ____
ROOT
ATOM      1  O   UNL     1      -1.726   5.984  25.262  0.00  0.00    -0.376 OA
ATOM      8  C   UNL     1      -1.618   3.852  25.306  0.00  0.00    +0.072 C 
ATOM      9  C   UNL     1      -2.416   4.950  26.001  0.00  0.00    +0.184 C 
ATOM     10  C   UNL     1      -0.870   5.000  24.637  0.00  0.00    +0.184 C 
ENDROOT
BRANCH   8   6
ATOM      6  N   UNL     1      -2.476   3.205  24.311  0.00  0.00    -0.302 NA
ATOM     30  H   UNL     1      -1.997   2.573  23.671  0.00  0.00    +0.123 HD
BRANCH   6  12
ATOM     12  C   UNL     1      -3.552   2.487  24.998  0.00  0.00    +0.117 C 
BRANCH  12  14
ATOM      3  O   UNL     1      -3.563  -2.321  26.123  0.00  0.00    -0.453 OA
ATOM      4  O   UNL     1      -3.658  -2.980  23.806  0.00  0.00    -0.453 OA
ATOM     14  C   UNL     1      -3.582   1.038  24.645  0.00  0.00    -0.030 A 
ATOM     17  C   UNL     1      -3.555   0.076  25.658  0.00  0.00    +0.054 A 
ATOM     18  C   UNL     1      -3.638   0.652  23.293  0.00  0.00    +0.009 A 
ATOM     19  C   UNL     1      -3.584  -1.252  25.281  0.00  0.00    +0.167 A 
ATOM     20  C   UNL     1      -3.666  -0.698  22.939  0.00  0.00    +0.050 A 
ATOM     21  C   UNL     1      -3.638  -1.628  23.958  0.00  0.00    +0.166 A 
ATOM     23  C   UNL     1      -3.611  -3.413  25.181  0.00  0.00    +0.466 C 
ENDBRANCH  12  14
ENDBRANCH   6  12
ENDBRANCH   8   6
BRANCH   8  11
ATOM     11  C   UNL     1      -0.852   2.874  26.141  0.00  0.00    +0.085 C 
BRANCH  11  13
ATOM      2  O   UNL     1      -0.140  -0.405  24.801  0.00  0.00    -0.356 OA
ATOM      7  N   UNL     1      -0.626   0.441  25.791  0.00  0.00    -0.083 NA
ATOM     13  C   UNL     1      -0.432   1.675  25.317  0.00  0.00    +0.086 A 
ATOM     15  C   UNL     1       0.164   1.670  24.044  0.00  0.00    +0.074 A 
ATOM     16  C   UNL     1       0.328   0.339  23.767  0.00  0.00    +0.175 A 
BRANCH  16  22
ATOM     22  C   UNL     1       0.881  -0.401  22.626  0.00  0.00    +0.306 C 
BRANCH  22   5
ATOM      5  O   UNL     1       2.047   0.259  22.126  0.00  0.00    -0.484 OA
BRANCH   5  24
ATOM     24  C   UNL     1       3.221  -0.007  22.773  0.00  0.00    +0.121 A 
ATOM     25  C   UNL     1       4.199   0.983  22.879  0.00  0.00    +0.045 A 
ATOM     26  C   UNL     1       3.443  -1.268  23.327  0.00  0.00    +0.045 A 
ATOM     27  C   UNL     1       5.398   0.712  23.538  0.00  0.00    +0.004 A 
ATOM     28  C   UNL     1       4.642  -1.539  23.987  0.00  0.00    +0.004 A 
ATOM     29  C   UNL     1       5.619  -0.549  24.093  0.00  0.00    +0.000 A 
ENDBRANCH   5  24
ENDBRANCH  22   5
ENDBRANCH  16  22
ENDBRANCH  11  13
ENDBRANCH   8  11
TORSDOF 8
ENDMDL
MODEL 2
REMARK VINA RESULT:      -4.3      1.665      2.219
REMARK  Name = 56775661
REMARK  8 active torsions:
REMARK  status: ('A' for Active; 'I' for Inactive)
REMARK    1  A    between atoms: O_5  and  C_22
REMARK    2  A    between atoms: O_5  and  C_24
REMARK    3  A    between atoms: N_6  and  C_8
REMARK    4  A    between atoms: N_6  and  C_12
REMARK    5  A    between atoms: C_8  and  C_11
REMARK    6  A    between atoms: C_11  and  C_13
REMARK    7  A    between atoms: C_12  and  C_14
REMARK    8  A    between atoms: C_16  and  C_22
REMARK                            x       y       z     vdW  Elec       q    Type
REMARK                         _______ _______ _______ _____ _____    ______ ____
ROOT
ATOM      1  O   UNL     1      -4.018   4.244  26.357  0.00  0.00    -0.376 OA
ATOM      8  C   UNL     1      -4.047   3.175  24.510  0.00  0.00    +0.072 C 
ATOM      9  C   UNL     1      -3.377   3.041  25.873  0.00  0.00    +0.184 C 
ATOM     10  C   UNL     1      -4.610   4.481  25.060  0.00  0.00    +0.184 C 
ENDROOT
BRANCH   8   6
ATOM      6  N   UNL     1      -5.131   2.195  24.420  0.00  0.00    -0.302 NA
ATOM     30  H   UNL     1      -5.192   1.695  23.534  0.00  0.00    +0.123 HD
BRANCH   6  12
ATOM     12  C   UNL     1      -5.004   1.236  25.519  0.00  0.00    +0.117 C 
BRANCH  12  14
ATOM      3  O   UNL     1      -0.988  -1.612  25.896  0.00  0.00    -0.453 OA
ATOM      4  O   UNL     1      -1.780  -3.149  24.218  0.00  0.00    -0.453 OA
ATOM     14  C   UNL     1      -4.171   0.056  25.148  0.00  0.00    -0.030 A 
ATOM     17  C   UNL     1      -2.939  -0.148  25.776  0.00  0.00    +0.054 A 
ATOM     18  C   UNL     1      -4.632  -0.842  24.170  0.00  0.00    +0.009 A 
ATOM     19  C   UNL     1      -2.203  -1.254  25.398  0.00  0.00    +0.167 A 
ATOM     20  C   UNL     1      -3.868  -1.954  23.806  0.00  0.00    +0.050 A 
ATOM     21  C   UNL     1      -2.656  -2.132  24.440  0.00  0.00    +0.166 A 
ATOM     23  C   UNL     1      -0.726  -2.814  25.143  0.00  0.00    +0.466 C 
ENDBRANCH  12  14
ENDBRANCH   6  12
ENDBRANCH   8   6
BRANCH   8  11
ATOM     11  C   UNL     1      -3.191   3.212  23.281  0.00  0.00    +0.085 C 
BRANCH  11  13
ATOM      2  O   UNL     1       0.042   1.928  24.256  0.00  0.00    -0.356 OA
ATOM      7  N   UNL     1      -0.962   2.888  24.291  0.00  0.00    -0.083 NA
ATOM     13  C   UNL     1      -1.920   2.416  23.487  0.00  0.00    +0.086 A 
ATOM     15  C   UNL     1      -1.580   1.174  22.924  0.00  0.00    +0.074 A 
ATOM     16  C   UNL     1      -0.338   0.913  23.439  0.00  0.00    +0.175 A 
BRANCH  16  22
ATOM     22  C   UNL     1       0.613  -0.195  23.286  0.00  0.00    +0.306 C 
BRANCH  22   5
ATOM      5  O   UNL     1       1.680   0.183  22.413  0.00  0.00    -0.484 OA
BRANCH   5  24
ATOM     24  C   UNL     1       2.948   0.001  22.887  0.00  0.00    +0.121 A 
ATOM     25  C   UNL     1       3.321  -1.227  23.434  0.00  0.00    +0.045 A 
ATOM     26  C   UNL     1       3.873   1.045  22.824  0.00  0.00    +0.045 A 
ATOM     27  C   UNL     1       4.615  -1.412  23.918  0.00  0.00    +0.004 A 
ATOM     28  C   UNL     1       5.168   0.860  23.309  0.00  0.00    +0.004 A 
ATOM     29  C   UNL     1       5.539  -0.369  23.855  0.00  0.00    +0.000 A 
ENDBRANCH   5  24
ENDBRANCH  22   5
ENDBRANCH  16  22
ENDBRANCH  11  13
ENDBRANCH   8  11
TORSDOF 8
ENDMDL
MODEL 3
REMARK VINA RESULT:      -4.1      1.272      4.667
REMARK  Name = 56775661
REMARK  8 active torsions:
REMARK  status: ('A' for Active; 'I' for Inactive)
REMARK    1  A    between atoms: O_5  and  C_22
REMARK    2  A    between atoms: O_5  and  C_24
REMARK    3  A    between atoms: N_6  and  C_8
REMARK    4  A    between atoms: N_6  and  C_12
REMARK    5  A    between atoms: C_8  and  C_11
REMARK    6  A    between atoms: C_11  and  C_13
REMARK    7  A    between atoms: C_12  and  C_14
REMARK    8  A    between atoms: C_16  and  C_22
REMARK                            x       y       z     vdW  Elec       q    Type
REMARK                         _______ _______ _______ _____ _____    ______ ____
ROOT
ATOM      1  O   UNL     1      -3.668  -2.856  23.953  0.00  0.00    -0.376 OA
ATOM      8  C   UNL     1      -3.105  -1.305  25.308  0.00  0.00    +0.072 C 
ATOM      9  C   UNL     1      -3.128  -1.523  23.799  0.00  0.00    +0.184 C 
ATOM     10  C   UNL     1      -3.583  -2.751  25.393  0.00  0.00    +0.184 C 
ENDROOT
BRANCH   8   6
ATOM      6  N   UNL     1      -4.213  -0.419  25.672  0.00  0.00    -0.302 NA
ATOM     30  H   UNL     1      -4.095   0.082  26.552  0.00  0.00    +0.123 HD
BRANCH   6  12
ATOM     12  C   UNL     1      -4.442   0.536  24.586  0.00  0.00    +0.117 C 
BRANCH  12  14
ATOM      3  O   UNL     1      -0.861   3.903  24.117  0.00  0.00    -0.453 OA
ATOM      4  O   UNL     1      -2.002   5.482  25.535  0.00  0.00    -0.453 OA
ATOM     14  C   UNL     1      -3.820   1.864  24.860  0.00  0.00    -0.030 A 
ATOM     17  C   UNL     1      -2.584   2.182  24.293  0.00  0.00    +0.054 A 
ATOM     18  C   UNL     1      -4.486   2.787  25.687  0.00  0.00    +0.009 A 
ATOM     19  C   UNL     1      -2.049   3.422  24.576  0.00  0.00    +0.167 A 
ATOM     20  C   UNL     1      -3.923   4.036  25.957  0.00  0.00    +0.050 A 
ATOM     21  C   UNL     1      -2.701   4.324  25.385  0.00  0.00    +0.166 A 
ATOM     23  C   UNL     1      -0.838   5.210  24.729  0.00  0.00    +0.466 C 
ENDBRANCH  12  14
ENDBRANCH   6  12
ENDBRANCH   8   6
BRANCH   8  11
ATOM     11  C   UNL     1      -1.814  -0.927  25.967  0.00  0.00    +0.085 C 
BRANCH  11  13
ATOM      2  O   UNL     1       0.612   0.857  23.970  0.00  0.00    -0.356 OA
ATOM      7  N   UNL     1      -0.254   0.753  25.053  0.00  0.00    -0.083 NA
ATOM     13  C   UNL     1      -0.803  -0.460  24.941  0.00  0.00    +0.086 A 
ATOM     15  C   UNL     1      -0.326  -1.161  23.820  0.00  0.00    +0.074 A 
ATOM     16  C   UNL     1       0.560  -0.289  23.245  0.00  0.00    +0.175 A 
BRANCH  16  22
ATOM     22  C   UNL     1       1.421  -0.351  22.057  0.00  0.00    +0.306 C 
BRANCH  22   5
ATOM      5  O   UNL     1       2.506   0.573  22.182  0.00  0.00    -0.484 OA
BRANCH   5  24
ATOM     24  C   UNL     1       3.604   0.132  22.865  0.00  0.00    +0.121 A 
ATOM     25  C   UNL     1       3.653  -1.179  23.339  0.00  0.00    +0.045 A 
ATOM     26  C   UNL     1       4.678   0.994  23.088  0.00  0.00    +0.045 A 
ATOM     27  C   UNL     1       4.774  -1.628  24.036  0.00  0.00    +0.004 A 
ATOM     28  C   UNL     1       5.800   0.545  23.786  0.00  0.00    +0.004 A 
ATOM     29  C   UNL     1       5.848  -0.766  24.260  0.00  0.00    +0.000 A 
ENDBRANCH   5  24
ENDBRANCH  22   5
ENDBRANCH  16  22
ENDBRANCH  11  13
ENDBRANCH   8  11
TORSDOF 8
ENDMDL
MODEL 4
REMARK VINA RESULT:      -3.2      1.788      6.711
REMARK  Name = 56775661
REMARK  8 active torsions:
REMARK  status: ('A' for Active; 'I' for Inactive)
REMARK    1  A    between atoms: O_5  and  C_22
REMARK    2  A    between atoms: O_5  and  C_24
REMARK    3  A    between atoms: N_6  and  C_8
REMARK    4  A    between atoms: N_6  and  C_12
REMARK    5  A    between atoms: C_8  and  C_11
REMARK    6  A    between atoms: C_11  and  C_13
REMARK    7  A    between atoms: C_12  and  C_14
REMARK    8  A    between atoms: C_16  and  C_22
REMARK                            x       y       z     vdW  Elec       q    Type
REMARK                         _______ _______ _______ _____ _____    ______ ____
ROOT
ATOM      1  O   UNL     1      -3.252  -3.266  25.379  0.00  0.00    -0.376 OA
ATOM      8  C   UNL     1      -2.850  -1.344  24.541  0.00  0.00    +0.072 C 
ATOM      9  C   UNL     1      -3.579  -1.908  25.755  0.00  0.00    +0.184 C 
ATOM     10  C   UNL     1      -2.627  -2.804  24.161  0.00  0.00    +0.184 C 
ENDROOT
BRANCH   8   6
ATOM      6  N   UNL     1      -1.576  -0.771  24.982  0.00  0.00    -0.302 NA
ATOM     30  H   UNL     1      -0.783  -1.411  24.960  0.00  0.00    +0.123 HD
BRANCH   6  12
ATOM     12  C   UNL     1      -1.276   0.413  24.174  0.00  0.00    +0.117 C 
BRANCH  12  14
ATOM      3  O   UNL     1       3.496   1.469  23.476  0.00  0.00    -0.453 OA
ATOM      4  O   UNL     1       3.647   0.042  21.539  0.00  0.00    -0.453 OA
ATOM     14  C   UNL     1       0.021   0.290  23.448  0.00  0.00    -0.030 A 
ATOM     17  C   UNL     1       1.137   1.002  23.896  0.00  0.00    +0.054 A 
ATOM     18  C   UNL     1       0.110  -0.543  22.319  0.00  0.00    +0.009 A 
ATOM     19  C   UNL     1       2.314   0.857  23.191  0.00  0.00    +0.167 A 
ATOM     20  C   UNL     1       1.314  -0.672  21.623  0.00  0.00    +0.050 A 
ATOM     21  C   UNL     1       2.400   0.042  22.085  0.00  0.00    +0.166 A 
ATOM     23  C   UNL     1       4.336   0.948  22.425  0.00  0.00    +0.466 C 
ENDBRANCH  12  14
ENDBRANCH   6  12
ENDBRANCH   8   6
BRANCH   8  11
ATOM     11  C   UNL     1      -3.595  -0.453  23.596  0.00  0.00    +0.085 C 
BRANCH  11  13
ATOM      2  O   UNL     1      -5.434   1.781  25.760  0.00  0.00    -0.356 OA
ATOM      7  N   UNL     1      -5.090   0.513  25.307  0.00  0.00    -0.083 NA
ATOM     13  C   UNL     1      -4.201   0.724  24.332  0.00  0.00    +0.086 A 
ATOM     15  C   UNL     1      -3.946   2.091  24.129  0.00  0.00    +0.074 A 
ATOM     16  C   UNL     1      -4.747   2.712  25.051  0.00  0.00    +0.175 A 
BRANCH  16  22
ATOM     22  C   UNL     1      -4.991   4.115  25.404  0.00  0.00    +0.306 C 
BRANCH  22   5
ATOM      5  O   UNL     1      -3.994   4.578  26.319  0.00  0.00    -0.484 OA
BRANCH   5  24
ATOM     24  C   UNL     1      -2.693   4.350  25.968  0.00  0.00    +0.121 A 
ATOM     25  C   UNL     1      -1.999   3.273  26.519  0.00  0.00    +0.045 A 
ATOM     26  C   UNL     1      -2.058   5.195  25.057  0.00  0.00    +0.045 A 
ATOM     27  C   UNL     1      -0.671   3.041  26.161  0.00  0.00    +0.004 A 
ATOM     28  C   UNL     1      -0.730   4.964  24.699  0.00  0.00    +0.004 A 
ATOM     29  C   UNL     1      -0.037   3.886  25.251  0.00  0.00    +0.000 A 
ENDBRANCH   5  24
ENDBRANCH  22   5
ENDBRANCH  16  22
ENDBRANCH  11  13
ENDBRANCH   8  11
TORSDOF 8
ENDMDL
MODEL 5
REMARK VINA RESULT:      -2.7      1.938      6.913
REMARK  Name = 56775661
REMARK  8 active torsions:
REMARK  status: ('A' for Active; 'I' for Inactive)
REMARK    1  A    between atoms: O_5  and  C_22
REMARK    2  A    between atoms: O_5  and  C_24
REMARK    3  A    between atoms: N_6  and  C_8
REMARK    4  A    between atoms: N_6  and  C_12
REMARK    5  A    between atoms: C_8  and  C_11
REMARK    6  A    between atoms: C_11  and  C_13
REMARK    7  A    between atoms: C_12  and  C_14
REMARK    8  A    between atoms: C_16  and  C_22
REMARK                            x       y       z     vdW  Elec       q    Type
REMARK                         _______ _______ _______ _____ _____    ______ ____
ROOT
ATOM      1  O   UNL     1      -0.404  -2.309  25.763  0.00  0.00    -0.376 OA
ATOM      8  C   UNL     1      -1.418  -0.947  24.469  0.00  0.00    +0.072 C 
ATOM      9  C   UNL     1      -1.189  -1.111  25.967  0.00  0.00    +0.184 C 
ATOM     10  C   UNL     1      -0.662  -2.265  24.341  0.00  0.00    +0.184 C 
ENDROOT
BRANCH   8   6
ATOM      6  N   UNL     1      -0.563   0.137  23.979  0.00  0.00    -0.302 NA
ATOM     30  H   UNL     1       0.066   0.540  24.672  0.00  0.00    +0.123 HD
BRANCH   6  12
ATOM     12  C   UNL     1       0.210  -0.342  22.831  0.00  0.00    +0.117 C 
BRANCH  12  14
ATOM      3  O   UNL     1       4.815  -1.689  23.998  0.00  0.00    -0.453 OA
ATOM      4  O   UNL     1       5.709   0.483  23.460  0.00  0.00    -0.453 OA
ATOM     14  C   UNL     1       1.672  -0.088  22.987  0.00  0.00    -0.030 A 
ATOM     17  C   UNL     1       2.509  -1.109  23.442  0.00  0.00    +0.054 A 
ATOM     18  C   UNL     1       2.195   1.179  22.672  0.00  0.00    +0.009 A 
ATOM     19  C   UNL     1       3.854  -0.825  23.570  0.00  0.00    +0.167 A 
ATOM     20  C   UNL     1       3.560   1.440  22.811  0.00  0.00    +0.050 A 
ATOM     21  C   UNL     1       4.365   0.415  23.263  0.00  0.00    +0.166 A 
ATOM     23  C   UNL     1       5.989  -0.853  23.925  0.00  0.00    +0.466 C 
ENDBRANCH  12  14
ENDBRANCH   6  12
ENDBRANCH   8   6
BRANCH   8  11
ATOM     11  C   UNL     1      -2.821  -0.861  23.954  0.00  0.00    +0.085 C 
BRANCH  11  13
ATOM      2  O   UNL     1      -3.829   2.580  23.518  0.00  0.00    -0.356 OA
ATOM      7  N   UNL     1      -3.242   1.403  23.068  0.00  0.00    -0.083 NA
ATOM     13  C   UNL     1      -3.358   0.548  24.088  0.00  0.00    +0.086 A 
ATOM     15  C   UNL     1      -4.006   1.122  25.195  0.00  0.00    +0.074 A 
ATOM     16  C   UNL     1      -4.280   2.400  24.785  0.00  0.00    +0.175 A 
BRANCH  16  22
ATOM     22  C   UNL     1      -4.934   3.552  25.417  0.00  0.00    +0.306 C 
BRANCH  22   5
ATOM      5  O   UNL     1      -4.003   4.259  26.242  0.00  0.00    -0.484 OA
BRANCH   5  24
ATOM     24  C   UNL     1      -2.688   4.187  25.877  0.00  0.00    +0.121 A 
ATOM     25  C   UNL     1      -2.129   5.187  25.081  0.00  0.00    +0.045 A 
ATOM     26  C   UNL     1      -1.905   3.113  26.299  0.00  0.00    +0.045 A 
ATOM     27  C   UNL     1      -0.787   5.114  24.708  0.00  0.00    +0.004 A 
ATOM     28  C   UNL     1      -0.562   3.038  25.926  0.00  0.00    +0.004 A 
ATOM     29  C   UNL     1      -0.004   4.040  25.131  0.00  0.00    +0.000 A 
ENDBRANCH   5  24
ENDBRANCH  22   5
ENDBRANCH  16  22
ENDBRANCH  11  13
ENDBRANCH   8  11
TORSDOF 8
ENDMDL
MODEL 6
REMARK VINA RESULT:      -2.7      1.926      5.941
REMARK  Name = 56775661
REMARK  8 active torsions:
REMARK  status: ('A' for Active; 'I' for Inactive)
REMARK    1  A    between atoms: O_5  and  C_22
REMARK    2  A    between atoms: O_5  and  C_24
REMARK    3  A    between atoms: N_6  and  C_8
REMARK    4  A    between atoms: N_6  and  C_12
REMARK    5  A    between atoms: C_8  and  C_11
REMARK    6  A    between atoms: C_11  and  C_13
REMARK    7  A    between atoms: C_12  and  C_14
REMARK    8  A    between atoms: C_16  and  C_22
REMARK                            x       y       z     vdW  Elec       q    Type
REMARK                         _______ _______ _______ _____ _____    ______ ____
ROOT
ATOM      1  O   UNL     1      -0.259   4.834  23.480  0.00  0.00    -0.376 OA
ATOM      8  C   UNL     1      -1.463   4.391  25.186  0.00  0.00    +0.072 C 
ATOM      9  C   UNL     1      -1.395   3.973  23.722  0.00  0.00    +0.184 C 
ATOM     10  C   UNL     1      -0.326   5.343  24.832  0.00  0.00    +0.184 C 
ENDROOT
BRANCH   8   6
ATOM      6  N   UNL     1      -0.929   3.304  26.011  0.00  0.00    -0.302 NA
ATOM     30  H   UNL     1      -1.113   3.388  27.010  0.00  0.00    +0.123 HD
BRANCH   6  12
ATOM     12  C   UNL     1      -1.449   2.027  25.519  0.00  0.00    +0.117 C 
BRANCH  12  14
ATOM      3  O   UNL     1       2.907   1.579  23.238  0.00  0.00    -0.453 OA
ATOM      4  O   UNL     1       2.356  -0.599  22.365  0.00  0.00    -0.453 OA
ATOM     14  C   UNL     1      -0.458   1.299  24.675  0.00  0.00    -0.030 A 
ATOM     17  C   UNL     1       0.780   1.884  24.398  0.00  0.00    +0.054 A 
ATOM     18  C   UNL     1      -0.779   0.028  24.166  0.00  0.00    +0.009 A 
ATOM     19  C   UNL     1       1.664   1.171  23.612  0.00  0.00    +0.167 A 
ATOM     20  C   UNL     1       0.134  -0.672  23.373  0.00  0.00    +0.050 A 
ATOM     21  C   UNL     1       1.349  -0.072  23.114  0.00  0.00    +0.166 A 
ATOM     23  C   UNL     1       3.340   0.452  22.448  0.00  0.00    +0.466 C 
ENDBRANCH  12  14
ENDBRANCH   6  12
ENDBRANCH   8   6
BRANCH   8  11
ATOM     11  C   UNL     1      -2.743   4.954  25.721  0.00  0.00    +0.085 C 
BRANCH  11  13
ATOM      2  O   UNL     1      -5.549   2.792  26.431  0.00  0.00    -0.356 OA
ATOM      7  N   UNL     1      -4.699   3.847  26.741  0.00  0.00    -0.083 NA
ATOM     13  C   UNL     1      -3.834   3.904  25.725  0.00  0.00    +0.086 A 
ATOM     15  C   UNL     1      -4.087   2.921  24.753  0.00  0.00    +0.074 A 
ATOM     16  C   UNL     1      -5.174   2.249  25.245  0.00  0.00    +0.175 A 
BRANCH  16  22
ATOM     22  C   UNL     1      -5.971   1.115  24.763  0.00  0.00    +0.306 C 
BRANCH  22   5
ATOM      5  O   UNL     1      -5.201   0.315  23.862  0.00  0.00    -0.484 OA
BRANCH   5  24
ATOM     24  C   UNL     1      -4.474  -0.700  24.418  0.00  0.00    +0.121 A 
ATOM     25  C   UNL     1      -3.937  -0.555  25.697  0.00  0.00    +0.045 A 
ATOM     26  C   UNL     1      -4.268  -1.882  23.706  0.00  0.00    +0.045 A 
ATOM     27  C   UNL     1      -3.195  -1.590  26.264  0.00  0.00    +0.004 A 
ATOM     28  C   UNL     1      -3.525  -2.918  24.273  0.00  0.00    +0.004 A 
ATOM     29  C   UNL     1      -2.989  -2.772  25.552  0.00  0.00    +0.000 A 
ENDBRANCH   5  24
ENDBRANCH  22   5
ENDBRANCH  16  22
ENDBRANCH  11  13
ENDBRANCH   8  11
TORSDOF 8
ENDMDL
MODEL 7
REMARK VINA RESULT:      -2.2      1.668      5.303
REMARK  Name = 56775661
REMARK  8 active torsions:
REMARK  status: ('A' for Active; 'I' for Inactive)
REMARK    1  A    between atoms: O_5  and  C_22
REMARK    2  A    between atoms: O_5  and  C_24
REMARK    3  A    between atoms: N_6  and  C_8
REMARK    4  A    between atoms: N_6  and  C_12
REMARK    5  A    between atoms: C_8  and  C_11
REMARK    6  A    between atoms: C_11  and  C_13
REMARK    7  A    between atoms: C_12  and  C_14
REMARK    8  A    between atoms: C_16  and  C_22
REMARK                            x       y       z     vdW  Elec       q    Type
REMARK                         _______ _______ _______ _____ _____    ______ ____
ROOT
ATOM      1  O   UNL     1      -2.481   5.361  26.129  0.00  0.00    -0.376 OA
ATOM      8  C   UNL     1      -2.732   3.514  25.088  0.00  0.00    +0.072 C 
ATOM      9  C   UNL     1      -1.839   4.745  24.989  0.00  0.00    +0.184 C 
ATOM     10  C   UNL     1      -3.421   4.267  26.221  0.00  0.00    +0.184 C 
ENDROOT
BRANCH   8   6
ATOM      6  N   UNL     1      -1.953   2.413  25.659  0.00  0.00    -0.302 NA
ATOM     30  H   UNL     1      -2.146   1.494  25.263  0.00  0.00    +0.123 HD
BRANCH   6  12
ATOM     12  C   UNL     1      -0.526   2.715  25.530  0.00  0.00    +0.117 C 
BRANCH  12  14
ATOM      3  O   UNL     1       3.405   1.167  22.975  0.00  0.00    -0.453 OA
ATOM      4  O   UNL     1       2.104  -0.424  21.716  0.00  0.00    -0.453 OA
ATOM     14  C   UNL     1       0.143   1.862  24.505  0.00  0.00    -0.030 A 
ATOM     17  C   UNL     1       1.516   1.991  24.285  0.00  0.00    +0.054 A 
ATOM     18  C   UNL     1      -0.615   0.933  23.771  0.00  0.00    +0.009 A 
ATOM     19  C   UNL     1       2.090   1.180  23.326  0.00  0.00    +0.167 A 
ATOM     20  C   UNL     1      -0.010   0.124  22.807  0.00  0.00    +0.050 A 
ATOM     21  C   UNL     1       1.347   0.272  22.607  0.00  0.00    +0.166 A 
ATOM     23  C   UNL     1       3.407   0.148  21.954  0.00  0.00    +0.466 C 
ENDBRANCH  12  14
ENDBRANCH   6  12
ENDBRANCH   8   6
BRANCH   8  11
ATOM     11  C   UNL     1      -3.536   3.102  23.894  0.00  0.00    +0.085 C 
BRANCH  11  13
ATOM      2  O   UNL     1      -5.212   0.054  24.869  0.00  0.00    -0.356 OA
ATOM      7  N   UNL     1      -4.962   1.415  24.995  0.00  0.00    -0.083 NA
ATOM     13  C   UNL     1      -4.053   1.688  24.055  0.00  0.00    +0.086 A 
ATOM     15  C   UNL     1      -3.697   0.550  23.311  0.00  0.00    +0.074 A 
ATOM     16  C   UNL     1      -4.453  -0.449  23.863  0.00  0.00    +0.175 A 
BRANCH  16  22
ATOM     22  C   UNL     1      -4.595  -1.885  23.590  0.00  0.00    +0.306 C 
BRANCH  22   5
ATOM      5  O   UNL     1      -4.034  -2.650  24.660  0.00  0.00    -0.484 OA
BRANCH   5  24
ATOM     24  C   UNL     1      -2.783  -2.290  25.076  0.00  0.00    +0.121 A 
ATOM     25  C   UNL     1      -2.630  -1.373  26.115  0.00  0.00    +0.045 A 
ATOM     26  C   UNL     1      -1.658  -2.840  24.460  0.00  0.00    +0.045 A 
ATOM     27  C   UNL     1      -1.354  -1.004  26.539  0.00  0.00    +0.004 A 
ATOM     28  C   UNL     1      -0.380  -2.472  24.884  0.00  0.00    +0.004 A 
ATOM     29  C   UNL     1      -0.229  -1.554  25.924  0.00  0.00    +0.000 A 
ENDBRANCH   5  24
ENDBRANCH  22   5
ENDBRANCH  16  22
ENDBRANCH  11  13
ENDBRANCH   8  11
TORSDOF 8
ENDMDL
MODEL 8
REMARK VINA RESULT:      -1.9      2.701      5.069
REMARK  Name = 56775661
REMARK  8 active torsions:
REMARK  status: ('A' for Active; 'I' for Inactive)
REMARK    1  A    between atoms: O_5  and  C_22
REMARK    2  A    between atoms: O_5  and  C_24
REMARK    3  A    between atoms: N_6  and  C_8
REMARK    4  A    between atoms: N_6  and  C_12
REMARK    5  A    between atoms: C_8  and  C_11
REMARK    6  A    between atoms: C_11  and  C_13
REMARK    7  A    between atoms: C_12  and  C_14
REMARK    8  A    between atoms: C_16  and  C_22
REMARK                            x       y       z     vdW  Elec       q    Type
REMARK                         _______ _______ _______ _____ _____    ______ ____
ROOT
ATOM      1  O   UNL     1       0.159   2.346  27.287  0.00  0.00    -0.376 OA
ATOM      8  C   UNL     1      -0.330   3.233  25.407  0.00  0.00    +0.072 C 
ATOM      9  C   UNL     1      -0.990   2.292  26.409  0.00  0.00    +0.184 C 
ATOM     10  C   UNL     1       0.878   3.164  26.336  0.00  0.00    +0.184 C 
ENDROOT
BRANCH   8   6
ATOM      6  N   UNL     1      -0.945   4.556  25.530  0.00  0.00    -0.302 NA
ATOM     30  H   UNL     1      -0.290   5.335  25.586  0.00  0.00    +0.123 HD
BRANCH   6  12
ATOM     12  C   UNL     1      -1.864   4.765  24.409  0.00  0.00    +0.117 C 
BRANCH  12  14
ATOM      3  O   UNL     1      -5.730   2.925  26.868  0.00  0.00    -0.453 OA
ATOM      4  O   UNL     1      -6.489   1.664  24.960  0.00  0.00    -0.453 OA
ATOM     14  C   UNL     1      -3.094   3.929  24.521  0.00  0.00    -0.030 A 
ATOM     17  C   UNL     1      -3.794   3.883  25.729  0.00  0.00    +0.054 A 
ATOM     18  C   UNL     1      -3.538   3.193  23.408  0.00  0.00    +0.009 A 
ATOM     19  C   UNL     1      -4.926   3.094  25.783  0.00  0.00    +0.167 A 
ATOM     20  C   UNL     1      -4.686   2.402  23.490  0.00  0.00    +0.050 A 
ATOM     21  C   UNL     1      -5.359   2.374  24.694  0.00  0.00    +0.166 A 
ATOM     23  C   UNL     1      -6.719   2.018  26.339  0.00  0.00    +0.466 C 
ENDBRANCH  12  14
ENDBRANCH   6  12
ENDBRANCH   8   6
BRANCH   8  11
ATOM     11  C   UNL     1      -0.179   2.789  23.985  0.00  0.00    +0.085 C 
BRANCH  11  13
ATOM      2  O   UNL     1       1.116  -0.512  23.291  0.00  0.00    -0.356 OA
ATOM      7  N   UNL     1       1.105   0.867  23.118  0.00  0.00    -0.083 NA
ATOM     13  C   UNL     1       0.126   1.307  23.913  0.00  0.00    +0.086 A 
ATOM     15  C   UNL     1      -0.508   0.262  24.607  0.00  0.00    +0.074 A 
ATOM     16  C   UNL     1       0.151  -0.859  24.180  0.00  0.00    +0.175 A 
BRANCH  16  22
ATOM     22  C   UNL     1       0.024  -2.290  24.483  0.00  0.00    +0.306 C 
BRANCH  22   5
ATOM      5  O   UNL     1      -1.015  -2.503  25.442  0.00  0.00    -0.484 OA
BRANCH   5  24
ATOM     24  C   UNL     1      -2.265  -2.078  25.090  0.00  0.00    +0.121 A 
ATOM     25  C   UNL     1      -2.946  -2.700  24.044  0.00  0.00    +0.045 A 
ATOM     26  C   UNL     1      -2.860  -1.020  25.778  0.00  0.00    +0.045 A 
ATOM     27  C   UNL     1      -4.221  -2.266  23.685  0.00  0.00    +0.004 A 
ATOM     28  C   UNL     1      -4.137  -0.584  25.419  0.00  0.00    +0.004 A 
ATOM     29  C   UNL     1      -4.817  -1.208  24.373  0.00  0.00    +0.000 A 
ENDBRANCH   5  24
ENDBRANCH  22   5
ENDBRANCH  16  22
ENDBRANCH  11  13
ENDBRANCH   8  11
TORSDOF 8
ENDMDL
MODEL 9
REMARK VINA RESULT:      -0.6      2.322      2.899
REMARK  Name = 56775661
REMARK  8 active torsions:
REMARK  status: ('A' for Active; 'I' for Inactive)
REMARK    1  A    between atoms: O_5  and  C_22
REMARK    2  A    between atoms: O_5  and  C_24
REMARK    3  A    between atoms: N_6  and  C_8
REMARK    4  A    between atoms: N_6  and  C_12
REMARK    5  A    between atoms: C_8  and  C_11
REMARK    6  A    between atoms: C_11  and  C_13
REMARK    7  A    between atoms: C_12  and  C_14
REMARK    8  A    between atoms: C_16  and  C_22
REMARK                            x       y       z     vdW  Elec       q    Type
REMARK                         _______ _______ _______ _____ _____    ______ ____
ROOT
ATOM      1  O   UNL     1       1.268   2.691  27.252  0.00  0.00    -0.376 OA
ATOM      8  C   UNL     1      -0.557   2.757  26.145  0.00  0.00    +0.072 C 
ATOM      9  C   UNL     1      -0.134   2.667  27.608  0.00  0.00    +0.184 C 
ATOM     10  C   UNL     1       0.936   2.681  25.845  0.00  0.00    +0.184 C 
ENDROOT
BRANCH   8   6
ATOM      6  N   UNL     1      -1.024   4.118  25.874  0.00  0.00    -0.302 NA
ATOM     30  H   UNL     1      -0.299   4.835  25.879  0.00  0.00    +0.123 HD
BRANCH   6  12
ATOM     12  C   UNL     1      -1.726   4.138  24.589  0.00  0.00    +0.117 C 
BRANCH  12  14
ATOM      3  O   UNL     1      -5.884   2.782  26.881  0.00  0.00    -0.453 OA
ATOM      4  O   UNL     1      -6.684   1.569  24.958  0.00  0.00    -0.453 OA
ATOM     14  C   UNL     1      -3.044   3.442  24.653  0.00  0.00    -0.030 A 
ATOM     17  C   UNL     1      -3.803   3.499  25.824  0.00  0.00    +0.054 A 
ATOM     18  C   UNL     1      -3.512   2.734  23.531  0.00  0.00    +0.009 A 
ATOM     19  C   UNL     1      -5.015   2.839  25.835  0.00  0.00    +0.167 A 
ATOM     20  C   UNL     1      -4.742   2.074  23.568  0.00  0.00    +0.050 A 
ATOM     21  C   UNL     1      -5.472   2.146  24.737  0.00  0.00    +0.166 A 
ATOM     23  C   UNL     1      -6.940   1.976  26.318  0.00  0.00    +0.466 C 
ENDBRANCH  12  14
ENDBRANCH   6  12
ENDBRANCH   8   6
BRANCH   8  11
ATOM     11  C   UNL     1      -1.465   1.705  25.587  0.00  0.00    +0.085 C 
BRANCH  11  13
ATOM      2  O   UNL     1       0.149  -1.124  24.025  0.00  0.00    -0.356 OA
ATOM      7  N   UNL     1      -0.605  -0.542  25.037  0.00  0.00    -0.083 NA
ATOM     13  C   UNL     1      -0.698   0.748  24.700  0.00  0.00    +0.086 A 
ATOM     15  C   UNL     1      -0.031   1.035  23.496  0.00  0.00    +0.074 A 
ATOM     16  C   UNL     1       0.484  -0.175  23.114  0.00  0.00    +0.175 A 
BRANCH  16  22
ATOM     22  C   UNL     1       1.286  -0.622  21.968  0.00  0.00    +0.306 C 
BRANCH  22   5
ATOM      5  O   UNL     1       2.432   0.219  21.807  0.00  0.00    -0.484 OA
BRANCH   5  24
ATOM     24  C   UNL     1       3.497  -0.039  22.624  0.00  0.00    +0.121 A 
ATOM     25  C   UNL     1       4.426   0.964  22.899  0.00  0.00    +0.045 A 
ATOM     26  C   UNL     1       3.655  -1.307  23.184  0.00  0.00    +0.045 A 
ATOM     27  C   UNL     1       5.513   0.701  23.731  0.00  0.00    +0.004 A 
ATOM     28  C   UNL     1       4.742  -1.572  24.018  0.00  0.00    +0.004 A 
ATOM     29  C   UNL     1       5.671  -0.567  24.291  0.00  0.00    +0.000 A 
ENDBRANCH   5  24
ENDBRANCH  22   5
ENDBRANCH  16  22
ENDBRANCH  11  13
ENDBRANCH   8  11
TORSDOF 8
ENDMDL
