MODEL 1
REMARK VINA RESULT:      -1.4      0.000      0.000
REMARK  Name = 75536048
REMARK  10 active torsions:
REMARK  status: ('A' for Active; 'I' for Inactive)
REMARK    1  A    between atoms: O_1  and  C_14
REMARK    2  A    between atoms: N_3  and  C_9
REMARK    3  A    between atoms: N_3  and  C_19
REMARK    4  A    between atoms: N_4  and  C_28
REMARK    5  A    between atoms: C_6  and  C_13
REMARK    6  A    between atoms: C_8  and  C_16
REMARK    7  A    between atoms: C_8  and  C_17
REMARK    8  A    between atoms: C_13  and  C_18
REMARK    9  A    between atoms: C_14  and  C_20
REMARK   10  A    between atoms: C_18  and  C_23
REMARK                            x       y       z     vdW  Elec       q    Type
REMARK                         _______ _______ _______ _____ _____    ______ ____
ROOT
ATOM      6  C   UNL     1      -1.329   0.870  23.666  0.00  0.00    -0.010 C 
ATOM      7  C   UNL     1      -1.546   1.349  25.141  0.00  0.00    +0.005 C 
ATOM      8  C   UNL     1      -0.345   2.334  25.434  0.00  0.00    -0.030 C 
ATOM      9  C   UNL     1       0.212   0.738  23.639  0.00  0.00    +0.061 C 
ATOM     10  C   UNL     1       0.705   2.017  24.334  0.00  0.00    +0.026 C 
ATOM     11  C   UNL     1      -2.079  -0.436  23.309  0.00  0.00    +0.011 C 
ATOM     12  C   UNL     1      -1.616   0.180  26.154  0.00  0.00    +0.039 C 
ATOM     14  C   UNL     1      -2.539  -0.963  25.730  0.00  0.00    +0.064 C 
ATOM     15  C   UNL     1      -2.065  -1.514  24.385  0.00  0.00    +0.035 C 
ATOM     16  C   UNL     1       0.308   2.190  26.824  0.00  0.00    +0.011 C 
ATOM     17  C   UNL     1      -0.817   3.800  25.337  0.00  0.00    +0.011 C 
ATOM     20  C   UNL     1      -2.549  -2.067  26.790  0.00  0.00    +0.041 C 
ENDROOT
BRANCH  14   1
ATOM      1  O   UNL     1      -3.868  -0.456  25.611  0.00  0.00    -0.389 OA
ATOM     32  H   UNL     1      -3.899   0.131  24.836  0.00  0.00    +0.210 HD
ENDBRANCH  14   1
BRANCH   9   3
ATOM      3  N   UNL     1       0.804   0.579  22.318  0.00  0.00    -0.310 NA
ATOM     31  H   UNL     1       0.251  -0.062  21.752  0.00  0.00    +0.122 HD
BRANCH   3  19
ATOM      4  N   UNL     1       4.624  -0.261  23.981  0.00  0.00    -0.305 NA
ATOM     19  C   UNL     1       2.175   0.082  22.417  0.00  0.00    +0.056 C 
ATOM     21  C   UNL     1       3.158   1.232  22.659  0.00  0.00    +0.034 C 
ATOM     22  C   UNL     1       2.285  -0.946  23.545  0.00  0.00    +0.034 C 
ATOM     24  C   UNL     1       4.578   0.704  22.872  0.00  0.00    +0.085 C 
ATOM     25  C   UNL     1       3.735  -1.403  23.730  0.00  0.00    +0.085 C 
ATOM     28  C   UNL     1       5.995  -0.718  24.205  0.00  0.00    +0.104 C 
ENDBRANCH   3  19
ENDBRANCH   9   3
BRANCH   6  13
ATOM     13  C   UNL     1      -1.826   1.925  22.643  0.00  0.00    +0.018 C 
BRANCH  13  18
ATOM     18  C   UNL     1      -3.331   2.069  22.673  0.00  0.00    +0.096 C 
BRANCH  18  23
ATOM      2  O   UNL     1      -3.262   4.312  23.470  0.00  0.00    -0.276 OA
ATOM      5  N   UNL     1      -4.712   2.860  24.531  0.00  0.00    -0.301 N 
ATOM     23  C   UNL     1      -3.758   3.190  23.586  0.00  0.00    +0.216 C 
ATOM     26  C   UNL     1      -5.224   3.827  25.490  0.00  0.00    +0.108 C 
ATOM     27  C   UNL     1      -5.340   1.555  24.718  0.00  0.00    +0.108 C 
ATOM     29  C   UNL     1      -6.447   3.155  26.094  0.00  0.00    +0.020 C 
ATOM     30  C   UNL     1      -6.081   1.677  26.042  0.00  0.00    +0.020 C 
ENDBRANCH  18  23
ENDBRANCH  13  18
ENDBRANCH   6  13
TORSDOF 6
ENDMDL
MODEL 2
REMARK VINA RESULT:       0.6      1.971      4.700
REMARK  Name = 75536048
REMARK  10 active torsions:
REMARK  status: ('A' for Active; 'I' for Inactive)
REMARK    1  A    between atoms: O_1  and  C_14
REMARK    2  A    between atoms: N_3  and  C_9
REMARK    3  A    between atoms: N_3  and  C_19
REMARK    4  A    between atoms: N_4  and  C_28
REMARK    5  A    between atoms: C_6  and  C_13
REMARK    6  A    between atoms: C_8  and  C_16
REMARK    7  A    between atoms: C_8  and  C_17
REMARK    8  A    between atoms: C_13  and  C_18
REMARK    9  A    between atoms: C_14  and  C_20
REMARK   10  A    between atoms: C_18  and  C_23
REMARK                            x       y       z     vdW  Elec       q    Type
REMARK                         _______ _______ _______ _____ _____    ______ ____
ROOT
ATOM      6  C   UNL     1      -2.044   1.830  24.968  0.00  0.00    -0.010 C 
ATOM      7  C   UNL     1      -3.207   2.849  24.719  0.00  0.00    +0.005 C 
ATOM      8  C   UNL     1      -4.051   2.230  23.534  0.00  0.00    -0.030 C 
ATOM      9  C   UNL     1      -1.725   1.411  23.513  0.00  0.00    +0.061 C 
ATOM     10  C   UNL     1      -3.107   1.182  22.881  0.00  0.00    +0.026 C 
ATOM     11  C   UNL     1      -0.836   2.423  25.732  0.00  0.00    +0.011 C 
ATOM     12  C   UNL     1      -2.703   4.279  24.405  0.00  0.00    +0.039 C 
ATOM     14  C   UNL     1      -1.624   4.789  25.361  0.00  0.00    +0.064 C 
ATOM     15  C   UNL     1      -0.431   3.833  25.321  0.00  0.00    +0.035 C 
ATOM     16  C   UNL     1      -4.524   3.232  22.462  0.00  0.00    +0.011 C 
ATOM     17  C   UNL     1      -5.327   1.556  24.079  0.00  0.00    +0.011 C 
ATOM     20  C   UNL     1      -1.191   6.206  24.978  0.00  0.00    +0.041 C 
ENDROOT
BRANCH  14   1
ATOM      1  O   UNL     1      -2.169   4.837  26.679  0.00  0.00    -0.389 OA
ATOM     32  H   UNL     1      -2.526   5.730  26.826  0.00  0.00    +0.210 HD
ENDBRANCH  14   1
BRANCH   9   3
ATOM      3  N   UNL     1      -0.867   0.243  23.372  0.00  0.00    -0.310 NA
ATOM     31  H   UNL     1      -0.752  -0.229  24.267  0.00  0.00    +0.122 HD
BRANCH   3  19
ATOM      4  N   UNL     1       3.347   0.252  22.817  0.00  0.00    -0.305 NA
ATOM     19  C   UNL     1       0.444   0.619  22.847  0.00  0.00    +0.056 C 
ATOM     21  C   UNL     1       1.348   1.156  23.962  0.00  0.00    +0.034 C 
ATOM     22  C   UNL     1       1.108  -0.583  22.170  0.00  0.00    +0.034 C 
ATOM     24  C   UNL     1       2.755   1.447  23.435  0.00  0.00    +0.085 C 
ATOM     25  C   UNL     1       2.524  -0.235  21.702  0.00  0.00    +0.085 C 
ATOM     28  C   UNL     1       4.710   0.532  22.364  0.00  0.00    +0.104 C 
ENDBRANCH   3  19
ENDBRANCH   9   3
BRANCH   6  13
ATOM     13  C   UNL     1      -2.517   0.620  25.815  0.00  0.00    +0.018 C 
BRANCH  13  18
ATOM     18  C   UNL     1      -1.349  -0.189  26.336  0.00  0.00    +0.096 C 
BRANCH  18  23
ATOM      2  O   UNL     1      -0.034  -1.957  25.432  0.00  0.00    -0.276 OA
ATOM      5  N   UNL     1      -2.291  -1.963  24.939  0.00  0.00    -0.301 N 
ATOM     23  C   UNL     1      -1.152  -1.450  25.533  0.00  0.00    +0.216 C 
ATOM     26  C   UNL     1      -2.267  -3.170  24.127  0.00  0.00    +0.108 C 
ATOM     27  C   UNL     1      -3.641  -1.415  25.023  0.00  0.00    +0.108 C 
ATOM     29  C   UNL     1      -3.731  -3.544  23.958  0.00  0.00    +0.020 C 
ATOM     30  C   UNL     1      -4.431  -2.191  23.979  0.00  0.00    +0.020 C 
ENDBRANCH  18  23
ENDBRANCH  13  18
ENDBRANCH   6  13
TORSDOF 6
ENDMDL
MODEL 3
REMARK VINA RESULT:       0.9      2.051      6.114
REMARK  Name = 75536048
REMARK  10 active torsions:
REMARK  status: ('A' for Active; 'I' for Inactive)
REMARK    1  A    between atoms: O_1  and  C_14
REMARK    2  A    between atoms: N_3  and  C_9
REMARK    3  A    between atoms: N_3  and  C_19
REMARK    4  A    between atoms: N_4  and  C_28
REMARK    5  A    between atoms: C_6  and  C_13
REMARK    6  A    between atoms: C_8  and  C_16
REMARK    7  A    between atoms: C_8  and  C_17
REMARK    8  A    between atoms: C_13  and  C_18
REMARK    9  A    between atoms: C_14  and  C_20
REMARK   10  A    between atoms: C_18  and  C_23
REMARK                            x       y       z     vdW  Elec       q    Type
REMARK                         _______ _______ _______ _____ _____    ______ ____
ROOT
ATOM      6  C   UNL     1      -1.945   1.937  24.269  0.00  0.00    -0.010 C 
ATOM      7  C   UNL     1      -2.648   3.281  24.656  0.00  0.00    +0.005 C 
ATOM      8  C   UNL     1      -1.705   3.944  25.738  0.00  0.00    -0.030 C 
ATOM      9  C   UNL     1      -1.404   1.498  25.650  0.00  0.00    +0.061 C 
ATOM     10  C   UNL     1      -0.801   2.783  26.238  0.00  0.00    +0.026 C 
ATOM     11  C   UNL     1      -2.882   0.902  23.602  0.00  0.00    +0.011 C 
ATOM     12  C   UNL     1      -4.095   3.082  25.172  0.00  0.00    +0.039 C 
ATOM     14  C   UNL     1      -4.950   2.161  24.302  0.00  0.00    +0.064 C 
ATOM     15  C   UNL     1      -4.274   0.792  24.210  0.00  0.00    +0.035 C 
ATOM     16  C   UNL     1      -2.423   4.589  26.939  0.00  0.00    +0.011 C 
ATOM     17  C   UNL     1      -0.857   5.063  25.098  0.00  0.00    +0.011 C 
ATOM     20  C   UNL     1      -6.359   2.027  24.884  0.00  0.00    +0.041 C 
ENDROOT
BRANCH  14   1
ATOM      1  O   UNL     1      -5.065   2.739  23.002  0.00  0.00    -0.389 OA
ATOM     32  H   UNL     1      -5.767   3.412  23.032  0.00  0.00    +0.210 HD
ENDBRANCH  14   1
BRANCH   9   3
ATOM      3  N   UNL     1      -0.437   0.409  25.627  0.00  0.00    -0.310 NA
ATOM     31  H   UNL     1       0.163   0.479  24.808  0.00  0.00    +0.122 HD
BRANCH   3  19
ATOM      4  N   UNL     1      -3.223  -2.631  24.595  0.00  0.00    -0.305 NA
ATOM     19  C   UNL     1      -1.112  -0.888  25.628  0.00  0.00    +0.056 C 
ATOM     21  C   UNL     1      -2.574  -0.745  26.061  0.00  0.00    +0.034 C 
ATOM     22  C   UNL     1      -1.038  -1.523  24.237  0.00  0.00    +0.034 C 
ATOM     24  C   UNL     1      -3.310  -2.083  25.956  0.00  0.00    +0.085 C 
ATOM     25  C   UNL     1      -1.825  -2.836  24.192  0.00  0.00    +0.085 C 
ATOM     28  C   UNL     1      -3.973  -3.883  24.498  0.00  0.00    +0.104 C 
ENDBRANCH   3  19
ENDBRANCH   9   3
BRANCH   6  13
ATOM     13  C   UNL     1      -0.792   2.166  23.256  0.00  0.00    +0.018 C 
BRANCH  13  18
ATOM     18  C   UNL     1       0.534   1.681  23.799  0.00  0.00    +0.096 C 
BRANCH  18  23
ATOM      2  O   UNL     1       0.372  -0.196  22.342  0.00  0.00    -0.276 OA
ATOM      5  N   UNL     1       2.494   0.539  22.885  0.00  0.00    -0.301 N 
ATOM     23  C   UNL     1       1.114   0.587  22.938  0.00  0.00    +0.216 C 
ATOM     26  C   UNL     1       3.207  -0.461  22.103  0.00  0.00    +0.108 C 
ATOM     27  C   UNL     1       3.426   1.436  23.562  0.00  0.00    +0.108 C 
ATOM     29  C   UNL     1       4.643   0.041  22.061  0.00  0.00    +0.020 C 
ATOM     30  C   UNL     1       4.785   0.772  23.390  0.00  0.00    +0.020 C 
ENDBRANCH  18  23
ENDBRANCH  13  18
ENDBRANCH   6  13
TORSDOF 6
ENDMDL
MODEL 4
REMARK VINA RESULT:       1.7      2.122      6.518
REMARK  Name = 75536048
REMARK  10 active torsions:
REMARK  status: ('A' for Active; 'I' for Inactive)
REMARK    1  A    between atoms: O_1  and  C_14
REMARK    2  A    between atoms: N_3  and  C_9
REMARK    3  A    between atoms: N_3  and  C_19
REMARK    4  A    between atoms: N_4  and  C_28
REMARK    5  A    between atoms: C_6  and  C_13
REMARK    6  A    between atoms: C_8  and  C_16
REMARK    7  A    between atoms: C_8  and  C_17
REMARK    8  A    between atoms: C_13  and  C_18
REMARK    9  A    between atoms: C_14  and  C_20
REMARK   10  A    between atoms: C_18  and  C_23
REMARK                            x       y       z     vdW  Elec       q    Type
REMARK                         _______ _______ _______ _____ _____    ______ ____
ROOT
ATOM      6  C   UNL     1      -1.123  -0.094  24.348  0.00  0.00    -0.010 C 
ATOM      7  C   UNL     1      -2.521  -0.326  23.683  0.00  0.00    +0.005 C 
ATOM      8  C   UNL     1      -3.244   1.077  23.742  0.00  0.00    -0.030 C 
ATOM      9  C   UNL     1      -1.514   0.877  25.487  0.00  0.00    +0.061 C 
ATOM     10  C   UNL     1      -2.454   1.885  24.809  0.00  0.00    +0.026 C 
ATOM     11  C   UNL     1      -0.430  -1.390  24.834  0.00  0.00    +0.011 C 
ATOM     12  C   UNL     1      -3.341  -1.446  24.371  0.00  0.00    +0.039 C 
ATOM     14  C   UNL     1      -2.554  -2.731  24.630  0.00  0.00    +0.064 C 
ATOM     15  C   UNL     1      -1.343  -2.407  25.506  0.00  0.00    +0.035 C 
ATOM     16  C   UNL     1      -4.737   1.040  24.128  0.00  0.00    +0.011 C 
ATOM     17  C   UNL     1      -3.179   1.774  22.366  0.00  0.00    +0.011 C 
ATOM     20  C   UNL     1      -3.442  -3.779  25.305  0.00  0.00    +0.041 C 
ENDROOT
BRANCH  14   1
ATOM      1  O   UNL     1      -2.123  -3.263  23.377  0.00  0.00    -0.389 OA
ATOM     32  H   UNL     1      -1.530  -4.013  23.555  0.00  0.00    +0.210 HD
ENDBRANCH  14   1
BRANCH   9   3
ATOM      3  N   UNL     1      -0.402   1.539  26.155  0.00  0.00    -0.310 NA
ATOM     31  H   UNL     1      -0.337   1.239  27.126  0.00  0.00    +0.122 HD
BRANCH   3  19
ATOM      4  N   UNL     1      -1.751   5.359  24.868  0.00  0.00    -0.305 NA
ATOM     19  C   UNL     1      -0.552   2.992  26.102  0.00  0.00    +0.056 C 
ATOM     21  C   UNL     1      -0.071   3.544  24.757  0.00  0.00    +0.034 C 
ATOM     22  C   UNL     1      -2.014   3.382  26.335  0.00  0.00    +0.034 C 
ATOM     24  C   UNL     1      -0.329   5.049  24.658  0.00  0.00    +0.085 C 
ATOM     25  C   UNL     1      -2.209   4.893  26.184  0.00  0.00    +0.085 C 
ATOM     28  C   UNL     1      -1.990   6.794  24.720  0.00  0.00    +0.104 C 
ENDBRANCH   3  19
ENDBRANCH   9   3
BRANCH   6  13
ATOM     13  C   UNL     1      -0.123   0.565  23.362  0.00  0.00    +0.018 C 
BRANCH  13  18
ATOM     18  C   UNL     1       1.137  -0.258  23.209  0.00  0.00    +0.096 C 
BRANCH  18  23
ATOM      2  O   UNL     1       2.260   1.815  22.866  0.00  0.00    -0.276 OA
ATOM      5  N   UNL     1       3.562  -0.012  23.417  0.00  0.00    -0.301 N 
ATOM     23  C   UNL     1       2.362   0.619  23.148  0.00  0.00    +0.216 C 
ATOM     26  C   UNL     1       4.835   0.694  23.392  0.00  0.00    +0.108 C 
ATOM     27  C   UNL     1       3.751  -1.418  23.760  0.00  0.00    +0.108 C 
ATOM     29  C   UNL     1       5.815  -0.264  24.051  0.00  0.00    +0.020 C 
ATOM     30  C   UNL     1       5.256  -1.631  23.676  0.00  0.00    +0.020 C 
ENDBRANCH  18  23
ENDBRANCH  13  18
ENDBRANCH   6  13
TORSDOF 6
ENDMDL
MODEL 5
REMARK VINA RESULT:       2.4      1.943      7.384
REMARK  Name = 75536048
REMARK  10 active torsions:
REMARK  status: ('A' for Active; 'I' for Inactive)
REMARK    1  A    between atoms: O_1  and  C_14
REMARK    2  A    between atoms: N_3  and  C_9
REMARK    3  A    between atoms: N_3  and  C_19
REMARK    4  A    between atoms: N_4  and  C_28
REMARK    5  A    between atoms: C_6  and  C_13
REMARK    6  A    between atoms: C_8  and  C_16
REMARK    7  A    between atoms: C_8  and  C_17
REMARK    8  A    between atoms: C_13  and  C_18
REMARK    9  A    between atoms: C_14  and  C_20
REMARK   10  A    between atoms: C_18  and  C_23
REMARK                            x       y       z     vdW  Elec       q    Type
REMARK                         _______ _______ _______ _____ _____    ______ ____
ROOT
ATOM      6  C   UNL     1      -0.903   1.043  24.238  0.00  0.00    -0.010 C 
ATOM      7  C   UNL     1      -0.485   0.145  25.451  0.00  0.00    +0.005 C 
ATOM      8  C   UNL     1      -1.415  -1.129  25.361  0.00  0.00    -0.030 C 
ATOM      9  C   UNL     1      -2.433   0.815  24.238  0.00  0.00    +0.061 C 
ATOM     10  C   UNL     1      -2.583  -0.702  24.429  0.00  0.00    +0.026 C 
ATOM     11  C   UNL     1      -0.487   2.526  24.376  0.00  0.00    +0.011 C 
ATOM     12  C   UNL     1      -0.604   0.872  26.813  0.00  0.00    +0.039 C 
ATOM     14  C   UNL     1       0.011   2.272  26.834  0.00  0.00    +0.064 C 
ATOM     15  C   UNL     1      -0.665   3.130  25.763  0.00  0.00    +0.035 C 
ATOM     16  C   UNL     1      -1.986  -1.631  26.703  0.00  0.00    +0.011 C 
ATOM     17  C   UNL     1      -0.639  -2.319  24.758  0.00  0.00    +0.011 C 
ATOM     20  C   UNL     1      -0.149   2.910  28.215  0.00  0.00    +0.041 C 
ENDROOT
BRANCH  14   1
ATOM      1  O   UNL     1       1.408   2.160  26.561  0.00  0.00    -0.389 OA
ATOM     32  H   UNL     1       1.599   1.232  26.338  0.00  0.00    +0.210 HD
ENDBRANCH  14   1
BRANCH   9   3
ATOM      3  N   UNL     1      -3.135   1.282  23.051  0.00  0.00    -0.310 NA
ATOM     31  H   UNL     1      -2.484   1.696  22.387  0.00  0.00    +0.122 HD
BRANCH   3  19
ATOM      4  N   UNL     1      -5.287   4.149  25.334  0.00  0.00    -0.305 NA
ATOM     19  C   UNL     1      -4.162   2.261  23.403  0.00  0.00    +0.056 C 
ATOM     21  C   UNL     1      -4.964   1.800  24.624  0.00  0.00    +0.034 C 
ATOM     22  C   UNL     1      -3.521   3.623  23.682  0.00  0.00    +0.034 C 
ATOM     24  C   UNL     1      -5.964   2.873  25.060  0.00  0.00    +0.085 C 
ATOM     25  C   UNL     1      -4.569   4.636  24.149  0.00  0.00    +0.085 C 
ATOM     28  C   UNL     1      -6.248   5.149  25.798  0.00  0.00    +0.104 C 
ENDBRANCH   3  19
ENDBRANCH   9   3
BRANCH   6  13
ATOM     13  C   UNL     1      -0.258   0.553  22.915  0.00  0.00    +0.018 C 
BRANCH  13  18
ATOM     18  C   UNL     1       1.010  -0.233  23.168  0.00  0.00    +0.096 C 
BRANCH  18  23
ATOM      2  O   UNL     1       2.117   1.847  22.820  0.00  0.00    -0.276 OA
ATOM      5  N   UNL     1       3.433   0.032  23.377  0.00  0.00    -0.301 N 
ATOM     23  C   UNL     1       2.228   0.653  23.105  0.00  0.00    +0.216 C 
ATOM     26  C   UNL     1       4.700   0.748  23.351  0.00  0.00    +0.108 C 
ATOM     27  C   UNL     1       3.632  -1.372  23.723  0.00  0.00    +0.108 C 
ATOM     29  C   UNL     1       5.687  -0.202  24.012  0.00  0.00    +0.020 C 
ATOM     30  C   UNL     1       5.138  -1.573  23.641  0.00  0.00    +0.020 C 
ENDBRANCH  18  23
ENDBRANCH  13  18
ENDBRANCH   6  13
TORSDOF 6
ENDMDL
MODEL 6
REMARK VINA RESULT:       2.5      2.370      6.221
REMARK  Name = 75536048
REMARK  10 active torsions:
REMARK  status: ('A' for Active; 'I' for Inactive)
REMARK    1  A    between atoms: O_1  and  C_14
REMARK    2  A    between atoms: N_3  and  C_9
REMARK    3  A    between atoms: N_3  and  C_19
REMARK    4  A    between atoms: N_4  and  C_28
REMARK    5  A    between atoms: C_6  and  C_13
REMARK    6  A    between atoms: C_8  and  C_16
REMARK    7  A    between atoms: C_8  and  C_17
REMARK    8  A    between atoms: C_13  and  C_18
REMARK    9  A    between atoms: C_14  and  C_20
REMARK   10  A    between atoms: C_18  and  C_23
REMARK                            x       y       z     vdW  Elec       q    Type
REMARK                         _______ _______ _______ _____ _____    ______ ____
ROOT
ATOM      6  C   UNL     1      -0.754   0.713  24.153  0.00  0.00    -0.010 C 
ATOM      7  C   UNL     1      -2.269   0.708  23.757  0.00  0.00    +0.005 C 
ATOM      8  C   UNL     1      -2.640   2.227  23.528  0.00  0.00    -0.030 C 
ATOM      9  C   UNL     1      -0.699   1.986  25.029  0.00  0.00    +0.061 C 
ATOM     10  C   UNL     1      -1.504   3.022  24.229  0.00  0.00    +0.026 C 
ATOM     11  C   UNL     1      -0.285  -0.572  24.877  0.00  0.00    +0.011 C 
ATOM     12  C   UNL     1      -3.171   0.030  24.819  0.00  0.00    +0.039 C 
ATOM     14  C   UNL     1      -2.652  -1.322  25.312  0.00  0.00    +0.064 C 
ATOM     15  C   UNL     1      -1.257  -1.133  25.907  0.00  0.00    +0.035 C 
ATOM     16  C   UNL     1      -4.003   2.670  24.096  0.00  0.00    +0.011 C 
ATOM     17  C   UNL     1      -2.684   2.547  22.019  0.00  0.00    +0.011 C 
ATOM     20  C   UNL     1      -3.605  -1.917  26.350  0.00  0.00    +0.041 C 
ENDROOT
BRANCH  14   1
ATOM      1  O   UNL     1      -2.594  -2.220  24.203  0.00  0.00    -0.389 OA
ATOM     32  H   UNL     1      -2.665  -3.127  24.546  0.00  0.00    +0.210 HD
ENDBRANCH  14   1
BRANCH   9   3
ATOM      3  N   UNL     1       0.637   2.469  25.348  0.00  0.00    -0.310 NA
ATOM     31  H   UNL     1       1.334   1.753  25.154  0.00  0.00    +0.122 HD
BRANCH   3  19
ATOM      4  N   UNL     1       1.256   2.167  29.542  0.00  0.00    -0.305 NA
ATOM     19  C   UNL     1       0.727   2.868  26.752  0.00  0.00    +0.056 C 
ATOM     21  C   UNL     1      -0.284   2.097  27.606  0.00  0.00    +0.034 C 
ATOM     22  C   UNL     1       2.144   2.634  27.279  0.00  0.00    +0.034 C 
ATOM     24  C   UNL     1      -0.117   2.433  29.090  0.00  0.00    +0.085 C 
ATOM     25  C   UNL     1       2.232   2.952  28.774  0.00  0.00    +0.085 C 
ATOM     28  C   UNL     1       1.387   2.444  30.973  0.00  0.00    +0.104 C 
ENDBRANCH   3  19
ENDBRANCH   9   3
BRANCH   6  13
ATOM     13  C   UNL     1       0.161   0.843  22.907  0.00  0.00    +0.018 C 
BRANCH  13  18
ATOM     18  C   UNL     1       1.357  -0.080  22.992  0.00  0.00    +0.096 C 
BRANCH  18  23
ATOM      2  O   UNL     1       2.660   1.910  22.875  0.00  0.00    -0.276 OA
ATOM      5  N   UNL     1       3.765  -0.044  23.421  0.00  0.00    -0.301 N 
ATOM     23  C   UNL     1       2.645   0.697  23.090  0.00  0.00    +0.216 C 
ATOM     26  C   UNL     1       5.084   0.557  23.549  0.00  0.00    +0.108 C 
ATOM     27  C   UNL     1       3.815  -1.478  23.691  0.00  0.00    +0.108 C 
ATOM     29  C   UNL     1       5.926  -0.513  24.228  0.00  0.00    +0.020 C 
ATOM     30  C   UNL     1       5.300  -1.807  23.723  0.00  0.00    +0.020 C 
ENDBRANCH  18  23
ENDBRANCH  13  18
ENDBRANCH   6  13
TORSDOF 6
ENDMDL
MODEL 7
REMARK VINA RESULT:       2.5      2.193      5.072
REMARK  Name = 75536048
REMARK  10 active torsions:
REMARK  status: ('A' for Active; 'I' for Inactive)
REMARK    1  A    between atoms: O_1  and  C_14
REMARK    2  A    between atoms: N_3  and  C_9
REMARK    3  A    between atoms: N_3  and  C_19
REMARK    4  A    between atoms: N_4  and  C_28
REMARK    5  A    between atoms: C_6  and  C_13
REMARK    6  A    between atoms: C_8  and  C_16
REMARK    7  A    between atoms: C_8  and  C_17
REMARK    8  A    between atoms: C_13  and  C_18
REMARK    9  A    between atoms: C_14  and  C_20
REMARK   10  A    between atoms: C_18  and  C_23
REMARK                            x       y       z     vdW  Elec       q    Type
REMARK                         _______ _______ _______ _____ _____    ______ ____
ROOT
ATOM      6  C   UNL     1      -0.797   0.457  24.268  0.00  0.00    -0.010 C 
ATOM      7  C   UNL     1      -0.269  -0.963  23.870  0.00  0.00    +0.005 C 
ATOM      8  C   UNL     1      -0.703  -1.912  25.056  0.00  0.00    -0.030 C 
ATOM      9  C   UNL     1      -0.531   0.435  25.792  0.00  0.00    +0.061 C 
ATOM     10  C   UNL     1      -1.024  -0.952  26.235  0.00  0.00    +0.026 C 
ATOM     11  C   UNL     1      -0.102   1.622  23.524  0.00  0.00    +0.011 C 
ATOM     12  C   UNL     1       1.259  -0.992  23.614  0.00  0.00    +0.039 C 
ATOM     14  C   UNL     1       1.766   0.136  22.715  0.00  0.00    +0.064 C 
ATOM     15  C   UNL     1       1.404   1.480  23.348  0.00  0.00    +0.035 C 
ATOM     16  C   UNL     1       0.355  -2.940  25.505  0.00  0.00    +0.011 C 
ATOM     17  C   UNL     1      -1.950  -2.731  24.660  0.00  0.00    +0.011 C 
ATOM     20  C   UNL     1       3.279   0.025  22.515  0.00  0.00    +0.041 C 
ENDROOT
BRANCH  14   1
ATOM      1  O   UNL     1       1.144   0.014  21.436  0.00  0.00    -0.389 OA
ATOM     32  H   UNL     1       1.305   0.836  20.942  0.00  0.00    +0.210 HD
ENDBRANCH  14   1
BRANCH   9   3
ATOM      3  N   UNL     1      -1.165   1.502  26.554  0.00  0.00    -0.310 NA
ATOM     31  H   UNL     1      -2.027   1.174  26.983  0.00  0.00    +0.122 HD
BRANCH   3  19
ATOM      4  N   UNL     1      -1.594   5.554  25.344  0.00  0.00    -0.305 NA
ATOM     19  C   UNL     1      -1.452   2.653  25.700  0.00  0.00    +0.056 C 
ATOM     21  C   UNL     1      -2.596   3.493  26.278  0.00  0.00    +0.034 C 
ATOM     22  C   UNL     1      -0.200   3.518  25.537  0.00  0.00    +0.034 C 
ATOM     24  C   UNL     1      -2.824   4.756  25.445  0.00  0.00    +0.085 C 
ATOM     25  C   UNL     1      -0.507   4.781  24.729  0.00  0.00    +0.085 C 
ATOM     28  C   UNL     1      -1.840   6.782  24.588  0.00  0.00    +0.104 C 
ENDBRANCH   3  19
ENDBRANCH   9   3
BRANCH   6  13
ATOM     13  C   UNL     1      -2.309   0.612  23.960  0.00  0.00    +0.018 C 
BRANCH  13  18
ATOM     18  C   UNL     1      -2.552   1.575  22.819  0.00  0.00    +0.096 C 
BRANCH  18  23
ATOM      2  O   UNL     1      -3.833   3.558  22.505  0.00  0.00    -0.276 OA
ATOM      5  N   UNL     1      -4.589   2.053  24.086  0.00  0.00    -0.301 N 
ATOM     23  C   UNL     1      -3.712   2.492  23.112  0.00  0.00    +0.216 C 
ATOM     26  C   UNL     1      -5.755   2.826  24.488  0.00  0.00    +0.108 C 
ATOM     27  C   UNL     1      -4.505   0.804  24.837  0.00  0.00    +0.108 C 
ATOM     29  C   UNL     1      -6.590   1.856  25.311  0.00  0.00    +0.020 C 
ATOM     30  C   UNL     1      -5.536   0.957  25.946  0.00  0.00    +0.020 C 
ENDBRANCH  18  23
ENDBRANCH  13  18
ENDBRANCH   6  13
TORSDOF 6
ENDMDL
