MODEL 1
REMARK VINA RESULT:      -4.9      0.000      0.000
REMARK  Name = 45361094
REMARK  8 active torsions:
REMARK  status: ('A' for Active; 'I' for Inactive)
REMARK    1  A    between atoms: N_3  and  C_15
REMARK    2  A    between atoms: N_6  and  C_18
REMARK    3  A    between atoms: N_6  and  C_19
REMARK    4  A    between atoms: C_10  and  C_13
REMARK    5  A    between atoms: C_13  and  C_16
REMARK    6  A    between atoms: C_16  and  C_17
REMARK    7  A    between atoms: C_18  and  C_20
REMARK    8  A    between atoms: C_19  and  C_21
REMARK                            x       y       z     vdW  Elec       q    Type
REMARK                         _______ _______ _______ _____ _____    ______ ____
ROOT
ATOM      1  O   UNL     1      -4.569  -0.015  24.652  0.00  0.00    -0.274 OA
ATOM      3  N   UNL     1      -2.327   3.169  24.873  0.00  0.00    -0.296 NA
ATOM      4  N   UNL     1      -5.870   2.299  25.071  0.00  0.00    -0.304 NA
ATOM      5  N   UNL     1      -3.013   0.883  23.234  0.00  0.00    -0.312 N 
ATOM      7  C   UNL     1      -3.769   3.469  24.742  0.00  0.00    +0.084 C 
ATOM      8  C   UNL     1      -4.704   2.365  24.179  0.00  0.00    +0.158 C 
ATOM      9  C   UNL     1      -4.457   3.820  26.074  0.00  0.00    +0.036 C 
ATOM     10  C   UNL     1      -1.630   2.909  23.583  0.00  0.00    +0.074 C 
ATOM     11  C   UNL     1      -5.920   3.559  25.795  0.00  0.00    +0.083 C 
ATOM     12  C   UNL     1      -2.412   2.031  22.585  0.00  0.00    +0.123 C 
ATOM     14  C   UNL     1      -4.107   0.967  24.075  0.00  0.00    +0.232 C 
ATOM     15  C   UNL     1      -1.637   4.235  25.618  0.00  0.00    +0.105 C 
ATOM     22  H   UNL     1      -5.729   1.550  25.752  0.00  0.00    +0.123 HD
ATOM     23  H   UNL     1      -2.579  -0.026  23.102  0.00  0.00    +0.149 HD
ENDROOT
BRANCH  10  13
ATOM     13  C   UNL     1      -0.269   2.227  23.835  0.00  0.00    +0.029 C 
BRANCH  13  16
ATOM     16  C   UNL     1      -0.365   1.248  24.994  0.00  0.00    +0.097 C 
BRANCH  16  17
ATOM      2  O   UNL     1       0.300  -0.501  23.496  0.00  0.00    -0.276 OA
ATOM      6  N   UNL     1      -1.018  -1.127  25.298  0.00  0.00    -0.302 N 
ATOM     17  C   UNL     1      -0.322  -0.198  24.517  0.00  0.00    +0.216 C 
BRANCH   6  18
ATOM     18  C   UNL     1      -1.768  -0.817  26.514  0.00  0.00    +0.104 C 
ATOM     20  C   UNL     1      -3.078  -1.575  26.566  0.00  0.00    +0.024 C 
ENDBRANCH   6  18
BRANCH   6  19
ATOM     19  C   UNL     1      -1.034  -2.530  24.902  0.00  0.00    +0.104 C 
ATOM     21  C   UNL     1      -2.195  -2.832  23.977  0.00  0.00    +0.024 C 
ENDBRANCH   6  19
ENDBRANCH  16  17
ENDBRANCH  13  16
ENDBRANCH  10  13
TORSDOF 5
ENDMDL
MODEL 2
REMARK VINA RESULT:      -4.6      1.161      1.867
REMARK  Name = 45361094
REMARK  8 active torsions:
REMARK  status: ('A' for Active; 'I' for Inactive)
REMARK    1  A    between atoms: N_3  and  C_15
REMARK    2  A    between atoms: N_6  and  C_18
REMARK    3  A    between atoms: N_6  and  C_19
REMARK    4  A    between atoms: C_10  and  C_13
REMARK    5  A    between atoms: C_13  and  C_16
REMARK    6  A    between atoms: C_16  and  C_17
REMARK    7  A    between atoms: C_18  and  C_20
REMARK    8  A    between atoms: C_19  and  C_21
REMARK                            x       y       z     vdW  Elec       q    Type
REMARK                         _______ _______ _______ _____ _____    ______ ____
ROOT
ATOM      1  O   UNL     1      -4.592  -0.065  25.123  0.00  0.00    -0.274 OA
ATOM      3  N   UNL     1      -2.547   3.241  24.802  0.00  0.00    -0.296 NA
ATOM      4  N   UNL     1      -6.009   2.208  25.346  0.00  0.00    -0.304 NA
ATOM      5  N   UNL     1      -3.185   0.733  23.504  0.00  0.00    -0.312 N 
ATOM      7  C   UNL     1      -4.011   3.442  24.734  0.00  0.00    +0.084 C 
ATOM      8  C   UNL     1      -4.906   2.226  24.374  0.00  0.00    +0.158 C 
ATOM      9  C   UNL     1      -4.637   3.918  26.058  0.00  0.00    +0.036 C 
ATOM     10  C   UNL     1      -1.915   2.860  23.509  0.00  0.00    +0.074 C 
ATOM     11  C   UNL     1      -6.095   3.544  25.913  0.00  0.00    +0.083 C 
ATOM     12  C   UNL     1      -2.699   1.823  22.681  0.00  0.00    +0.123 C 
ATOM     14  C   UNL     1      -4.229   0.861  24.401  0.00  0.00    +0.232 C 
ATOM     15  C   UNL     1      -1.881   4.428  25.364  0.00  0.00    +0.105 C 
ATOM     22  H   UNL     1      -5.780   1.560  26.101  0.00  0.00    +0.123 HD
ATOM     23  H   UNL     1      -2.704  -0.160  23.454  0.00  0.00    +0.149 HD
ENDROOT
BRANCH  10  13
ATOM     13  C   UNL     1      -0.501   2.292  23.749  0.00  0.00    +0.029 C 
BRANCH  13  16
ATOM     16  C   UNL     1      -0.337   1.850  25.194  0.00  0.00    +0.097 C 
BRANCH  16  17
ATOM      2  O   UNL     1      -1.187  -0.054  26.376  0.00  0.00    -0.276 OA
ATOM      6  N   UNL     1      -0.190  -0.469  24.325  0.00  0.00    -0.302 N 
ATOM     17  C   UNL     1      -0.616   0.363  25.366  0.00  0.00    +0.216 C 
BRANCH   6  18
ATOM     18  C   UNL     1       0.490  -0.023  23.110  0.00  0.00    +0.104 C 
ATOM     20  C   UNL     1       1.975  -0.315  23.167  0.00  0.00    +0.024 C 
ENDBRANCH   6  18
BRANCH   6  19
ATOM     19  C   UNL     1      -0.410  -1.907  24.418  0.00  0.00    +0.104 C 
ATOM     21  C   UNL     1      -1.880  -2.252  24.289  0.00  0.00    +0.024 C 
ENDBRANCH   6  19
ENDBRANCH  16  17
ENDBRANCH  13  16
ENDBRANCH  10  13
TORSDOF 5
ENDMDL
MODEL 3
REMARK VINA RESULT:      -4.6      1.284      1.628
REMARK  Name = 45361094
REMARK  8 active torsions:
REMARK  status: ('A' for Active; 'I' for Inactive)
REMARK    1  A    between atoms: N_3  and  C_15
REMARK    2  A    between atoms: N_6  and  C_18
REMARK    3  A    between atoms: N_6  and  C_19
REMARK    4  A    between atoms: C_10  and  C_13
REMARK    5  A    between atoms: C_13  and  C_16
REMARK    6  A    between atoms: C_16  and  C_17
REMARK    7  A    between atoms: C_18  and  C_20
REMARK    8  A    between atoms: C_19  and  C_21
REMARK                            x       y       z     vdW  Elec       q    Type
REMARK                         _______ _______ _______ _____ _____    ______ ____
ROOT
ATOM      1  O   UNL     1      -4.942   1.141  24.496  0.00  0.00    -0.274 OA
ATOM      3  N   UNL     1      -1.304   2.374  25.174  0.00  0.00    -0.296 NA
ATOM      4  N   UNL     1      -4.715   3.666  25.385  0.00  0.00    -0.304 NA
ATOM      5  N   UNL     1      -3.065   1.218  23.188  0.00  0.00    -0.312 N 
ATOM      7  C   UNL     1      -2.306   3.462  25.168  0.00  0.00    +0.084 C 
ATOM      8  C   UNL     1      -3.665   3.208  24.463  0.00  0.00    +0.158 C 
ATOM      9  C   UNL     1      -2.754   3.904  26.573  0.00  0.00    +0.036 C 
ATOM     10  C   UNL     1      -0.800   1.992  23.826  0.00  0.00    +0.074 C 
ATOM     11  C   UNL     1      -4.084   4.580  26.323  0.00  0.00    +0.083 C 
ATOM     12  C   UNL     1      -1.877   1.909  22.727  0.00  0.00    +0.123 C 
ATOM     14  C   UNL     1      -3.966   1.764  24.082  0.00  0.00    +0.232 C 
ATOM     15  C   UNL     1      -0.178   2.704  26.063  0.00  0.00    +0.105 C 
ATOM     22  H   UNL     1      -5.069   2.867  25.913  0.00  0.00    +0.123 HD
ATOM     23  H   UNL     1      -3.220   0.264  22.875  0.00  0.00    +0.149 HD
ENDROOT
BRANCH  10  13
ATOM     13  C   UNL     1      -0.090   0.623  23.886  0.00  0.00    +0.029 C 
BRANCH  13  16
ATOM     16  C   UNL     1      -0.682  -0.242  24.986  0.00  0.00    +0.097 C 
BRANCH  16  17
ATOM      2  O   UNL     1      -0.884  -2.122  23.513  0.00  0.00    -0.276 OA
ATOM      6  N   UNL     1      -2.635  -1.773  24.993  0.00  0.00    -0.302 N 
ATOM     17  C   UNL     1      -1.396  -1.464  24.422  0.00  0.00    +0.216 C 
BRANCH   6  18
ATOM     18  C   UNL     1      -3.281  -1.025  26.069  0.00  0.00    +0.104 C 
ATOM     20  C   UNL     1      -3.157  -1.745  27.396  0.00  0.00    +0.024 C 
ENDBRANCH   6  18
BRANCH   6  19
ATOM     19  C   UNL     1      -3.386  -2.922  24.500  0.00  0.00    +0.104 C 
ATOM     21  C   UNL     1      -4.534  -2.493  23.609  0.00  0.00    +0.024 C 
ENDBRANCH   6  19
ENDBRANCH  16  17
ENDBRANCH  13  16
ENDBRANCH  10  13
TORSDOF 5
ENDMDL
MODEL 4
REMARK VINA RESULT:      -3.6      2.431      3.347
REMARK  Name = 45361094
REMARK  8 active torsions:
REMARK  status: ('A' for Active; 'I' for Inactive)
REMARK    1  A    between atoms: N_3  and  C_15
REMARK    2  A    between atoms: N_6  and  C_18
REMARK    3  A    between atoms: N_6  and  C_19
REMARK    4  A    between atoms: C_10  and  C_13
REMARK    5  A    between atoms: C_13  and  C_16
REMARK    6  A    between atoms: C_16  and  C_17
REMARK    7  A    between atoms: C_18  and  C_20
REMARK    8  A    between atoms: C_19  and  C_21
REMARK                            x       y       z     vdW  Elec       q    Type
REMARK                         _______ _______ _______ _____ _____    ______ ____
ROOT
ATOM      1  O   UNL     1      -4.165  -0.289  25.504  0.00  0.00    -0.274 OA
ATOM      3  N   UNL     1      -2.156   3.027  25.083  0.00  0.00    -0.296 NA
ATOM      4  N   UNL     1      -5.641   1.935  25.197  0.00  0.00    -0.304 NA
ATOM      5  N   UNL     1      -2.527   0.352  24.040  0.00  0.00    -0.312 N 
ATOM      7  C   UNL     1      -3.592   3.161  24.755  0.00  0.00    +0.084 C 
ATOM      8  C   UNL     1      -4.394   1.874  24.420  0.00  0.00    +0.158 C 
ATOM      9  C   UNL     1      -4.435   3.775  25.888  0.00  0.00    +0.036 C 
ATOM     10  C   UNL     1      -1.314   2.511  23.968  0.00  0.00    +0.074 C 
ATOM     11  C   UNL     1      -5.843   3.328  25.562  0.00  0.00    +0.083 C 
ATOM     12  C   UNL     1      -1.933   1.347  23.169  0.00  0.00    +0.123 C 
ATOM     14  C   UNL     1      -3.705   0.551  24.734  0.00  0.00    +0.232 C 
ATOM     15  C   UNL     1      -1.613   4.302  25.582  0.00  0.00    +0.105 C 
ATOM     22  H   UNL     1      -5.526   1.398  26.058  0.00  0.00    +0.123 HD
ATOM     23  H   UNL     1      -2.027  -0.520  24.186  0.00  0.00    +0.149 HD
ENDROOT
BRANCH  10  13
ATOM     13  C   UNL     1       0.052   2.034  24.504  0.00  0.00    +0.029 C 
BRANCH  13  16
ATOM     16  C   UNL     1       0.994   1.704  23.357  0.00  0.00    +0.097 C 
BRANCH  16  17
ATOM      2  O   UNL     1       0.622  -0.639  23.699  0.00  0.00    -0.276 OA
ATOM      6  N   UNL     1       2.753  -0.015  23.030  0.00  0.00    -0.302 N 
ATOM     17  C   UNL     1       1.424   0.243  23.382  0.00  0.00    +0.216 C 
BRANCH   6  18
ATOM     18  C   UNL     1       3.739   0.995  22.648  0.00  0.00    +0.104 C 
ATOM     20  C   UNL     1       5.057   0.780  23.361  0.00  0.00    +0.024 C 
ENDBRANCH   6  18
BRANCH   6  19
ATOM     19  C   UNL     1       3.245  -1.388  23.040  0.00  0.00    +0.104 C 
ATOM     21  C   UNL     1       4.437  -1.543  23.962  0.00  0.00    +0.024 C 
ENDBRANCH   6  19
ENDBRANCH  16  17
ENDBRANCH  13  16
ENDBRANCH  10  13
TORSDOF 5
ENDMDL
MODEL 5
REMARK VINA RESULT:      -3.4      1.755      3.766
REMARK  Name = 45361094
REMARK  8 active torsions:
REMARK  status: ('A' for Active; 'I' for Inactive)
REMARK    1  A    between atoms: N_3  and  C_15
REMARK    2  A    between atoms: N_6  and  C_18
REMARK    3  A    between atoms: N_6  and  C_19
REMARK    4  A    between atoms: C_10  and  C_13
REMARK    5  A    between atoms: C_13  and  C_16
REMARK    6  A    between atoms: C_16  and  C_17
REMARK    7  A    between atoms: C_18  and  C_20
REMARK    8  A    between atoms: C_19  and  C_21
REMARK                            x       y       z     vdW  Elec       q    Type
REMARK                         _______ _______ _______ _____ _____    ______ ____
ROOT
ATOM      1  O   UNL     1      -2.625   3.869  27.505  0.00  0.00    -0.274 OA
ATOM      3  N   UNL     1      -3.243   2.312  23.983  0.00  0.00    -0.296 NA
ATOM      4  N   UNL     1      -1.294   5.019  25.473  0.00  0.00    -0.304 NA
ATOM      5  N   UNL     1      -4.531   3.475  26.299  0.00  0.00    -0.312 N 
ATOM      7  C   UNL     1      -2.546   3.616  23.938  0.00  0.00    +0.084 C 
ATOM      8  C   UNL     1      -2.655   4.552  25.173  0.00  0.00    +0.158 C 
ATOM      9  C   UNL     1      -1.021   3.502  23.759  0.00  0.00    +0.036 C 
ATOM     10  C   UNL     1      -4.726   2.407  24.073  0.00  0.00    +0.074 C 
ATOM     11  C   UNL     1      -0.506   4.831  24.266  0.00  0.00    +0.083 C 
ATOM     12  C   UNL     1      -5.252   3.484  25.042  0.00  0.00    +0.123 C 
ATOM     14  C   UNL     1      -3.234   3.931  26.438  0.00  0.00    +0.232 C 
ATOM     15  C   UNL     1      -2.856   1.474  22.836  0.00  0.00    +0.105 C 
ATOM     22  H   UNL     1      -0.893   4.433  26.206  0.00  0.00    +0.123 HD
ATOM     23  H   UNL     1      -4.985   3.070  27.112  0.00  0.00    +0.149 HD
ENDROOT
BRANCH  10  13
ATOM     13  C   UNL     1      -5.325   1.054  24.510  0.00  0.00    +0.029 C 
BRANCH  13  16
ATOM     16  C   UNL     1      -4.361   0.307  25.417  0.00  0.00    +0.097 C 
BRANCH  16  17
ATOM      2  O   UNL     1      -4.507  -1.597  23.969  0.00  0.00    -0.276 OA
ATOM      6  N   UNL     1      -2.488  -1.282  25.064  0.00  0.00    -0.302 N 
ATOM     17  C   UNL     1      -3.807  -0.943  24.745  0.00  0.00    +0.216 C 
BRANCH   6  18
ATOM     18  C   UNL     1      -1.621  -0.539  25.976  0.00  0.00    +0.104 C 
ATOM     20  C   UNL     1      -0.675   0.373  25.222  0.00  0.00    +0.024 C 
ENDBRANCH   6  18
BRANCH   6  19
ATOM     19  C   UNL     1      -1.888  -2.471  24.470  0.00  0.00    +0.104 C 
ATOM     21  C   UNL     1      -0.526  -2.762  25.066  0.00  0.00    +0.024 C 
ENDBRANCH   6  19
ENDBRANCH  16  17
ENDBRANCH  13  16
ENDBRANCH  10  13
TORSDOF 5
ENDMDL
MODEL 6
REMARK VINA RESULT:      -3.3      2.058      4.760
REMARK  Name = 45361094
REMARK  8 active torsions:
REMARK  status: ('A' for Active; 'I' for Inactive)
REMARK    1  A    between atoms: N_3  and  C_15
REMARK    2  A    between atoms: N_6  and  C_18
REMARK    3  A    between atoms: N_6  and  C_19
REMARK    4  A    between atoms: C_10  and  C_13
REMARK    5  A    between atoms: C_13  and  C_16
REMARK    6  A    between atoms: C_16  and  C_17
REMARK    7  A    between atoms: C_18  and  C_20
REMARK    8  A    between atoms: C_19  and  C_21
REMARK                            x       y       z     vdW  Elec       q    Type
REMARK                         _______ _______ _______ _____ _____    ______ ____
ROOT
ATOM      1  O   UNL     1      -2.298  -1.207  27.120  0.00  0.00    -0.274 OA
ATOM      3  N   UNL     1      -2.224   0.776  23.763  0.00  0.00    -0.296 NA
ATOM      4  N   UNL     1      -3.467  -2.418  25.026  0.00  0.00    -0.304 NA
ATOM      5  N   UNL     1      -0.591  -0.296  25.898  0.00  0.00    -0.312 N 
ATOM      7  C   UNL     1      -2.630  -0.637  23.606  0.00  0.00    +0.084 C 
ATOM      8  C   UNL     1      -2.256  -1.640  24.730  0.00  0.00    +0.158 C 
ATOM      9  C   UNL     1      -4.152  -0.840  23.492  0.00  0.00    +0.036 C 
ATOM     10  C   UNL     1      -0.752   0.997  23.792  0.00  0.00    +0.074 C 
ATOM     11  C   UNL     1      -4.345  -2.291  23.874  0.00  0.00    +0.083 C 
ATOM     12  C   UNL     1       0.044  -0.028  24.623  0.00  0.00    +0.123 C 
ATOM     14  C   UNL     1      -1.752  -1.033  26.033  0.00  0.00    +0.232 C 
ATOM     15  C   UNL     1      -2.844   1.617  22.725  0.00  0.00    +0.105 C 
ATOM     22  H   UNL     1      -3.943  -2.006  25.830  0.00  0.00    +0.123 HD
ATOM     23  H   UNL     1      -0.188   0.119  26.734  0.00  0.00    +0.149 HD
ENDROOT
BRANCH  10  13
ATOM     13  C   UNL     1      -0.430   2.400  24.349  0.00  0.00    +0.029 C 
BRANCH  13  16
ATOM     16  C   UNL     1      -1.183   2.650  25.645  0.00  0.00    +0.097 C 
BRANCH  16  17
ATOM      2  O   UNL     1      -1.760   4.959  25.363  0.00  0.00    -0.276 OA
ATOM      6  N   UNL     1      -3.524   3.468  25.573  0.00  0.00    -0.302 N 
ATOM     17  C   UNL     1      -2.167   3.804  25.513  0.00  0.00    +0.216 C 
BRANCH   6  18
ATOM     18  C   UNL     1      -4.054   2.117  25.749  0.00  0.00    +0.104 C 
ATOM     20  C   UNL     1      -5.519   2.043  25.370  0.00  0.00    +0.024 C 
ENDBRANCH   6  18
BRANCH   6  19
ATOM     19  C   UNL     1      -4.530   4.518  25.465  0.00  0.00    +0.104 C 
ATOM     21  C   UNL     1      -4.606   5.070  24.056  0.00  0.00    +0.024 C 
ENDBRANCH   6  19
ENDBRANCH  16  17
ENDBRANCH  13  16
ENDBRANCH  10  13
TORSDOF 5
ENDMDL
MODEL 7
REMARK VINA RESULT:      -3.3      1.947      3.152
REMARK  Name = 45361094
REMARK  8 active torsions:
REMARK  status: ('A' for Active; 'I' for Inactive)
REMARK    1  A    between atoms: N_3  and  C_15
REMARK    2  A    between atoms: N_6  and  C_18
REMARK    3  A    between atoms: N_6  and  C_19
REMARK    4  A    between atoms: C_10  and  C_13
REMARK    5  A    between atoms: C_13  and  C_16
REMARK    6  A    between atoms: C_16  and  C_17
REMARK    7  A    between atoms: C_18  and  C_20
REMARK    8  A    between atoms: C_19  and  C_21
REMARK                            x       y       z     vdW  Elec       q    Type
REMARK                         _______ _______ _______ _____ _____    ______ ____
ROOT
ATOM      1  O   UNL     1      -0.899   5.349  25.005  0.00  0.00    -0.274 OA
ATOM      3  N   UNL     1      -2.443   1.864  24.177  0.00  0.00    -0.296 NA
ATOM      4  N   UNL     1      -3.419   4.960  25.853  0.00  0.00    -0.304 NA
ATOM      5  N   UNL     1      -0.210   3.209  25.436  0.00  0.00    -0.312 N 
ATOM      7  C   UNL     1      -3.232   2.643  25.156  0.00  0.00    +0.084 C 
ATOM      8  C   UNL     1      -2.527   3.794  25.922  0.00  0.00    +0.158 C 
ATOM      9  C   UNL     1      -4.447   3.364  24.544  0.00  0.00    +0.036 C 
ATOM     10  C   UNL     1      -1.313   1.094  24.767  0.00  0.00    +0.074 C 
ATOM     11  C   UNL     1      -4.749   4.457  25.545  0.00  0.00    +0.083 C 
ATOM     12  C   UNL     1      -0.501   1.848  25.839  0.00  0.00    +0.123 C 
ATOM     14  C   UNL     1      -1.159   4.213  25.397  0.00  0.00    +0.232 C 
ATOM     15  C   UNL     1      -3.314   0.971  23.395  0.00  0.00    +0.105 C 
ATOM     22  H   UNL     1      -3.125   5.563  25.083  0.00  0.00    +0.123 HD
ATOM     23  H   UNL     1       0.731   3.427  25.121  0.00  0.00    +0.149 HD
ENDROOT
BRANCH  10  13
ATOM     13  C   UNL     1      -0.330   0.653  23.662  0.00  0.00    +0.029 C 
BRANCH  13  16
ATOM     16  C   UNL     1      -0.326  -0.861  23.520  0.00  0.00    +0.097 C 
BRANCH  16  17
ATOM      2  O   UNL     1      -0.193  -1.688  25.765  0.00  0.00    -0.276 OA
ATOM      6  N   UNL     1      -2.214  -1.989  24.669  0.00  0.00    -0.302 N 
ATOM     17  C   UNL     1      -0.890  -1.546  24.758  0.00  0.00    +0.216 C 
BRANCH   6  18
ATOM     18  C   UNL     1      -3.078  -1.843  23.499  0.00  0.00    +0.104 C 
ATOM     20  C   UNL     1      -4.431  -2.484  23.726  0.00  0.00    +0.024 C 
ENDBRANCH   6  18
BRANCH   6  19
ATOM     19  C   UNL     1      -2.824  -2.664  25.808  0.00  0.00    +0.104 C 
ATOM     21  C   UNL     1      -3.320  -1.672  26.840  0.00  0.00    +0.024 C 
ENDBRANCH   6  19
ENDBRANCH  16  17
ENDBRANCH  13  16
ENDBRANCH  10  13
TORSDOF 5
ENDMDL
MODEL 8
REMARK VINA RESULT:      -3.2     17.837     19.957
REMARK  Name = 45361094
REMARK  8 active torsions:
REMARK  status: ('A' for Active; 'I' for Inactive)
REMARK    1  A    between atoms: N_3  and  C_15
REMARK    2  A    between atoms: N_6  and  C_18
REMARK    3  A    between atoms: N_6  and  C_19
REMARK    4  A    between atoms: C_10  and  C_13
REMARK    5  A    between atoms: C_13  and  C_16
REMARK    6  A    between atoms: C_16  and  C_17
REMARK    7  A    between atoms: C_18  and  C_20
REMARK    8  A    between atoms: C_19  and  C_21
REMARK                            x       y       z     vdW  Elec       q    Type
REMARK                         _______ _______ _______ _____ _____    ______ ____
ROOT
ATOM      1  O   UNL     1      12.155  -5.154  31.537  0.00  0.00    -0.274 OA
ATOM      3  N   UNL     1      13.118  -8.895  31.003  0.00  0.00    -0.296 NA
ATOM      4  N   UNL     1      10.660  -6.943  32.873  0.00  0.00    -0.304 NA
ATOM      5  N   UNL     1      14.120  -6.298  31.797  0.00  0.00    -0.312 N 
ATOM      7  C   UNL     1      12.183  -8.680  32.130  0.00  0.00    +0.084 C 
ATOM      8  C   UNL     1      12.091  -7.259  32.748  0.00  0.00    +0.158 C 
ATOM      9  C   UNL     1      10.712  -8.974  31.784  0.00  0.00    +0.036 C 
ATOM     10  C   UNL     1      14.553  -8.695  31.344  0.00  0.00    +0.074 C 
ATOM     11  C   UNL     1       9.943  -8.206  32.836  0.00  0.00    +0.083 C 
ATOM     12  C   UNL     1      14.846  -7.473  32.237  0.00  0.00    +0.123 C 
ATOM     14  C   UNL     1      12.757  -6.138  31.961  0.00  0.00    +0.232 C 
ATOM     15  C   UNL     1      12.918 -10.226  30.405  0.00  0.00    +0.105 C 
ATOM     22  H   UNL     1      10.367  -6.390  32.065  0.00  0.00    +0.123 HD
ATOM     23  H   UNL     1      14.631  -5.574  31.300  0.00  0.00    +0.149 HD
ENDROOT
BRANCH  10  13
ATOM     13  C   UNL     1      15.395  -8.545  30.059  0.00  0.00    +0.029 C 
BRANCH  13  16
ATOM     16  C   UNL     1      14.799  -7.485  29.147  0.00  0.00    +0.097 C 
BRANCH  16  17
ATOM      2  O   UNL     1      16.299  -5.648  29.497  0.00  0.00    -0.276 OA
ATOM      6  N   UNL     1      16.242  -6.546  27.359  0.00  0.00    -0.302 N 
ATOM     17  C   UNL     1      15.846  -6.473  28.699  0.00  0.00    +0.216 C 
BRANCH   6  18
ATOM     18  C   UNL     1      15.734  -7.503  26.378  0.00  0.00    +0.104 C 
ATOM     20  C   UNL     1      16.672  -8.682  26.219  0.00  0.00    +0.024 C 
ENDBRANCH   6  18
BRANCH   6  19
ATOM     19  C   UNL     1      17.232  -5.604  26.851  0.00  0.00    +0.104 C 
ATOM     21  C   UNL     1      16.861  -5.102  25.470  0.00  0.00    +0.024 C 
ENDBRANCH   6  19
ENDBRANCH  16  17
ENDBRANCH  13  16
ENDBRANCH  10  13
TORSDOF 5
ENDMDL
MODEL 9
REMARK VINA RESULT:      -3.1     18.179     20.593
REMARK  Name = 45361094
REMARK  8 active torsions:
REMARK  status: ('A' for Active; 'I' for Inactive)
REMARK    1  A    between atoms: N_3  and  C_15
REMARK    2  A    between atoms: N_6  and  C_18
REMARK    3  A    between atoms: N_6  and  C_19
REMARK    4  A    between atoms: C_10  and  C_13
REMARK    5  A    between atoms: C_13  and  C_16
REMARK    6  A    between atoms: C_16  and  C_17
REMARK    7  A    between atoms: C_18  and  C_20
REMARK    8  A    between atoms: C_19  and  C_21
REMARK                            x       y       z     vdW  Elec       q    Type
REMARK                         _______ _______ _______ _____ _____    ______ ____
ROOT
ATOM      1  O   UNL     1      14.809  -4.873  30.609  0.00  0.00    -0.274 OA
ATOM      3  N   UNL     1      13.631  -8.556  31.119  0.00  0.00    -0.296 NA
ATOM      4  N   UNL     1      12.795  -5.220  32.353  0.00  0.00    -0.304 NA
ATOM      5  N   UNL     1      15.920  -6.785  31.200  0.00  0.00    -0.312 N 
ATOM      7  C   UNL     1      13.096  -7.619  32.131  0.00  0.00    +0.084 C 
ATOM      8  C   UNL     1      13.829  -6.266  32.342  0.00  0.00    +0.158 C 
ATOM      9  C   UNL     1      11.653  -7.160  31.853  0.00  0.00    +0.036 C 
ATOM     10  C   UNL     1      14.995  -9.073  31.417  0.00  0.00    +0.074 C 
ATOM     11  C   UNL     1      11.532  -5.878  32.647  0.00  0.00    +0.083 C 
ATOM     12  C   UNL     1      15.988  -8.022  31.952  0.00  0.00    +0.123 C 
ATOM     14  C   UNL     1      14.868  -5.893  31.293  0.00  0.00    +0.232 C 
ATOM     15  C   UNL     1      12.700  -9.675  30.899  0.00  0.00    +0.105 C 
ATOM     22  H   UNL     1      12.726  -4.807  31.422  0.00  0.00    +0.123 HD
ATOM     23  H   UNL     1      16.661  -6.585  30.535  0.00  0.00    +0.149 HD
ENDROOT
BRANCH  10  13
ATOM     13  C   UNL     1      15.619  -9.702  30.153  0.00  0.00    +0.029 C 
BRANCH  13  16
ATOM     16  C   UNL     1      15.038  -9.074  28.897  0.00  0.00    +0.097 C 
BRANCH  16  17
ATOM      2  O   UNL     1      16.712  -7.444  28.363  0.00  0.00    -0.276 OA
ATOM      6  N   UNL     1      16.389  -9.141  26.817  0.00  0.00    -0.302 N 
ATOM     17  C   UNL     1      16.122  -8.469  28.014  0.00  0.00    +0.216 C 
BRANCH   6  18
ATOM     18  C   UNL     1      15.717 -10.357  26.361  0.00  0.00    +0.104 C 
ATOM     20  C   UNL     1      14.673 -10.052  25.308  0.00  0.00    +0.024 C 
ENDBRANCH   6  18
BRANCH   6  19
ATOM     19  C   UNL     1      17.405  -8.619  25.912  0.00  0.00    +0.104 C 
ATOM     21  C   UNL     1      16.892  -7.428  25.129  0.00  0.00    +0.024 C 
ENDBRANCH   6  19
ENDBRANCH  16  17
ENDBRANCH  13  16
ENDBRANCH  10  13
TORSDOF 5
ENDMDL
MODEL 10
REMARK VINA RESULT:      -3.0     17.899     20.164
REMARK  Name = 45361094
REMARK  8 active torsions:
REMARK  status: ('A' for Active; 'I' for Inactive)
REMARK    1  A    between atoms: N_3  and  C_15
REMARK    2  A    between atoms: N_6  and  C_18
REMARK    3  A    between atoms: N_6  and  C_19
REMARK    4  A    between atoms: C_10  and  C_13
REMARK    5  A    between atoms: C_13  and  C_16
REMARK    6  A    between atoms: C_16  and  C_17
REMARK    7  A    between atoms: C_18  and  C_20
REMARK    8  A    between atoms: C_19  and  C_21
REMARK                            x       y       z     vdW  Elec       q    Type
REMARK                         _______ _______ _______ _____ _____    ______ ____
ROOT
ATOM      1  O   UNL     1      12.139  -5.591  31.139  0.00  0.00    -0.274 OA
ATOM      3  N   UNL     1      13.344  -9.276  31.557  0.00  0.00    -0.296 NA
ATOM      4  N   UNL     1      10.571  -7.164  32.650  0.00  0.00    -0.304 NA
ATOM      5  N   UNL     1      14.106  -6.502  31.874  0.00  0.00    -0.312 N 
ATOM      7  C   UNL     1      12.261  -8.899  32.491  0.00  0.00    +0.084 C 
ATOM      8  C   UNL     1      12.019  -7.391  32.767  0.00  0.00    +0.158 C 
ATOM      9  C   UNL     1      10.864  -9.371  32.048  0.00  0.00    +0.036 C 
ATOM     10  C   UNL     1      14.711  -8.900  32.012  0.00  0.00    +0.074 C 
ATOM     11  C   UNL     1       9.926  -8.458  32.807  0.00  0.00    +0.083 C 
ATOM     12  C   UNL     1      14.824  -7.498  32.643  0.00  0.00    +0.123 C 
ATOM     14  C   UNL     1      12.727  -6.414  31.837  0.00  0.00    +0.232 C 
ATOM     15  C   UNL     1      13.290 -10.715  31.247  0.00  0.00    +0.105 C 
ATOM     22  H   UNL     1      10.360  -6.820  31.712  0.00  0.00    +0.123 HD
ATOM     23  H   UNL     1      14.642  -5.863  31.293  0.00  0.00    +0.149 HD
ENDROOT
BRANCH  10  13
ATOM     13  C   UNL     1      15.706  -8.963  30.834  0.00  0.00    +0.029 C 
BRANCH  13  16
ATOM     16  C   UNL     1      15.052  -8.473  29.552  0.00  0.00    +0.097 C 
BRANCH  16  17
ATOM      2  O   UNL     1      15.522 -10.575  28.501  0.00  0.00    -0.276 OA
ATOM      6  N   UNL     1      15.596  -8.698  27.142  0.00  0.00    -0.302 N 
ATOM     17  C   UNL     1      15.410  -9.355  28.363  0.00  0.00    +0.216 C 
BRANCH   6  18
ATOM     18  C   UNL     1      15.474  -7.257  26.929  0.00  0.00    +0.104 C 
ATOM     20  C   UNL     1      16.550  -6.742  25.996  0.00  0.00    +0.024 C 
ENDBRANCH   6  18
BRANCH   6  19
ATOM     19  C   UNL     1      15.951  -9.471  25.958  0.00  0.00    +0.104 C 
ATOM     21  C   UNL     1      14.719  -9.979  25.237  0.00  0.00    +0.024 C 
ENDBRANCH   6  19
ENDBRANCH  16  17
ENDBRANCH  13  16
ENDBRANCH  10  13
TORSDOF 5
ENDMDL
