MODEL 1
REMARK VINA RESULT:       1.0      0.000      0.000
REMARK  Name = 26744132
REMARK  7 active torsions:
REMARK  status: ('A' for Active; 'I' for Inactive)
REMARK    1  A    between atoms: O_1  and  C_13
REMARK    2  A    between atoms: O_4  and  C_27
REMARK    3  A    between atoms: O_4  and  C_28
REMARK    4  A    between atoms: N_5  and  C_9
REMARK    5  A    between atoms: C_10  and  C_18
REMARK    6  A    between atoms: C_19  and  C_21
REMARK    7  A    between atoms: C_20  and  C_22
REMARK                            x       y       z     vdW  Elec       q    Type
REMARK                         _______ _______ _______ _____ _____    ______ ____
ROOT
ATOM      5  N   UNL     1      -1.588   2.368  25.415  0.00  0.00    -0.286 NA
ATOM     10  C   UNL     1      -1.210   2.489  23.992  0.00  0.00    +0.149 C 
ATOM     11  C   UNL     1      -2.082   3.681  25.824  0.00  0.00    +0.116 C 
ATOM     12  C   UNL     1      -0.835   3.970  23.808  0.00  0.00    +0.061 C 
ATOM     13  C   UNL     1      -1.078   4.610  25.169  0.00  0.00    +0.130 C 
ENDROOT
BRANCH   5   9
ATOM      3  O   UNL     1      -3.217  -3.516  24.692  0.00  0.00    -0.276 OA
ATOM      6  N   UNL     1      -3.705  -1.266  24.998  0.00  0.00    -0.302 N 
ATOM      9  C   UNL     1      -2.566   1.311  25.664  0.00  0.00    +0.060 C 
ATOM     14  C   UNL     1      -1.847   0.000  26.009  0.00  0.00    +0.038 C 
ATOM     15  C   UNL     1      -3.462   1.122  24.432  0.00  0.00    +0.038 C 
ATOM     16  C   UNL     1      -2.847  -1.141  26.179  0.00  0.00    +0.109 C 
ATOM     17  C   UNL     1      -4.431  -0.043  24.633  0.00  0.00    +0.109 C 
ATOM     19  C   UNL     1      -3.810  -2.492  24.343  0.00  0.00    +0.212 C 
ATOM     21  C   UNL     1      -4.710  -2.538  23.135  0.00  0.00    +0.109 C 
ENDBRANCH   5   9
BRANCH  10  18
ATOM      2  O   UNL     1      -0.415   0.524  22.775  0.00  0.00    -0.336 OA
ATOM      7  N   UNL     1       1.173   1.571  23.957  0.00  0.00    -0.190 NA
ATOM      8  N   UNL     1       0.767  -0.197  22.563  0.00  0.00    -0.056 NA
ATOM     18  C   UNL     1      -0.088   1.548  23.605  0.00  0.00    +0.245 A 
ATOM     20  C   UNL     1       1.657   0.481  23.293  0.00  0.00    +0.202 A 
BRANCH  20  22
ATOM     22  C   UNL     1       3.036   0.098  23.380  0.00  0.00    +0.023 A 
ATOM     23  C   UNL     1       3.377  -1.204  23.744  0.00  0.00    +0.015 A 
ATOM     24  C   UNL     1       4.037   1.028  23.101  0.00  0.00    +0.015 A 
ATOM     25  C   UNL     1       4.718  -1.577  23.830  0.00  0.00    +0.046 A 
ATOM     26  C   UNL     1       5.379   0.657  23.186  0.00  0.00    +0.046 A 
ATOM     27  C   UNL     1       5.719  -0.646  23.550  0.00  0.00    +0.120 A 
BRANCH  27   4
ATOM      4  O   UNL     1       7.029  -1.009  23.633  0.00  0.00    -0.495 OA
ATOM     28  C   UNL     1       7.956  -0.282  22.827  0.00  0.00    +0.277 C 
ENDBRANCH  27   4
ENDBRANCH  20  22
ENDBRANCH  10  18
BRANCH  13   1
ATOM      1  O   UNL     1      -1.592   5.921  25.023  0.00  0.00    -0.390 OA
ATOM     29  H   UNL     1      -0.836   6.532  25.019  0.00  0.00    +0.210 HD
ENDBRANCH  13   1
TORSDOF 5
ENDMDL
MODEL 2
REMARK VINA RESULT:       1.2      1.307      4.420
REMARK  Name = 26744132
REMARK  7 active torsions:
REMARK  status: ('A' for Active; 'I' for Inactive)
REMARK    1  A    between atoms: O_1  and  C_13
REMARK    2  A    between atoms: O_4  and  C_27
REMARK    3  A    between atoms: O_4  and  C_28
REMARK    4  A    between atoms: N_5  and  C_9
REMARK    5  A    between atoms: C_10  and  C_18
REMARK    6  A    between atoms: C_19  and  C_21
REMARK    7  A    between atoms: C_20  and  C_22
REMARK                            x       y       z     vdW  Elec       q    Type
REMARK                         _______ _______ _______ _____ _____    ______ ____
ROOT
ATOM      5  N   UNL     1      -3.007  -0.599  23.555  0.00  0.00    -0.286 NA
ATOM     10  C   UNL     1      -1.859  -0.924  24.426  0.00  0.00    +0.149 C 
ATOM     11  C   UNL     1      -4.095  -1.489  23.956  0.00  0.00    +0.116 C 
ATOM     12  C   UNL     1      -2.059  -2.402  24.808  0.00  0.00    +0.061 C 
ATOM     13  C   UNL     1      -3.368  -2.807  24.141  0.00  0.00    +0.130 C 
ENDROOT
BRANCH   5   9
ATOM      3  O   UNL     1      -1.671   5.117  25.383  0.00  0.00    -0.276 OA
ATOM      6  N   UNL     1      -3.165   3.430  24.820  0.00  0.00    -0.302 N 
ATOM      9  C   UNL     1      -3.397   0.808  23.615  0.00  0.00    +0.060 C 
ATOM     14  C   UNL     1      -2.176   1.703  23.366  0.00  0.00    +0.038 C 
ATOM     15  C   UNL     1      -4.023   1.122  24.981  0.00  0.00    +0.038 C 
ATOM     16  C   UNL     1      -2.541   3.178  23.519  0.00  0.00    +0.109 C 
ATOM     17  C   UNL     1      -4.351   2.611  25.103  0.00  0.00    +0.109 C 
ATOM     19  C   UNL     1      -2.648   4.416  25.660  0.00  0.00    +0.212 C 
ATOM     21  C   UNL     1      -3.345   4.612  26.981  0.00  0.00    +0.109 C 
ENDBRANCH   5   9
BRANCH  10  18
ATOM      2  O   UNL     1      -0.558  -0.431  22.417  0.00  0.00    -0.336 OA
ATOM      7  N   UNL     1       0.675  -0.640  24.275  0.00  0.00    -0.190 NA
ATOM      8  N   UNL     1       0.772  -0.225  22.028  0.00  0.00    -0.056 NA
ATOM     18  C   UNL     1      -0.527  -0.667  23.754  0.00  0.00    +0.245 A 
ATOM     20  C   UNL     1       1.438  -0.365  23.178  0.00  0.00    +0.202 A 
BRANCH  20  22
ATOM     22  C   UNL     1       2.863  -0.235  23.265  0.00  0.00    +0.023 A 
ATOM     23  C   UNL     1       3.632  -1.293  23.751  0.00  0.00    +0.015 A 
ATOM     24  C   UNL     1       3.481   0.949  22.866  0.00  0.00    +0.015 A 
ATOM     25  C   UNL     1       5.018  -1.165  23.838  0.00  0.00    +0.046 A 
ATOM     26  C   UNL     1       4.867   1.078  22.952  0.00  0.00    +0.046 A 
ATOM     27  C   UNL     1       5.636   0.020  23.437  0.00  0.00    +0.120 A 
BRANCH  27   4
ATOM      4  O   UNL     1       6.989   0.144  23.521  0.00  0.00    -0.495 OA
ATOM     28  C   UNL     1       7.772  -0.728  22.708  0.00  0.00    +0.277 C 
ENDBRANCH  27   4
ENDBRANCH  20  22
ENDBRANCH  10  18
BRANCH  13   1
ATOM      1  O   UNL     1      -4.096  -3.697  24.966  0.00  0.00    -0.390 OA
ATOM     29  H   UNL     1      -3.843  -4.601  24.715  0.00  0.00    +0.210 HD
ENDBRANCH  13   1
TORSDOF 5
ENDMDL
MODEL 3
REMARK VINA RESULT:       1.7      1.273      4.579
REMARK  Name = 26744132
REMARK  7 active torsions:
REMARK  status: ('A' for Active; 'I' for Inactive)
REMARK    1  A    between atoms: O_1  and  C_13
REMARK    2  A    between atoms: O_4  and  C_27
REMARK    3  A    between atoms: O_4  and  C_28
REMARK    4  A    between atoms: N_5  and  C_9
REMARK    5  A    between atoms: C_10  and  C_18
REMARK    6  A    between atoms: C_19  and  C_21
REMARK    7  A    between atoms: C_20  and  C_22
REMARK                            x       y       z     vdW  Elec       q    Type
REMARK                         _______ _______ _______ _____ _____    ______ ____
ROOT
ATOM      5  N   UNL     1      -3.000  -0.375  24.228  0.00  0.00    -0.286 NA
ATOM     10  C   UNL     1      -1.830  -1.148  24.692  0.00  0.00    +0.149 C 
ATOM     11  C   UNL     1      -4.162  -1.248  24.385  0.00  0.00    +0.116 C 
ATOM     12  C   UNL     1      -2.208  -2.620  24.447  0.00  0.00    +0.061 C 
ATOM     13  C   UNL     1      -3.624  -2.575  23.886  0.00  0.00    +0.130 C 
ENDROOT
BRANCH   5   9
ATOM      3  O   UNL     1      -3.129   5.767  23.963  0.00  0.00    -0.276 OA
ATOM      6  N   UNL     1      -2.772   3.759  25.076  0.00  0.00    -0.302 N 
ATOM      9  C   UNL     1      -3.168   0.895  24.931  0.00  0.00    +0.060 C 
ATOM     14  C   UNL     1      -3.993   1.866  24.076  0.00  0.00    +0.038 C 
ATOM     15  C   UNL     1      -1.796   1.501  25.258  0.00  0.00    +0.038 C 
ATOM     16  C   UNL     1      -4.099   3.232  24.751  0.00  0.00    +0.109 C 
ATOM     17  C   UNL     1      -1.945   2.877  25.909  0.00  0.00    +0.109 C 
ATOM     19  C   UNL     1      -2.401   5.028  24.631  0.00  0.00    +0.212 C 
ATOM     21  C   UNL     1      -1.019   5.498  25.006  0.00  0.00    +0.109 C 
ENDBRANCH   5   9
BRANCH  10  18
ATOM      2  O   UNL     1      -0.684  -0.196  22.756  0.00  0.00    -0.336 OA
ATOM      7  N   UNL     1       0.690  -0.853  24.398  0.00  0.00    -0.190 NA
ATOM      8  N   UNL     1       0.615   0.088  22.314  0.00  0.00    -0.056 NA
ATOM     18  C   UNL     1      -0.550  -0.747  23.990  0.00  0.00    +0.245 A 
ATOM     20  C   UNL     1       1.368  -0.328  23.337  0.00  0.00    +0.202 A 
BRANCH  20  22
ATOM     22  C   UNL     1       2.799  -0.233  23.331  0.00  0.00    +0.023 A 
ATOM     23  C   UNL     1       3.572  -1.300  23.789  0.00  0.00    +0.015 A 
ATOM     24  C   UNL     1       3.418   0.928  22.867  0.00  0.00    +0.015 A 
ATOM     25  C   UNL     1       4.963  -1.206  23.785  0.00  0.00    +0.046 A 
ATOM     26  C   UNL     1       4.810   1.022  22.862  0.00  0.00    +0.046 A 
ATOM     27  C   UNL     1       5.582  -0.045  23.321  0.00  0.00    +0.120 A 
BRANCH  27   4
ATOM      4  O   UNL     1       6.940   0.047  23.315  0.00  0.00    -0.495 OA
ATOM     28  C   UNL     1       7.657  -0.972  22.620  0.00  0.00    +0.277 C 
ENDBRANCH  27   4
ENDBRANCH  20  22
ENDBRANCH  10  18
BRANCH  13   1
ATOM      1  O   UNL     1      -4.388  -3.665  24.366  0.00  0.00    -0.390 OA
ATOM     29  H   UNL     1      -3.932  -4.481  24.099  0.00  0.00    +0.210 HD
ENDBRANCH  13   1
TORSDOF 5
ENDMDL
MODEL 4
REMARK VINA RESULT:       1.8      1.998      2.977
REMARK  Name = 26744132
REMARK  7 active torsions:
REMARK  status: ('A' for Active; 'I' for Inactive)
REMARK    1  A    between atoms: O_1  and  C_13
REMARK    2  A    between atoms: O_4  and  C_27
REMARK    3  A    between atoms: O_4  and  C_28
REMARK    4  A    between atoms: N_5  and  C_9
REMARK    5  A    between atoms: C_10  and  C_18
REMARK    6  A    between atoms: C_19  and  C_21
REMARK    7  A    between atoms: C_20  and  C_22
REMARK                            x       y       z     vdW  Elec       q    Type
REMARK                         _______ _______ _______ _____ _____    ______ ____
ROOT
ATOM      5  N   UNL     1      -4.326   1.747  25.558  0.00  0.00    -0.286 NA
ATOM     10  C   UNL     1      -3.891   2.392  24.302  0.00  0.00    +0.149 C 
ATOM     11  C   UNL     1      -5.603   2.361  25.917  0.00  0.00    +0.116 C 
ATOM     12  C   UNL     1      -4.527   3.793  24.337  0.00  0.00    +0.061 C 
ATOM     13  C   UNL     1      -5.336   3.826  25.628  0.00  0.00    +0.130 C 
ENDROOT
BRANCH   5   9
ATOM      3  O   UNL     1      -1.447  -3.676  25.243  0.00  0.00    -0.276 OA
ATOM      6  N   UNL     1      -3.241  -2.267  24.804  0.00  0.00    -0.302 N 
ATOM      9  C   UNL     1      -4.426   0.293  25.454  0.00  0.00    +0.060 C 
ATOM     14  C   UNL     1      -3.392  -0.372  26.373  0.00  0.00    +0.038 C 
ATOM     15  C   UNL     1      -4.212  -0.148  24.000  0.00  0.00    +0.038 C 
ATOM     16  C   UNL     1      -3.413  -1.890  26.209  0.00  0.00    +0.109 C 
ATOM     17  C   UNL     1      -4.216  -1.672  23.883  0.00  0.00    +0.109 C 
ATOM     19  C   UNL     1      -2.232  -3.161  24.444  0.00  0.00    +0.212 C 
ATOM     21  C   UNL     1      -2.119  -3.497  22.979  0.00  0.00    +0.109 C 
ENDBRANCH   5   9
BRANCH  10  18
ATOM      2  O   UNL     1      -1.780   3.608  24.482  0.00  0.00    -0.336 OA
ATOM      7  N   UNL     1      -1.559   1.497  23.768  0.00  0.00    -0.190 NA
ATOM      8  N   UNL     1      -0.408   3.408  24.275  0.00  0.00    -0.056 NA
ATOM     18  C   UNL     1      -2.384   2.435  24.161  0.00  0.00    +0.245 A 
ATOM     20  C   UNL     1      -0.359   2.141  23.854  0.00  0.00    +0.202 A 
BRANCH  20  22
ATOM     22  C   UNL     1       0.872   1.488  23.514  0.00  0.00    +0.023 A 
ATOM     23  C   UNL     1       2.047   2.231  23.402  0.00  0.00    +0.015 A 
ATOM     24  C   UNL     1       0.894   0.111  23.295  0.00  0.00    +0.015 A 
ATOM     25  C   UNL     1       3.244   1.597  23.069  0.00  0.00    +0.046 A 
ATOM     26  C   UNL     1       2.090  -0.524  22.963  0.00  0.00    +0.046 A 
ATOM     27  C   UNL     1       3.266   0.219  22.850  0.00  0.00    +0.120 A 
BRANCH  27   4
ATOM      4  O   UNL     1       4.434  -0.401  22.526  0.00  0.00    -0.495 OA
ATOM     28  C   UNL     1       5.551  -0.168  23.382  0.00  0.00    +0.277 C 
ENDBRANCH  27   4
ENDBRANCH  20  22
ENDBRANCH  10  18
BRANCH  13   1
ATOM      1  O   UNL     1      -6.537   4.553  25.447  0.00  0.00    -0.390 OA
ATOM     29  H   UNL     1      -7.264   4.006  25.791  0.00  0.00    +0.210 HD
ENDBRANCH  13   1
TORSDOF 5
ENDMDL
MODEL 5
REMARK VINA RESULT:       4.2      1.914      4.456
REMARK  Name = 26744132
REMARK  7 active torsions:
REMARK  status: ('A' for Active; 'I' for Inactive)
REMARK    1  A    between atoms: O_1  and  C_13
REMARK    2  A    between atoms: O_4  and  C_27
REMARK    3  A    between atoms: O_4  and  C_28
REMARK    4  A    between atoms: N_5  and  C_9
REMARK    5  A    between atoms: C_10  and  C_18
REMARK    6  A    between atoms: C_19  and  C_21
REMARK    7  A    between atoms: C_20  and  C_22
REMARK                            x       y       z     vdW  Elec       q    Type
REMARK                         _______ _______ _______ _____ _____    ______ ____
ROOT
ATOM      5  N   UNL     1      -3.251  -0.431  24.340  0.00  0.00    -0.286 NA
ATOM     10  C   UNL     1      -2.050  -1.197  24.735  0.00  0.00    +0.149 C 
ATOM     11  C   UNL     1      -4.362  -1.381  24.331  0.00  0.00    +0.116 C 
ATOM     12  C   UNL     1      -2.332  -2.638  24.273  0.00  0.00    +0.061 C 
ATOM     13  C   UNL     1      -3.731  -2.592  23.672  0.00  0.00    +0.130 C 
ENDROOT
BRANCH   5   9
ATOM      3  O   UNL     1      -6.668   4.538  25.534  0.00  0.00    -0.276 OA
ATOM      6  N   UNL     1      -4.688   3.327  25.632  0.00  0.00    -0.302 N 
ATOM      9  C   UNL     1      -3.514   0.715  25.207  0.00  0.00    +0.060 C 
ATOM     14  C   UNL     1      -5.026   0.896  25.395  0.00  0.00    +0.038 C 
ATOM     15  C   UNL     1      -2.892   1.983  24.606  0.00  0.00    +0.038 C 
ATOM     16  C   UNL     1      -5.327   2.146  26.219  0.00  0.00    +0.109 C 
ATOM     17  C   UNL     1      -3.236   3.213  25.446  0.00  0.00    +0.109 C 
ATOM     19  C   UNL     1      -5.454   4.454  25.334  0.00  0.00    +0.212 C 
ATOM     21  C   UNL     1      -4.723   5.626  24.731  0.00  0.00    +0.109 C 
ENDBRANCH   5   9
BRANCH  10  18
ATOM      2  O   UNL     1      -0.911   0.470  23.359  0.00  0.00    -0.336 OA
ATOM      7  N   UNL     1       0.457  -1.049  24.273  0.00  0.00    -0.190 NA
ATOM      8  N   UNL     1       0.382   0.804  22.934  0.00  0.00    -0.056 NA
ATOM     18  C   UNL     1      -0.777  -0.630  24.143  0.00  0.00    +0.245 A 
ATOM     20  C   UNL     1       1.132  -0.138  23.514  0.00  0.00    +0.202 A 
BRANCH  20  22
ATOM     22  C   UNL     1       2.556  -0.195  23.356  0.00  0.00    +0.023 A 
ATOM     23  C   UNL     1       3.261  -1.317  23.791  0.00  0.00    +0.015 A 
ATOM     24  C   UNL     1       3.236   0.871  22.769  0.00  0.00    +0.015 A 
ATOM     25  C   UNL     1       4.647  -1.372  23.639  0.00  0.00    +0.046 A 
ATOM     26  C   UNL     1       4.621   0.817  22.617  0.00  0.00    +0.046 A 
ATOM     27  C   UNL     1       5.327  -0.305  23.051  0.00  0.00    +0.120 A 
BRANCH  27   4
ATOM      4  O   UNL     1       6.679  -0.359  22.902  0.00  0.00    -0.495 OA
ATOM     28  C   UNL     1       7.464   0.396  23.824  0.00  0.00    +0.277 C 
ENDBRANCH  27   4
ENDBRANCH  20  22
ENDBRANCH  10  18
BRANCH  13   1
ATOM      1  O   UNL     1      -4.442  -3.780  23.967  0.00  0.00    -0.390 OA
ATOM     29  H   UNL     1      -4.685  -3.749  24.908  0.00  0.00    +0.210 HD
ENDBRANCH  13   1
TORSDOF 5
ENDMDL
