MODEL 1
REMARK VINA RESULT:      -2.1      0.000      0.000
REMARK  Name = 11866346
REMARK  8 active torsions:
REMARK  status: ('A' for Active; 'I' for Inactive)
REMARK    1  A    between atoms: O_2  and  C_11
REMARK    2  A    between atoms: O_3  and  C_13
REMARK    3  A    between atoms: N_7  and  C_12
REMARK    4  A    between atoms: N_8  and  C_19
REMARK    5  A    between atoms: N_9  and  C_21
REMARK    6  A    between atoms: C_15  and  C_17
REMARK    7  A    between atoms: C_19  and  C_20
REMARK    8  A    between atoms: C_20  and  C_22
REMARK                            x       y       z     vdW  Elec       q    Type
REMARK                         _______ _______ _______ _____ _____    ______ ____
ROOT
ATOM     11  C   UNL     1      -2.319  -1.906  24.724  0.00  0.00    +0.167 C 
ATOM     12  C   UNL     1      -2.012  -1.148  23.418  0.00  0.00    +0.129 C 
ATOM     13  C   UNL     1      -3.664  -1.477  25.321  0.00  0.00    +0.149 C 
ATOM     14  C   UNL     1      -3.734   0.041  25.559  0.00  0.00    +0.074 C 
ATOM     15  C   UNL     1      -3.078   0.845  24.472  0.00  0.00    +0.015 C 
ATOM     16  C   UNL     1      -2.312   0.324  23.502  0.00  0.00    +0.006 C 
ENDROOT
BRANCH  12   7
ATOM      5  O   UNL     1       0.236   0.404  24.276  0.00  0.00    -0.252 OA
ATOM      7  N   UNL     1      -0.639  -1.321  23.011  0.00  0.00    -0.290 N 
ATOM      9  N   UNL     1       1.620  -0.916  22.914  0.00  0.00    -0.269 N 
ATOM     18  C   UNL     1       0.405  -0.516  23.480  0.00  0.00    +0.304 C 
ATOM     28  H   UNL     1      -0.424  -2.027  22.312  0.00  0.00    +0.151 HD
ATOM     32  H   UNL     1       1.585  -1.701  22.270  0.00  0.00    +0.156 HD
BRANCH   9  21
ATOM      1  F   UNL     1       6.062  -1.235  24.706  0.00  0.00    -0.205 F 
ATOM     21  C   UNL     1       2.902  -0.360  23.129  0.00  0.00    +0.037 A 
ATOM     23  C   UNL     1       3.868  -1.086  23.827  0.00  0.00    +0.061 A 
ATOM     24  C   UNL     1       3.201   0.913  22.645  0.00  0.00    +0.023 A 
ATOM     25  C   UNL     1       5.134  -0.538  24.038  0.00  0.00    +0.125 A 
ATOM     26  C   UNL     1       4.466   1.461  22.857  0.00  0.00    +0.005 A 
ATOM     27  C   UNL     1       5.433   0.735  23.553  0.00  0.00    +0.038 A 
ENDBRANCH   9  21
ENDBRANCH  12   7
BRANCH  15  17
ATOM      4  O   UNL     1      -3.815   2.841  23.476  0.00  0.00    -0.271 OA
ATOM      8  N   UNL     1      -2.889   2.920  25.613  0.00  0.00    -0.311 N 
ATOM     17  C   UNL     1      -3.305   2.293  24.452  0.00  0.00    +0.240 C 
ATOM     31  H   UNL     1      -2.487   2.370  26.367  0.00  0.00    +0.149 HD
BRANCH   8  19
ATOM     19  C   UNL     1      -3.008   4.345  25.826  0.00  0.00    +0.113 C 
BRANCH  19  20
ATOM     20  C   UNL     1      -1.769   5.102  25.367  0.00  0.00    +0.114 C 
BRANCH  20  22
ATOM      6  O   UNL     1      -0.096   3.396  25.802  0.00  0.00    -0.276 OA
ATOM     10  N   UNL     1      -0.167   4.376  23.724  0.00  0.00    -0.329 N 
ATOM     22  C   UNL     1      -0.603   4.194  25.020  0.00  0.00    +0.212 C 
ATOM     33  H   UNL     1       0.610   3.838  23.355  0.00  0.00    +0.145 HD
ATOM     34  H   UNL     1      -0.599   5.045  23.095  0.00  0.00    +0.145 HD
ENDBRANCH  20  22
ENDBRANCH  19  20
ENDBRANCH   8  19
ENDBRANCH  15  17
BRANCH  11   2
ATOM      2  O   UNL     1      -1.288  -1.650  25.680  0.00  0.00    -0.387 OA
ATOM     29  H   UNL     1      -0.706  -2.430  25.699  0.00  0.00    +0.210 HD
ENDBRANCH  11   2
BRANCH  13   3
ATOM      3  O   UNL     1      -4.733  -1.889  24.472  0.00  0.00    -0.389 OA
ATOM     30  H   UNL     1      -4.680  -2.855  24.380  0.00  0.00    +0.210 HD
ENDBRANCH  13   3
TORSDOF 8
ENDMDL
MODEL 2
REMARK VINA RESULT:      -1.6      1.911      4.464
REMARK  Name = 11866346
REMARK  8 active torsions:
REMARK  status: ('A' for Active; 'I' for Inactive)
REMARK    1  A    between atoms: O_2  and  C_11
REMARK    2  A    between atoms: O_3  and  C_13
REMARK    3  A    between atoms: N_7  and  C_12
REMARK    4  A    between atoms: N_8  and  C_19
REMARK    5  A    between atoms: N_9  and  C_21
REMARK    6  A    between atoms: C_15  and  C_17
REMARK    7  A    between atoms: C_19  and  C_20
REMARK    8  A    between atoms: C_20  and  C_22
REMARK                            x       y       z     vdW  Elec       q    Type
REMARK                         _______ _______ _______ _____ _____    ______ ____
ROOT
ATOM     11  C   UNL     1      -2.254   4.510  25.660  0.00  0.00    +0.167 C 
ATOM     12  C   UNL     1      -1.633   3.100  25.674  0.00  0.00    +0.129 C 
ATOM     13  C   UNL     1      -3.671   4.506  26.248  0.00  0.00    +0.149 C 
ATOM     14  C   UNL     1      -4.595   3.510  25.528  0.00  0.00    +0.074 C 
ATOM     15  C   UNL     1      -3.910   2.227  25.152  0.00  0.00    +0.015 C 
ATOM     16  C   UNL     1      -2.586   2.026  25.222  0.00  0.00    +0.006 C 
ENDROOT
BRANCH  12   7
ATOM      5  O   UNL     1      -0.145   0.746  25.006  0.00  0.00    -0.252 OA
ATOM      7  N   UNL     1      -0.440   3.035  24.866  0.00  0.00    -0.290 N 
ATOM      9  N   UNL     1       1.348   2.084  23.783  0.00  0.00    -0.269 N 
ATOM     18  C   UNL     1       0.230   1.839  24.586  0.00  0.00    +0.304 C 
ATOM     28  H   UNL     1      -0.035   3.903  24.526  0.00  0.00    +0.151 HD
ATOM     32  H   UNL     1       1.518   3.051  23.522  0.00  0.00    +0.156 HD
BRANCH   9  21
ATOM      1  F   UNL     1       5.872   0.564  23.265  0.00  0.00    -0.205 F 
ATOM     21  C   UNL     1       2.281   1.145  23.285  0.00  0.00    +0.037 A 
ATOM     23  C   UNL     1       3.643   1.322  23.525  0.00  0.00    +0.061 A 
ATOM     24  C   UNL     1       1.839   0.043  22.553  0.00  0.00    +0.023 A 
ATOM     25  C   UNL     1       4.564   0.395  23.034  0.00  0.00    +0.125 A 
ATOM     26  C   UNL     1       2.759  -0.883  22.061  0.00  0.00    +0.005 A 
ATOM     27  C   UNL     1       4.122  -0.707  22.302  0.00  0.00    +0.038 A 
ENDBRANCH   9  21
ENDBRANCH  12   7
BRANCH  15  17
ATOM      4  O   UNL     1      -5.967   1.207  24.652  0.00  0.00    -0.271 OA
ATOM      8  N   UNL     1      -4.001  -0.010  24.356  0.00  0.00    -0.311 N 
ATOM     17  C   UNL     1      -4.741   1.107  24.700  0.00  0.00    +0.240 C 
ATOM     31  H   UNL     1      -2.987   0.017  24.424  0.00  0.00    +0.149 HD
BRANCH   8  19
ATOM     19  C   UNL     1      -4.599  -1.239  23.884  0.00  0.00    +0.113 C 
BRANCH  19  20
ATOM     20  C   UNL     1      -3.765  -2.461  24.244  0.00  0.00    +0.114 C 
BRANCH  20  22
ATOM      6  O   UNL     1      -2.389  -1.538  26.019  0.00  0.00    -0.276 OA
ATOM     10  N   UNL     1      -1.359  -2.518  24.213  0.00  0.00    -0.329 N 
ATOM     22  C   UNL     1      -2.460  -2.116  24.940  0.00  0.00    +0.212 C 
ATOM     33  H   UNL     1      -0.419  -2.349  24.555  0.00  0.00    +0.145 HD
ATOM     34  H   UNL     1      -1.442  -2.992  23.319  0.00  0.00    +0.145 HD
ENDBRANCH  20  22
ENDBRANCH  19  20
ENDBRANCH   8  19
ENDBRANCH  15  17
BRANCH  11   2
ATOM      2  O   UNL     1      -2.316   4.992  24.316  0.00  0.00    -0.387 OA
ATOM     29  H   UNL     1      -2.607   5.920  24.352  0.00  0.00    +0.210 HD
ENDBRANCH  11   2
BRANCH  13   3
ATOM      3  O   UNL     1      -3.623   4.209  27.642  0.00  0.00    -0.389 OA
ATOM     30  H   UNL     1      -3.102   4.906  28.075  0.00  0.00    +0.210 HD
ENDBRANCH  13   3
TORSDOF 8
ENDMDL
MODEL 3
REMARK VINA RESULT:      -1.2      1.541      2.511
REMARK  Name = 11866346
REMARK  8 active torsions:
REMARK  status: ('A' for Active; 'I' for Inactive)
REMARK    1  A    between atoms: O_2  and  C_11
REMARK    2  A    between atoms: O_3  and  C_13
REMARK    3  A    between atoms: N_7  and  C_12
REMARK    4  A    between atoms: N_8  and  C_19
REMARK    5  A    between atoms: N_9  and  C_21
REMARK    6  A    between atoms: C_15  and  C_17
REMARK    7  A    between atoms: C_19  and  C_20
REMARK    8  A    between atoms: C_20  and  C_22
REMARK                            x       y       z     vdW  Elec       q    Type
REMARK                         _______ _______ _______ _____ _____    ______ ____
ROOT
ATOM     11  C   UNL     1      -2.046  -2.320  24.431  0.00  0.00    +0.167 C 
ATOM     12  C   UNL     1      -1.710  -1.284  23.342  0.00  0.00    +0.129 C 
ATOM     13  C   UNL     1      -3.389  -2.013  25.105  0.00  0.00    +0.149 C 
ATOM     14  C   UNL     1      -3.432  -0.592  25.691  0.00  0.00    +0.074 C 
ATOM     15  C   UNL     1      -2.747   0.430  24.828  0.00  0.00    +0.015 C 
ATOM     16  C   UNL     1      -1.981   0.134  23.767  0.00  0.00    +0.006 C 
ENDROOT
BRANCH  12   7
ATOM      5  O   UNL     1       0.512   0.218  24.345  0.00  0.00    -0.252 OA
ATOM      7  N   UNL     1      -0.336  -1.387  22.914  0.00  0.00    -0.290 N 
ATOM      9  N   UNL     1       1.913  -0.929  22.851  0.00  0.00    -0.269 N 
ATOM     18  C   UNL     1       0.694  -0.613  23.458  0.00  0.00    +0.304 C 
ATOM     28  H   UNL     1      -0.111  -2.013  22.146  0.00  0.00    +0.151 HD
ATOM     32  H   UNL     1       1.891  -1.645  22.130  0.00  0.00    +0.156 HD
BRANCH   9  21
ATOM      1  F   UNL     1       6.294  -1.258  24.785  0.00  0.00    -0.205 F 
ATOM     21  C   UNL     1       3.186  -0.372  23.116  0.00  0.00    +0.037 A 
ATOM     23  C   UNL     1       4.131  -1.104  23.835  0.00  0.00    +0.061 A 
ATOM     24  C   UNL     1       3.496   0.909  22.659  0.00  0.00    +0.023 A 
ATOM     25  C   UNL     1       5.387  -0.555  24.096  0.00  0.00    +0.125 A 
ATOM     26  C   UNL     1       4.752   1.458  22.921  0.00  0.00    +0.005 A 
ATOM     27  C   UNL     1       5.697   0.726  23.639  0.00  0.00    +0.038 A 
ENDBRANCH   9  21
ENDBRANCH  12   7
BRANCH  15  17
ATOM      4  O   UNL     1      -2.277   2.399  26.019  0.00  0.00    -0.271 OA
ATOM      8  N   UNL     1      -3.930   2.440  24.376  0.00  0.00    -0.311 N 
ATOM     17  C   UNL     1      -2.945   1.846  25.146  0.00  0.00    +0.240 C 
ATOM     31  H   UNL     1      -4.418   1.892  23.673  0.00  0.00    +0.149 HD
BRANCH   8  19
ATOM     19  C   UNL     1      -4.306   3.829  24.510  0.00  0.00    +0.113 C 
BRANCH  19  20
ATOM     20  C   UNL     1      -5.547   4.011  25.374  0.00  0.00    +0.114 C 
BRANCH  20  22
ATOM      6  O   UNL     1      -6.786   1.998  24.814  0.00  0.00    -0.276 OA
ATOM     10  N   UNL     1      -6.291   2.418  27.018  0.00  0.00    -0.329 N 
ATOM     22  C   UNL     1      -6.269   2.708  25.671  0.00  0.00    +0.212 C 
ATOM     33  H   UNL     1      -6.744   1.580  27.364  0.00  0.00    +0.145 HD
ATOM     34  H   UNL     1      -5.860   3.023  27.711  0.00  0.00    +0.145 HD
ENDBRANCH  20  22
ENDBRANCH  19  20
ENDBRANCH   8  19
ENDBRANCH  15  17
BRANCH  11   2
ATOM      2  O   UNL     1      -1.021  -2.318  25.427  0.00  0.00    -0.387 OA
ATOM     29  H   UNL     1      -0.215  -1.961  25.016  0.00  0.00    +0.210 HD
ENDBRANCH  11   2
BRANCH  13   3
ATOM      3  O   UNL     1      -4.457  -2.191  24.175  0.00  0.00    -0.389 OA
ATOM     30  H   UNL     1      -4.739  -1.309  23.879  0.00  0.00    +0.210 HD
ENDBRANCH  13   3
TORSDOF 8
ENDMDL
MODEL 4
REMARK VINA RESULT:      -1.1      1.939      4.351
REMARK  Name = 11866346
REMARK  8 active torsions:
REMARK  status: ('A' for Active; 'I' for Inactive)
REMARK    1  A    between atoms: O_2  and  C_11
REMARK    2  A    between atoms: O_3  and  C_13
REMARK    3  A    between atoms: N_7  and  C_12
REMARK    4  A    between atoms: N_8  and  C_19
REMARK    5  A    between atoms: N_9  and  C_21
REMARK    6  A    between atoms: C_15  and  C_17
REMARK    7  A    between atoms: C_19  and  C_20
REMARK    8  A    between atoms: C_20  and  C_22
REMARK                            x       y       z     vdW  Elec       q    Type
REMARK                         _______ _______ _______ _____ _____    ______ ____
ROOT
ATOM     11  C   UNL     1      -2.432   3.222  22.641  0.00  0.00    +0.167 C 
ATOM     12  C   UNL     1      -1.487   2.541  23.649  0.00  0.00    +0.129 C 
ATOM     13  C   UNL     1      -3.783   3.567  23.279  0.00  0.00    +0.149 C 
ATOM     14  C   UNL     1      -4.463   2.334  23.897  0.00  0.00    +0.074 C 
ATOM     15  C   UNL     1      -3.502   1.400  24.576  0.00  0.00    +0.015 C 
ATOM     16  C   UNL     1      -2.167   1.487  24.481  0.00  0.00    +0.006 C 
ENDROOT
BRANCH  12   7
ATOM      5  O   UNL     1       0.916   1.620  24.904  0.00  0.00    -0.252 OA
ATOM      7  N   UNL     1      -0.344   1.953  22.995  0.00  0.00    -0.290 N 
ATOM      9  N   UNL     1       1.736   1.001  22.793  0.00  0.00    -0.269 N 
ATOM     18  C   UNL     1       0.797   1.527  23.685  0.00  0.00    +0.304 C 
ATOM     28  H   UNL     1      -0.342   1.891  21.980  0.00  0.00    +0.151 HD
ATOM     32  H   UNL     1       1.479   0.997  21.810  0.00  0.00    +0.156 HD
BRANCH   9  21
ATOM      1  F   UNL     1       4.519  -2.679  24.119  0.00  0.00    -0.205 F 
ATOM     21  C   UNL     1       3.012   0.469  23.091  0.00  0.00    +0.037 A 
ATOM     23  C   UNL     1       3.139  -0.869  23.466  0.00  0.00    +0.061 A 
ATOM     24  C   UNL     1       4.143   1.280  23.008  0.00  0.00    +0.023 A 
ATOM     25  C   UNL     1       4.397  -1.395  23.759  0.00  0.00    +0.125 A 
ATOM     26  C   UNL     1       5.402   0.754  23.301  0.00  0.00    +0.005 A 
ATOM     27  C   UNL     1       5.529  -0.584  23.677  0.00  0.00    +0.038 A 
ENDBRANCH   9  21
ENDBRANCH  12   7
BRANCH  15  17
ATOM      4  O   UNL     1      -5.232   0.349  25.768  0.00  0.00    -0.271 OA
ATOM      8  N   UNL     1      -3.117  -0.630  25.748  0.00  0.00    -0.311 N 
ATOM     17  C   UNL     1      -4.053   0.335  25.419  0.00  0.00    +0.240 C 
ATOM     31  H   UNL     1      -2.167  -0.552  25.397  0.00  0.00    +0.149 HD
BRANCH   8  19
ATOM     19  C   UNL     1      -3.424  -1.778  26.571  0.00  0.00    +0.113 C 
BRANCH  19  20
ATOM     20  C   UNL     1      -3.320  -3.086  25.799  0.00  0.00    +0.114 C 
BRANCH  20  22
ATOM      6  O   UNL     1      -4.245  -2.674  23.591  0.00  0.00    -0.276 OA
ATOM     10  N   UNL     1      -1.980  -3.006  23.801  0.00  0.00    -0.329 N 
ATOM     22  C   UNL     1      -3.263  -2.894  24.294  0.00  0.00    +0.212 C 
ATOM     33  H   UNL     1      -1.792  -2.905  22.810  0.00  0.00    +0.145 HD
ATOM     34  H   UNL     1      -1.183  -3.192  24.401  0.00  0.00    +0.145 HD
ENDBRANCH  20  22
ENDBRANCH  19  20
ENDBRANCH   8  19
ENDBRANCH  15  17
BRANCH  11   2
ATOM      2  O   UNL     1      -2.658   2.350  21.531  0.00  0.00    -0.387 OA
ATOM     29  H   UNL     1      -2.638   2.894  20.724  0.00  0.00    +0.210 HD
ENDBRANCH  11   2
BRANCH  13   3
ATOM      3  O   UNL     1      -3.613   4.579  24.270  0.00  0.00    -0.389 OA
ATOM     30  H   UNL     1      -2.659   4.709  24.398  0.00  0.00    +0.210 HD
ENDBRANCH  13   3
TORSDOF 8
ENDMDL
MODEL 5
REMARK VINA RESULT:      -0.9      1.374      1.718
REMARK  Name = 11866346
REMARK  8 active torsions:
REMARK  status: ('A' for Active; 'I' for Inactive)
REMARK    1  A    between atoms: O_2  and  C_11
REMARK    2  A    between atoms: O_3  and  C_13
REMARK    3  A    between atoms: N_7  and  C_12
REMARK    4  A    between atoms: N_8  and  C_19
REMARK    5  A    between atoms: N_9  and  C_21
REMARK    6  A    between atoms: C_15  and  C_17
REMARK    7  A    between atoms: C_19  and  C_20
REMARK    8  A    between atoms: C_20  and  C_22
REMARK                            x       y       z     vdW  Elec       q    Type
REMARK                         _______ _______ _______ _____ _____    ______ ____
ROOT
ATOM     11  C   UNL     1      -1.833  -1.789  24.561  0.00  0.00    +0.167 C 
ATOM     12  C   UNL     1      -1.943  -0.680  23.497  0.00  0.00    +0.129 C 
ATOM     13  C   UNL     1      -3.205  -2.145  25.145  0.00  0.00    +0.149 C 
ATOM     14  C   UNL     1      -3.923  -0.917  25.729  0.00  0.00    +0.074 C 
ATOM     15  C   UNL     1      -3.729   0.330  24.913  0.00  0.00    +0.015 C 
ATOM     16  C   UNL     1      -2.853   0.447  23.904  0.00  0.00    +0.006 C 
ENDROOT
BRANCH  12   7
ATOM      5  O   UNL     1       0.607  -1.680  24.335  0.00  0.00    -0.252 OA
ATOM      7  N   UNL     1      -0.650  -0.137  23.159  0.00  0.00    -0.290 N 
ATOM      9  N   UNL     1       1.639   0.047  23.127  0.00  0.00    -0.269 N 
ATOM     18  C   UNL     1       0.554  -0.688  23.612  0.00  0.00    +0.304 C 
ATOM     28  H   UNL     1      -0.610   0.717  22.609  0.00  0.00    +0.151 HD
ATOM     32  H   UNL     1       1.421   0.846  22.537  0.00  0.00    +0.156 HD
BRANCH   9  21
ATOM      1  F   UNL     1       6.131   1.685  23.565  0.00  0.00    -0.205 F 
ATOM     21  C   UNL     1       3.015  -0.183  23.355  0.00  0.00    +0.037 A 
ATOM     23  C   UNL     1       3.912   0.886  23.346  0.00  0.00    +0.061 A 
ATOM     24  C   UNL     1       3.477  -1.478  23.589  0.00  0.00    +0.023 A 
ATOM     25  C   UNL     1       5.270   0.659  23.573  0.00  0.00    +0.125 A 
ATOM     26  C   UNL     1       4.835  -1.705  23.815  0.00  0.00    +0.005 A 
ATOM     27  C   UNL     1       5.731  -0.636  23.807  0.00  0.00    +0.038 A 
ENDBRANCH   9  21
ENDBRANCH  12   7
BRANCH  15  17
ATOM      4  O   UNL     1      -5.703   1.354  25.672  0.00  0.00    -0.271 OA
ATOM      8  N   UNL     1      -3.941   2.696  24.945  0.00  0.00    -0.311 N 
ATOM     17  C   UNL     1      -4.567   1.493  25.220  0.00  0.00    +0.240 C 
ATOM     31  H   UNL     1      -2.993   2.699  24.580  0.00  0.00    +0.149 HD
BRANCH   8  19
ATOM     19  C   UNL     1      -4.569   3.980  25.163  0.00  0.00    +0.113 C 
BRANCH  19  20
ATOM     20  C   UNL     1      -3.620   4.985  25.801  0.00  0.00    +0.114 C 
BRANCH  20  22
ATOM      6  O   UNL     1      -1.735   3.526  26.272  0.00  0.00    -0.276 OA
ATOM     10  N   UNL     1      -1.374   5.453  25.073  0.00  0.00    -0.329 N 
ATOM     22  C   UNL     1      -2.165   4.552  25.754  0.00  0.00    +0.212 C 
ATOM     33  H   UNL     1      -0.378   5.296  24.965  0.00  0.00    +0.145 HD
ATOM     34  H   UNL     1      -1.751   6.298  24.655  0.00  0.00    +0.145 HD
ENDBRANCH  20  22
ENDBRANCH  19  20
ENDBRANCH   8  19
ENDBRANCH  15  17
BRANCH  11   2
ATOM      2  O   UNL     1      -0.980  -1.353  25.621  0.00  0.00    -0.387 OA
ATOM     29  H   UNL     1      -1.301  -1.765  26.442  0.00  0.00    +0.210 HD
ENDBRANCH  11   2
BRANCH  13   3
ATOM      3  O   UNL     1      -4.020  -2.759  24.148  0.00  0.00    -0.389 OA
ATOM     30  H   UNL     1      -4.714  -2.125  23.904  0.00  0.00    +0.210 HD
ENDBRANCH  13   3
TORSDOF 8
ENDMDL
