MODEL 1
REMARK VINA RESULT:      -0.4      0.000      0.000
REMARK  Name = 45783627
REMARK  7 active torsions:
REMARK  status: ('A' for Active; 'I' for Inactive)
REMARK    1  A    between atoms: O_3  and  C_27
REMARK    2  A    between atoms: O_3  and  C_28
REMARK    3  A    between atoms: N_4  and  C_9
REMARK    4  A    between atoms: N_8  and  C_25
REMARK    5  A    between atoms: C_10  and  C_19
REMARK    6  A    between atoms: C_20  and  C_21
REMARK    7  A    between atoms: C_26  and  C_27
REMARK                            x       y       z     vdW  Elec       q    Type
REMARK                         _______ _______ _______ _____ _____    ______ ____
ROOT
ATOM      1  O   UNL     1      -2.057   3.201  24.443  0.00  0.00    -0.336 OA
ATOM      5  N   UNL     1      -1.623   1.138  23.686  0.00  0.00    -0.190 NA
ATOM      6  N   UNL     1      -0.668   3.132  24.274  0.00  0.00    -0.056 NA
ATOM     19  C   UNL     1      -2.541   1.986  24.075  0.00  0.00    +0.245 A 
ATOM     20  C   UNL     1      -0.490   1.886  23.826  0.00  0.00    +0.204 A 
ENDROOT
BRANCH  20  21
ATOM      7  N   UNL     1       3.180   1.728  23.249  0.00  0.00    -0.239 NA
ATOM     21  C   UNL     1       0.805   1.357  23.509  0.00  0.00    +0.041 A 
ATOM     22  C   UNL     1       0.970   0.020  23.167  0.00  0.00    +0.016 A 
ATOM     23  C   UNL     1       1.933   2.163  23.536  0.00  0.00    +0.124 A 
ATOM     24  C   UNL     1       2.238  -0.464  22.865  0.00  0.00    +0.044 A 
ATOM     25  C   UNL     1       3.300   0.423  22.920  0.00  0.00    +0.125 A 
BRANCH  25   8
ATOM      2  O   UNL     1       5.611  -0.267  24.720  0.00  0.00    -0.273 OA
ATOM      8  N   UNL     1       4.572  -0.075  22.614  0.00  0.00    -0.268 N 
ATOM     26  C   UNL     1       5.613  -0.380  23.497  0.00  0.00    +0.244 C 
ATOM     29  H   UNL     1       4.737  -0.226  21.622  0.00  0.00    +0.156 HD
BRANCH  26  27
ATOM     27  C   UNL     1       6.841  -0.890  22.775  0.00  0.00    +0.255 C 
BRANCH  27   3
ATOM      3  O   UNL     1       7.805   0.141  22.730  0.00  0.00    -0.374 OA
ATOM     28  C   UNL     1       9.107  -0.336  23.050  0.00  0.00    +0.194 C 
ENDBRANCH  27   3
ENDBRANCH  26  27
ENDBRANCH  25   8
ENDBRANCH  20  21
BRANCH  19  10
ATOM      4  N   UNL     1      -4.455   1.110  25.403  0.00  0.00    -0.288 NA
ATOM     10  C   UNL     1      -4.042   1.802  24.166  0.00  0.00    +0.146 C 
ATOM     13  C   UNL     1      -5.797   1.598  25.722  0.00  0.00    +0.085 C 
ATOM     14  C   UNL     1      -4.803   3.141  24.194  0.00  0.00    +0.030 C 
ATOM     15  C   UNL     1      -5.662   3.082  25.449  0.00  0.00    +0.017 C 
BRANCH   4   9
ATOM      9  C   UNL     1      -4.412  -0.347  25.291  0.00  0.00    +0.057 C 
ATOM     11  C   UNL     1      -4.399  -0.754  23.813  0.00  0.00    +0.019 C 
ATOM     12  C   UNL     1      -3.183  -0.891  26.026  0.00  0.00    +0.019 C 
ATOM     16  C   UNL     1      -4.278  -2.269  23.655  0.00  0.00    +0.002 C 
ATOM     17  C   UNL     1      -3.064  -2.406  25.865  0.00  0.00    +0.002 C 
ATOM     18  C   UNL     1      -3.061  -2.817  24.395  0.00  0.00    +0.000 C 
ENDBRANCH   4   9
ENDBRANCH  19  10
TORSDOF 6
ENDMDL
MODEL 2
REMARK VINA RESULT:       3.5      1.812      3.511
REMARK  Name = 45783627
REMARK  7 active torsions:
REMARK  status: ('A' for Active; 'I' for Inactive)
REMARK    1  A    between atoms: O_3  and  C_27
REMARK    2  A    between atoms: O_3  and  C_28
REMARK    3  A    between atoms: N_4  and  C_9
REMARK    4  A    between atoms: N_8  and  C_25
REMARK    5  A    between atoms: C_10  and  C_19
REMARK    6  A    between atoms: C_20  and  C_21
REMARK    7  A    between atoms: C_26  and  C_27
REMARK                            x       y       z     vdW  Elec       q    Type
REMARK                         _______ _______ _______ _____ _____    ______ ____
ROOT
ATOM      1  O   UNL     1      -3.178  -0.531  24.386  0.00  0.00    -0.336 OA
ATOM      5  N   UNL     1      -1.847   1.254  24.629  0.00  0.00    -0.190 NA
ATOM      6  N   UNL     1      -1.921  -0.913  23.900  0.00  0.00    -0.056 NA
ATOM     19  C   UNL     1      -3.047   0.758  24.795  0.00  0.00    +0.245 A 
ATOM     20  C   UNL     1      -1.191   0.192  24.077  0.00  0.00    +0.204 A 
ENDROOT
BRANCH  20  21
ATOM      7  N   UNL     1       2.263   1.520  23.712  0.00  0.00    -0.239 NA
ATOM     21  C   UNL     1       0.194   0.270  23.712  0.00  0.00    +0.041 A 
ATOM     22  C   UNL     1       0.815  -0.771  23.031  0.00  0.00    +0.016 A 
ATOM     23  C   UNL     1       0.956   1.384  24.027  0.00  0.00    +0.124 A 
ATOM     24  C   UNL     1       2.159  -0.668  22.690  0.00  0.00    +0.044 A 
ATOM     25  C   UNL     1       2.832   0.488  23.051  0.00  0.00    +0.125 A 
BRANCH  25   8
ATOM      2  O   UNL     1       5.268  -0.718  24.342  0.00  0.00    -0.273 OA
ATOM      8  N   UNL     1       4.185   0.581  22.703  0.00  0.00    -0.268 N 
ATOM     26  C   UNL     1       5.281  -0.005  23.343  0.00  0.00    +0.244 C 
ATOM     29  H   UNL     1       4.369   1.150  21.880  0.00  0.00    +0.156 HD
BRANCH  26  27
ATOM     27  C   UNL     1       6.589   0.342  22.664  0.00  0.00    +0.255 C 
BRANCH  27   3
ATOM      3  O   UNL     1       7.461  -0.764  22.765  0.00  0.00    -0.374 OA
ATOM     28  C   UNL     1       8.801  -0.360  23.029  0.00  0.00    +0.194 C 
ENDBRANCH  27   3
ENDBRANCH  26  27
ENDBRANCH  25   8
ENDBRANCH  20  21
BRANCH  19  10
ATOM      4  N   UNL     1      -4.785   2.520  24.534  0.00  0.00    -0.288 NA
ATOM     10  C   UNL     1      -4.285   1.412  25.372  0.00  0.00    +0.146 C 
ATOM     13  C   UNL     1      -6.231   2.580  24.747  0.00  0.00    +0.085 C 
ATOM     14  C   UNL     1      -5.474   0.438  25.483  0.00  0.00    +0.030 C 
ATOM     15  C   UNL     1      -6.611   1.113  24.729  0.00  0.00    +0.017 C 
BRANCH   4   9
ATOM      9  C   UNL     1      -4.134   3.798  24.820  0.00  0.00    +0.057 C 
ATOM     11  C   UNL     1      -3.375   3.709  26.149  0.00  0.00    +0.019 C 
ATOM     12  C   UNL     1      -3.194   4.173  23.670  0.00  0.00    +0.019 C 
ATOM     16  C   UNL     1      -2.618   5.003  26.444  0.00  0.00    +0.002 C 
ATOM     17  C   UNL     1      -2.438   5.467  23.969  0.00  0.00    +0.002 C 
ATOM     18  C   UNL     1      -1.689   5.387  25.297  0.00  0.00    +0.000 C 
ENDBRANCH   4   9
ENDBRANCH  19  10
TORSDOF 6
ENDMDL
