MODEL 1
REMARK VINA RESULT:      -7.6      0.000      0.000
REMARK  Name = 38030116
REMARK  12 active torsions:
REMARK  status: ('A' for Active; 'I' for Inactive)
REMARK    1  A    between atoms: O_1  and  C_13
REMARK    2  A    between atoms: O_3  and  C_19
REMARK    3  A    between atoms: O_3  and  C_20
REMARK    4  A    between atoms: N_4  and  C_18
REMARK    5  A    between atoms: C_5  and  C_9
REMARK    6  A    between atoms: C_7  and  C_13
REMARK    7  A    between atoms: C_8  and  C_12
REMARK    8  A    between atoms: C_9  and  C_14
REMARK    9  A    between atoms: C_9  and  C_15
REMARK   10  A    between atoms: C_10  and  C_16
REMARK   11  A    between atoms: C_12  and  C_17
REMARK   12  A    between atoms: C_18  and  C_19
REMARK                            x       y       z     vdW  Elec       q    Type
REMARK                         _______ _______ _______ _____ _____    ______ ____
ROOT
ATOM      5  C   UNL     1      -3.224   0.647  24.816  0.00  0.00    +0.001 C 
ATOM      6  C   UNL     1      -1.810   0.593  25.415  0.00  0.00    +0.012 C 
ATOM      7  C   UNL     1      -3.954   1.936  25.268  0.00  0.00    +0.040 C 
ATOM      8  C   UNL     1      -0.955   1.807  25.003  0.00  0.00    +0.023 C 
ATOM     10  C   UNL     1      -1.712   3.110  25.169  0.00  0.00    -0.073 C 
ATOM     11  C   UNL     1      -3.050   3.147  25.299  0.00  0.00    -0.022 C 
ATOM     16  C   UNL     1      -0.890   4.366  25.227  0.00  0.00    +0.039 C 
ENDROOT
BRANCH   5   9
ATOM      9  C   UNL     1      -4.001  -0.614  25.208  0.00  0.00    -0.013 C 
ATOM     14  C   UNL     1      -4.299  -1.460  23.975  0.00  0.00    +0.007 C 
ATOM     15  C   UNL     1      -3.223  -1.419  26.243  0.00  0.00    +0.007 C 
ENDBRANCH   5   9
BRANCH   8  12
ATOM     12  C   UNL     1      -0.434   1.654  23.571  0.00  0.00    +0.103 C 
BRANCH  12  17
ATOM      2  O   UNL     1       0.211  -0.678  23.603  0.00  0.00    -0.276 OA
ATOM      4  N   UNL     1       1.801   0.942  23.110  0.00  0.00    -0.313 N 
ATOM     17  C   UNL     1       0.530   0.496  23.437  0.00  0.00    +0.214 C 
ATOM     22  H   UNL     1       1.970   1.937  22.994  0.00  0.00    +0.149 HD
BRANCH   4  18
ATOM     18  C   UNL     1       2.925   0.053  22.920  0.00  0.00    +0.132 C 
BRANCH  18  19
ATOM     19  C   UNL     1       4.202   0.821  22.633  0.00  0.00    +0.178 C 
BRANCH  19   3
ATOM      3  O   UNL     1       5.047   0.774  23.776  0.00  0.00    -0.381 OA
ATOM     20  C   UNL     1       5.438  -0.558  24.081  0.00  0.00    +0.194 C 
ENDBRANCH  19   3
ENDBRANCH  18  19
ENDBRANCH   4  18
ENDBRANCH  12  17
ENDBRANCH   8  12
BRANCH   7  13
ATOM     13  C   UNL     1      -5.166   2.227  24.375  0.00  0.00    +0.163 C 
BRANCH  13   1
ATOM      1  O   UNL     1      -6.338   1.996  25.132  0.00  0.00    -0.394 OA
ATOM     21  H   UNL     1      -6.866   2.812  25.101  0.00  0.00    +0.209 HD
ENDBRANCH  13   1
ENDBRANCH   7  13
TORSDOF 8
ENDMDL
MODEL 2
REMARK VINA RESULT:      -6.8      1.500      3.471
REMARK  Name = 38030116
REMARK  12 active torsions:
REMARK  status: ('A' for Active; 'I' for Inactive)
REMARK    1  A    between atoms: O_1  and  C_13
REMARK    2  A    between atoms: O_3  and  C_19
REMARK    3  A    between atoms: O_3  and  C_20
REMARK    4  A    between atoms: N_4  and  C_18
REMARK    5  A    between atoms: C_5  and  C_9
REMARK    6  A    between atoms: C_7  and  C_13
REMARK    7  A    between atoms: C_8  and  C_12
REMARK    8  A    between atoms: C_9  and  C_14
REMARK    9  A    between atoms: C_9  and  C_15
REMARK   10  A    between atoms: C_10  and  C_16
REMARK   11  A    between atoms: C_12  and  C_17
REMARK   12  A    between atoms: C_18  and  C_19
REMARK                            x       y       z     vdW  Elec       q    Type
REMARK                         _______ _______ _______ _____ _____    ______ ____
ROOT
ATOM      5  C   UNL     1      -3.568   2.280  24.812  0.00  0.00    +0.001 C 
ATOM      6  C   UNL     1      -2.741   1.621  23.697  0.00  0.00    +0.012 C 
ATOM      7  C   UNL     1      -4.998   1.685  24.846  0.00  0.00    +0.040 C 
ATOM      8  C   UNL     1      -2.630   0.095  23.877  0.00  0.00    +0.023 C 
ATOM     10  C   UNL     1      -3.974  -0.534  24.183  0.00  0.00    -0.073 C 
ATOM     11  C   UNL     1      -5.024   0.194  24.603  0.00  0.00    -0.022 C 
ATOM     16  C   UNL     1      -4.097  -2.014  23.953  0.00  0.00    +0.039 C 
ENDROOT
BRANCH   5   9
ATOM      9  C   UNL     1      -3.588   3.798  24.614  0.00  0.00    -0.013 C 
ATOM     14  C   UNL     1      -2.264   4.410  25.057  0.00  0.00    +0.007 C 
ATOM     15  C   UNL     1      -3.883   4.142  23.158  0.00  0.00    +0.007 C 
ENDBRANCH   5   9
BRANCH   8  12
ATOM     12  C   UNL     1      -1.599  -0.261  24.953  0.00  0.00    +0.103 C 
BRANCH  12  17
ATOM      2  O   UNL     1      -0.156   1.527  25.710  0.00  0.00    -0.276 OA
ATOM      4  N   UNL     1       0.419   0.321  23.810  0.00  0.00    -0.313 N 
ATOM     17  C   UNL     1      -0.384   0.637  24.895  0.00  0.00    +0.214 C 
ATOM     22  H   UNL     1       0.146  -0.434  23.187  0.00  0.00    +0.149 HD
BRANCH   4  18
ATOM     18  C   UNL     1       1.647   1.018  23.506  0.00  0.00    +0.132 C 
BRANCH  18  19
ATOM     19  C   UNL     1       2.608   0.142  22.723  0.00  0.00    +0.178 C 
BRANCH  19   3
ATOM      3  O   UNL     1       3.822   0.850  22.505  0.00  0.00    -0.381 OA
ATOM     20  C   UNL     1       4.902   0.263  23.217  0.00  0.00    +0.194 C 
ENDBRANCH  19   3
ENDBRANCH  18  19
ENDBRANCH   4  18
ENDBRANCH  12  17
ENDBRANCH   8  12
BRANCH   7  13
ATOM     13  C   UNL     1      -5.695   1.998  26.176  0.00  0.00    +0.163 C 
BRANCH  13   1
ATOM      1  O   UNL     1      -6.182   3.324  26.120  0.00  0.00    -0.394 OA
ATOM     21  H   UNL     1      -6.678   3.414  25.289  0.00  0.00    +0.209 HD
ENDBRANCH  13   1
ENDBRANCH   7  13
TORSDOF 8
ENDMDL
MODEL 3
REMARK VINA RESULT:      -6.3      2.427      6.324
REMARK  Name = 38030116
REMARK  12 active torsions:
REMARK  status: ('A' for Active; 'I' for Inactive)
REMARK    1  A    between atoms: O_1  and  C_13
REMARK    2  A    between atoms: O_3  and  C_19
REMARK    3  A    between atoms: O_3  and  C_20
REMARK    4  A    between atoms: N_4  and  C_18
REMARK    5  A    between atoms: C_5  and  C_9
REMARK    6  A    between atoms: C_7  and  C_13
REMARK    7  A    between atoms: C_8  and  C_12
REMARK    8  A    between atoms: C_9  and  C_14
REMARK    9  A    between atoms: C_9  and  C_15
REMARK   10  A    between atoms: C_10  and  C_16
REMARK   11  A    between atoms: C_12  and  C_17
REMARK   12  A    between atoms: C_18  and  C_19
REMARK                            x       y       z     vdW  Elec       q    Type
REMARK                         _______ _______ _______ _____ _____    ______ ____
ROOT
ATOM      5  C   UNL     1      -0.886   0.755  24.542  0.00  0.00    +0.001 C 
ATOM      6  C   UNL     1      -1.941   0.532  25.636  0.00  0.00    +0.012 C 
ATOM      7  C   UNL     1      -0.134  -0.565  24.238  0.00  0.00    +0.040 C 
ATOM      8  C   UNL     1      -2.976  -0.538  25.239  0.00  0.00    +0.023 C 
ATOM     10  C   UNL     1      -2.314  -1.779  24.673  0.00  0.00    -0.073 C 
ATOM     11  C   UNL     1      -1.040  -1.775  24.244  0.00  0.00    -0.022 C 
ATOM     16  C   UNL     1      -3.136  -3.036  24.655  0.00  0.00    +0.039 C 
ENDROOT
BRANCH   5   9
ATOM      9  C   UNL     1       0.073   1.871  24.968  0.00  0.00    -0.013 C 
ATOM     14  C   UNL     1      -0.061   3.072  24.038  0.00  0.00    +0.007 C 
ATOM     15  C   UNL     1      -0.188   2.275  26.415  0.00  0.00    +0.007 C 
ENDBRANCH   5   9
BRANCH   8  12
ATOM     12  C   UNL     1      -4.007   0.029  24.258  0.00  0.00    +0.103 C 
BRANCH  12  17
ATOM      2  O   UNL     1      -5.449   1.493  25.535  0.00  0.00    -0.276 OA
ATOM      4  N   UNL     1      -3.894   2.409  24.072  0.00  0.00    -0.313 N 
ATOM     17  C   UNL     1      -4.547   1.366  24.711  0.00  0.00    +0.214 C 
ATOM     22  H   UNL     1      -3.159   2.205  23.401  0.00  0.00    +0.149 HD
BRANCH   4  18
ATOM     18  C   UNL     1      -4.206   3.800  24.310  0.00  0.00    +0.132 C 
BRANCH  18  19
ATOM     19  C   UNL     1      -4.038   4.168  25.773  0.00  0.00    +0.178 C 
BRANCH  19   3
ATOM      3  O   UNL     1      -2.652   4.273  26.076  0.00  0.00    -0.381 OA
ATOM     20  C   UNL     1      -2.024   5.285  25.301  0.00  0.00    +0.194 C 
ENDBRANCH  19   3
ENDBRANCH  18  19
ENDBRANCH   4  18
ENDBRANCH  12  17
ENDBRANCH   8  12
BRANCH   7  13
ATOM     13  C   UNL     1       0.603  -0.484  22.896  0.00  0.00    +0.163 C 
BRANCH  13   1
ATOM      1  O   UNL     1       1.963  -0.198  23.155  0.00  0.00    -0.394 OA
ATOM     21  H   UNL     1       2.038   0.763  23.276  0.00  0.00    +0.209 HD
ENDBRANCH  13   1
ENDBRANCH   7  13
TORSDOF 8
ENDMDL
MODEL 4
REMARK VINA RESULT:      -5.5      2.341      5.867
REMARK  Name = 38030116
REMARK  12 active torsions:
REMARK  status: ('A' for Active; 'I' for Inactive)
REMARK    1  A    between atoms: O_1  and  C_13
REMARK    2  A    between atoms: O_3  and  C_19
REMARK    3  A    between atoms: O_3  and  C_20
REMARK    4  A    between atoms: N_4  and  C_18
REMARK    5  A    between atoms: C_5  and  C_9
REMARK    6  A    between atoms: C_7  and  C_13
REMARK    7  A    between atoms: C_8  and  C_12
REMARK    8  A    between atoms: C_9  and  C_14
REMARK    9  A    between atoms: C_9  and  C_15
REMARK   10  A    between atoms: C_10  and  C_16
REMARK   11  A    between atoms: C_12  and  C_17
REMARK   12  A    between atoms: C_18  and  C_19
REMARK                            x       y       z     vdW  Elec       q    Type
REMARK                         _______ _______ _______ _____ _____    ______ ____
ROOT
ATOM      5  C   UNL     1      -2.027  -0.027  24.779  0.00  0.00    +0.001 C 
ATOM      6  C   UNL     1      -1.890   1.206  23.874  0.00  0.00    +0.012 C 
ATOM      7  C   UNL     1      -1.104  -1.168  24.281  0.00  0.00    +0.040 C 
ATOM      8  C   UNL     1      -0.444   1.736  23.824  0.00  0.00    +0.023 C 
ATOM     10  C   UNL     1       0.557   0.619  23.602  0.00  0.00    -0.073 C 
ATOM     11  C   UNL     1       0.239  -0.672  23.799  0.00  0.00    -0.022 C 
ATOM     16  C   UNL     1       1.917   1.019  23.105  0.00  0.00    +0.039 C 
ENDROOT
BRANCH   5   9
ATOM      9  C   UNL     1      -3.493  -0.466  24.837  0.00  0.00    -0.013 C 
ATOM     14  C   UNL     1      -3.843  -1.317  23.621  0.00  0.00    +0.007 C 
ATOM     15  C   UNL     1      -3.770  -1.229  26.128  0.00  0.00    +0.007 C 
ENDBRANCH   5   9
BRANCH   8  12
ATOM     12  C   UNL     1      -0.105   2.534  25.087  0.00  0.00    +0.103 C 
BRANCH  12  17
ATOM      2  O   UNL     1      -0.767   4.857  24.943  0.00  0.00    -0.276 OA
ATOM      4  N   UNL     1      -2.215   3.311  25.899  0.00  0.00    -0.313 N 
ATOM     17  C   UNL     1      -1.037   3.708  25.285  0.00  0.00    +0.214 C 
ATOM     22  H   UNL     1      -2.347   2.335  26.146  0.00  0.00    +0.149 HD
BRANCH   4  18
ATOM     18  C   UNL     1      -3.288   4.226  26.213  0.00  0.00    +0.132 C 
BRANCH  18  19
ATOM     19  C   UNL     1      -4.541   3.914  25.414  0.00  0.00    +0.178 C 
BRANCH  19   3
ATOM      3  O   UNL     1      -5.259   2.867  26.055  0.00  0.00    -0.381 OA
ATOM     20  C   UNL     1      -5.897   2.018  25.110  0.00  0.00    +0.194 C 
ENDBRANCH  19   3
ENDBRANCH  18  19
ENDBRANCH   4  18
ENDBRANCH  12  17
ENDBRANCH   8  12
BRANCH   7  13
ATOM     13  C   UNL     1      -0.898  -2.226  25.371  0.00  0.00    +0.163 C 
BRANCH  13   1
ATOM      1  O   UNL     1       0.432  -2.124  25.841  0.00  0.00    -0.394 OA
ATOM     21  H   UNL     1       0.456  -1.394  26.482  0.00  0.00    +0.209 HD
ENDBRANCH  13   1
ENDBRANCH   7  13
TORSDOF 8
ENDMDL
MODEL 5
REMARK VINA RESULT:      -5.0      3.013      4.051
REMARK  Name = 38030116
REMARK  12 active torsions:
REMARK  status: ('A' for Active; 'I' for Inactive)
REMARK    1  A    between atoms: O_1  and  C_13
REMARK    2  A    between atoms: O_3  and  C_19
REMARK    3  A    between atoms: O_3  and  C_20
REMARK    4  A    between atoms: N_4  and  C_18
REMARK    5  A    between atoms: C_5  and  C_9
REMARK    6  A    between atoms: C_7  and  C_13
REMARK    7  A    between atoms: C_8  and  C_12
REMARK    8  A    between atoms: C_9  and  C_14
REMARK    9  A    between atoms: C_9  and  C_15
REMARK   10  A    between atoms: C_10  and  C_16
REMARK   11  A    between atoms: C_12  and  C_17
REMARK   12  A    between atoms: C_18  and  C_19
REMARK                            x       y       z     vdW  Elec       q    Type
REMARK                         _______ _______ _______ _____ _____    ______ ____
ROOT
ATOM      5  C   UNL     1      -3.445   2.043  24.720  0.00  0.00    +0.001 C 
ATOM      6  C   UNL     1      -3.404   3.070  25.862  0.00  0.00    +0.012 C 
ATOM      7  C   UNL     1      -3.123   2.726  23.368  0.00  0.00    +0.040 C 
ATOM      8  C   UNL     1      -2.031   3.759  25.979  0.00  0.00    +0.023 C 
ATOM     10  C   UNL     1      -1.520   4.226  24.630  0.00  0.00    -0.073 C 
ATOM     11  C   UNL     1      -2.029   3.763  23.475  0.00  0.00    -0.022 C 
ATOM     16  C   UNL     1      -0.440   5.270  24.641  0.00  0.00    +0.039 C 
ENDROOT
BRANCH   5   9
ATOM      9  C   UNL     1      -4.810   1.349  24.696  0.00  0.00    -0.013 C 
ATOM     14  C   UNL     1      -4.659  -0.135  25.016  0.00  0.00    +0.007 C 
ATOM     15  C   UNL     1      -5.766   2.019  25.677  0.00  0.00    +0.007 C 
ENDBRANCH   5   9
BRANCH   8  12
ATOM     12  C   UNL     1      -1.011   2.845  26.666  0.00  0.00    +0.103 C 
BRANCH  12  17
ATOM      2  O   UNL     1       0.665   2.237  25.031  0.00  0.00    -0.276 OA
ATOM      4  N   UNL     1      -0.962   0.691  25.630  0.00  0.00    -0.313 N 
ATOM     17  C   UNL     1      -0.325   1.921  25.686  0.00  0.00    +0.214 C 
ATOM     22  H   UNL     1      -1.778   0.522  26.211  0.00  0.00    +0.149 HD
BRANCH   4  18
ATOM     18  C   UNL     1      -0.522  -0.389  24.776  0.00  0.00    +0.132 C 
BRANCH  18  19
ATOM     19  C   UNL     1      -0.999  -1.736  25.287  0.00  0.00    +0.178 C 
BRANCH  19   3
ATOM      3  O   UNL     1      -1.626  -2.447  24.228  0.00  0.00    -0.381 OA
ATOM     20  C   UNL     1      -2.943  -2.850  24.578  0.00  0.00    +0.194 C 
ENDBRANCH  19   3
ENDBRANCH  18  19
ENDBRANCH   4  18
ENDBRANCH  12  17
ENDBRANCH   8  12
BRANCH   7  13
ATOM     13  C   UNL     1      -2.743   1.690  22.302  0.00  0.00    +0.163 C 
BRANCH  13   1
ATOM      1  O   UNL     1      -2.526   2.370  21.082  0.00  0.00    -0.394 OA
ATOM     21  H   UNL     1      -2.941   1.843  20.380  0.00  0.00    +0.209 HD
ENDBRANCH  13   1
ENDBRANCH   7  13
TORSDOF 8
ENDMDL
MODEL 6
REMARK VINA RESULT:      -4.9      2.736      4.449
REMARK  Name = 38030116
REMARK  12 active torsions:
REMARK  status: ('A' for Active; 'I' for Inactive)
REMARK    1  A    between atoms: O_1  and  C_13
REMARK    2  A    between atoms: O_3  and  C_19
REMARK    3  A    between atoms: O_3  and  C_20
REMARK    4  A    between atoms: N_4  and  C_18
REMARK    5  A    between atoms: C_5  and  C_9
REMARK    6  A    between atoms: C_7  and  C_13
REMARK    7  A    between atoms: C_8  and  C_12
REMARK    8  A    between atoms: C_9  and  C_14
REMARK    9  A    between atoms: C_9  and  C_15
REMARK   10  A    between atoms: C_10  and  C_16
REMARK   11  A    between atoms: C_12  and  C_17
REMARK   12  A    between atoms: C_18  and  C_19
REMARK                            x       y       z     vdW  Elec       q    Type
REMARK                         _______ _______ _______ _____ _____    ______ ____
ROOT
ATOM      5  C   UNL     1      -3.488   1.515  24.357  0.00  0.00    +0.001 C 
ATOM      6  C   UNL     1      -2.550   0.684  23.467  0.00  0.00    +0.012 C 
ATOM      7  C   UNL     1      -4.825   0.766  24.581  0.00  0.00    +0.040 C 
ATOM      8  C   UNL     1      -2.239  -0.696  24.077  0.00  0.00    +0.023 C 
ATOM     10  C   UNL     1      -3.494  -1.389  24.570  0.00  0.00    -0.073 C 
ATOM     11  C   UNL     1      -4.643  -0.722  24.777  0.00  0.00    -0.022 C 
ATOM     16  C   UNL     1      -3.410  -2.875  24.778  0.00  0.00    +0.039 C 
ENDROOT
BRANCH   5   9
ATOM      9  C   UNL     1      -3.708   2.895  23.730  0.00  0.00    -0.013 C 
ATOM     14  C   UNL     1      -3.161   3.987  24.644  0.00  0.00    +0.007 C 
ATOM     15  C   UNL     1      -3.056   2.965  22.354  0.00  0.00    +0.007 C 
ENDBRANCH   5   9
BRANCH   8  12
ATOM     12  C   UNL     1      -1.198  -0.584  25.195  0.00  0.00    +0.103 C 
BRANCH  12  17
ATOM      2  O   UNL     1       0.304   0.977  24.118  0.00  0.00    -0.276 OA
ATOM      4  N   UNL     1      -0.529   1.464  26.231  0.00  0.00    -0.313 N 
ATOM     17  C   UNL     1      -0.387   0.688  25.091  0.00  0.00    +0.214 C 
ATOM     22  H   UNL     1      -1.125   1.140  26.988  0.00  0.00    +0.149 HD
BRANCH   4  18
ATOM     18  C   UNL     1       0.134   2.735  26.409  0.00  0.00    +0.132 C 
BRANCH  18  19
ATOM     19  C   UNL     1       1.225   2.654  27.461  0.00  0.00    +0.178 C 
BRANCH  19   3
ATOM      3  O   UNL     1       0.641   2.366  28.725  0.00  0.00    -0.381 OA
ATOM     20  C   UNL     1       1.609   2.394  29.765  0.00  0.00    +0.194 C 
ENDBRANCH  19   3
ENDBRANCH  18  19
ENDBRANCH   4  18
ENDBRANCH  12  17
ENDBRANCH   8  12
BRANCH   7  13
ATOM     13  C   UNL     1      -5.591   1.348  25.774  0.00  0.00    +0.163 C 
BRANCH  13   1
ATOM      1  O   UNL     1      -6.743   2.006  25.283  0.00  0.00    -0.394 OA
ATOM     21  H   UNL     1      -7.516   1.515  25.607  0.00  0.00    +0.209 HD
ENDBRANCH  13   1
ENDBRANCH   7  13
TORSDOF 8
ENDMDL
MODEL 7
REMARK VINA RESULT:      -4.5      1.986      2.445
REMARK  Name = 38030116
REMARK  12 active torsions:
REMARK  status: ('A' for Active; 'I' for Inactive)
REMARK    1  A    between atoms: O_1  and  C_13
REMARK    2  A    between atoms: O_3  and  C_19
REMARK    3  A    between atoms: O_3  and  C_20
REMARK    4  A    between atoms: N_4  and  C_18
REMARK    5  A    between atoms: C_5  and  C_9
REMARK    6  A    between atoms: C_7  and  C_13
REMARK    7  A    between atoms: C_8  and  C_12
REMARK    8  A    between atoms: C_9  and  C_14
REMARK    9  A    between atoms: C_9  and  C_15
REMARK   10  A    between atoms: C_10  and  C_16
REMARK   11  A    between atoms: C_12  and  C_17
REMARK   12  A    between atoms: C_18  and  C_19
REMARK                            x       y       z     vdW  Elec       q    Type
REMARK                         _______ _______ _______ _____ _____    ______ ____
ROOT
ATOM      5  C   UNL     1      -3.009   1.586  24.276  0.00  0.00    +0.001 C 
ATOM      6  C   UNL     1      -2.845   2.029  25.738  0.00  0.00    +0.012 C 
ATOM      7  C   UNL     1      -3.493   2.770  23.403  0.00  0.00    +0.040 C 
ATOM      8  C   UNL     1      -1.839   3.187  25.887  0.00  0.00    +0.023 C 
ATOM     10  C   UNL     1      -2.089   4.284  24.871  0.00  0.00    -0.073 C 
ATOM     11  C   UNL     1      -2.841   4.082  23.774  0.00  0.00    -0.022 C 
ATOM     16  C   UNL     1      -1.492   5.630  25.167  0.00  0.00    +0.039 C 
ENDROOT
BRANCH   5   9
ATOM      9  C   UNL     1      -3.969   0.394  24.201  0.00  0.00    -0.013 C 
ATOM     14  C   UNL     1      -3.213  -0.912  24.418  0.00  0.00    +0.007 C 
ATOM     15  C   UNL     1      -5.089   0.548  25.224  0.00  0.00    +0.007 C 
ENDBRANCH   5   9
BRANCH   8  12
ATOM     12  C   UNL     1      -0.396   2.679  25.802  0.00  0.00    +0.103 C 
BRANCH  12  17
ATOM      2  O   UNL     1      -0.698   0.288  26.011  0.00  0.00    -0.276 OA
ATOM      4  N   UNL     1       0.215   1.159  24.061  0.00  0.00    -0.313 N 
ATOM     17  C   UNL     1      -0.325   1.243  25.335  0.00  0.00    +0.214 C 
ATOM     22  H   UNL     1       0.496   2.008  23.579  0.00  0.00    +0.149 HD
BRANCH   4  18
ATOM     18  C   UNL     1       0.403  -0.092  23.363  0.00  0.00    +0.132 C 
BRANCH  18  19
ATOM     19  C   UNL     1       1.705  -0.108  22.584  0.00  0.00    +0.178 C 
BRANCH  19   3
ATOM      3  O   UNL     1       2.570   0.900  23.092  0.00  0.00    -0.381 OA
ATOM     20  C   UNL     1       3.904   0.721  22.634  0.00  0.00    +0.194 C 
ENDBRANCH  19   3
ENDBRANCH  18  19
ENDBRANCH   4  18
ENDBRANCH  12  17
ENDBRANCH   8  12
BRANCH   7  13
ATOM     13  C   UNL     1      -3.262   2.489  21.913  0.00  0.00    +0.163 C 
BRANCH  13   1
ATOM      1  O   UNL     1      -1.991   1.886  21.768  0.00  0.00    -0.394 OA
ATOM     21  H   UNL     1      -1.799   1.414  22.596  0.00  0.00    +0.209 HD
ENDBRANCH  13   1
ENDBRANCH   7  13
TORSDOF 8
ENDMDL
MODEL 8
REMARK VINA RESULT:      -4.5      2.683      4.683
REMARK  Name = 38030116
REMARK  12 active torsions:
REMARK  status: ('A' for Active; 'I' for Inactive)
REMARK    1  A    between atoms: O_1  and  C_13
REMARK    2  A    between atoms: O_3  and  C_19
REMARK    3  A    between atoms: O_3  and  C_20
REMARK    4  A    between atoms: N_4  and  C_18
REMARK    5  A    between atoms: C_5  and  C_9
REMARK    6  A    between atoms: C_7  and  C_13
REMARK    7  A    between atoms: C_8  and  C_12
REMARK    8  A    between atoms: C_9  and  C_14
REMARK    9  A    between atoms: C_9  and  C_15
REMARK   10  A    between atoms: C_10  and  C_16
REMARK   11  A    between atoms: C_12  and  C_17
REMARK   12  A    between atoms: C_18  and  C_19
REMARK                            x       y       z     vdW  Elec       q    Type
REMARK                         _______ _______ _______ _____ _____    ______ ____
ROOT
ATOM      5  C   UNL     1      -2.576   3.098  24.499  0.00  0.00    +0.001 C 
ATOM      6  C   UNL     1      -2.413   1.680  25.067  0.00  0.00    +0.012 C 
ATOM      7  C   UNL     1      -2.251   4.155  25.584  0.00  0.00    +0.040 C 
ATOM      8  C   UNL     1      -0.986   1.420  25.589  0.00  0.00    +0.023 C 
ATOM     10  C   UNL     1      -0.490   2.559  26.458  0.00  0.00    -0.073 C 
ATOM     11  C   UNL     1      -1.076   3.769  26.452  0.00  0.00    -0.022 C 
ATOM     16  C   UNL     1       0.668   2.260  27.367  0.00  0.00    +0.039 C 
ENDROOT
BRANCH   5   9
ATOM      9  C   UNL     1      -3.991   3.272  23.941  0.00  0.00    -0.013 C 
ATOM     14  C   UNL     1      -3.989   3.105  22.425  0.00  0.00    +0.007 C 
ATOM     15  C   UNL     1      -4.948   2.281  24.593  0.00  0.00    +0.007 C 
ENDBRANCH   5   9
BRANCH   8  12
ATOM     12  C   UNL     1      -0.017   1.148  24.434  0.00  0.00    +0.103 C 
BRANCH  12  17
ATOM      2  O   UNL     1       0.463  -0.699  22.947  0.00  0.00    -0.276 OA
ATOM      4  N   UNL     1      -0.778  -1.075  24.875  0.00  0.00    -0.313 N 
ATOM     17  C   UNL     1      -0.065  -0.293  23.979  0.00  0.00    +0.214 C 
ATOM     22  H   UNL     1      -1.180  -0.648  25.704  0.00  0.00    +0.149 HD
BRANCH   4  18
ATOM     18  C   UNL     1      -0.986  -2.493  24.693  0.00  0.00    +0.132 C 
BRANCH  18  19
ATOM     19  C   UNL     1      -2.421  -2.802  24.304  0.00  0.00    +0.178 C 
BRANCH  19   3
ATOM      3  O   UNL     1      -3.292  -1.878  24.944  0.00  0.00    -0.381 OA
ATOM     20  C   UNL     1      -4.279  -1.386  24.048  0.00  0.00    +0.194 C 
ENDBRANCH  19   3
ENDBRANCH  18  19
ENDBRANCH   4  18
ENDBRANCH  12  17
ENDBRANCH   8  12
BRANCH   7  13
ATOM     13  C   UNL     1      -1.993   5.530  24.956  0.00  0.00    +0.163 C 
BRANCH  13   1
ATOM      1  O   UNL     1      -0.612   5.635  24.672  0.00  0.00    -0.394 OA
ATOM     21  H   UNL     1      -0.512   6.290  23.962  0.00  0.00    +0.209 HD
ENDBRANCH  13   1
ENDBRANCH   7  13
TORSDOF 8
ENDMDL
MODEL 9
REMARK VINA RESULT:      -4.1      3.383      6.350
REMARK  Name = 38030116
REMARK  12 active torsions:
REMARK  status: ('A' for Active; 'I' for Inactive)
REMARK    1  A    between atoms: O_1  and  C_13
REMARK    2  A    between atoms: O_3  and  C_19
REMARK    3  A    between atoms: O_3  and  C_20
REMARK    4  A    between atoms: N_4  and  C_18
REMARK    5  A    between atoms: C_5  and  C_9
REMARK    6  A    between atoms: C_7  and  C_13
REMARK    7  A    between atoms: C_8  and  C_12
REMARK    8  A    between atoms: C_9  and  C_14
REMARK    9  A    between atoms: C_9  and  C_15
REMARK   10  A    between atoms: C_10  and  C_16
REMARK   11  A    between atoms: C_12  and  C_17
REMARK   12  A    between atoms: C_18  and  C_19
REMARK                            x       y       z     vdW  Elec       q    Type
REMARK                         _______ _______ _______ _____ _____    ______ ____
ROOT
ATOM      5  C   UNL     1      -1.479   1.363  25.319  0.00  0.00    +0.001 C 
ATOM      6  C   UNL     1      -1.147   0.233  26.305  0.00  0.00    +0.012 C 
ATOM      7  C   UNL     1      -0.856   1.071  23.932  0.00  0.00    +0.040 C 
ATOM      8  C   UNL     1      -1.662  -1.136  25.818  0.00  0.00    +0.023 C 
ATOM     10  C   UNL     1      -1.314  -1.382  24.363  0.00  0.00    -0.073 C 
ATOM     11  C   UNL     1      -0.944  -0.386  23.540  0.00  0.00    -0.022 C 
ATOM     16  C   UNL     1      -1.359  -2.807  23.889  0.00  0.00    +0.039 C 
ENDROOT
BRANCH   5   9
ATOM      9  C   UNL     1      -1.000   2.703  25.887  0.00  0.00    -0.013 C 
ATOM     14  C   UNL     1       0.294   2.516  26.671  0.00  0.00    +0.007 C 
ATOM     15  C   UNL     1      -0.813   3.720  24.767  0.00  0.00    +0.007 C 
ENDBRANCH   5   9
BRANCH   8  12
ATOM     12  C   UNL     1      -3.169  -1.274  26.053  0.00  0.00    +0.103 C 
BRANCH  12  17
ATOM      2  O   UNL     1      -4.156  -0.894  23.877  0.00  0.00    -0.276 OA
ATOM      4  N   UNL     1      -4.475   0.668  25.567  0.00  0.00    -0.313 N 
ATOM     17  C   UNL     1      -3.977  -0.509  25.030  0.00  0.00    +0.214 C 
ATOM     22  H   UNL     1      -4.273   0.903  26.534  0.00  0.00    +0.149 HD
BRANCH   4  18
ATOM     18  C   UNL     1      -5.284   1.599  24.814  0.00  0.00    +0.132 C 
BRANCH  18  19
ATOM     19  C   UNL     1      -6.180   2.422  25.721  0.00  0.00    +0.178 C 
BRANCH  19   3
ATOM      3  O   UNL     1      -5.769   3.782  25.683  0.00  0.00    -0.381 OA
ATOM     20  C   UNL     1      -4.434   3.910  25.211  0.00  0.00    +0.194 C 
ENDBRANCH  19   3
ENDBRANCH  18  19
ENDBRANCH   4  18
ENDBRANCH  12  17
ENDBRANCH   8  12
BRANCH   7  13
ATOM     13  C   UNL     1      -1.504   1.933  22.842  0.00  0.00    +0.163 C 
BRANCH  13   1
ATOM      1  O   UNL     1      -2.879   1.609  22.781  0.00  0.00    -0.394 OA
ATOM     21  H   UNL     1      -2.951   0.643  22.852  0.00  0.00    +0.209 HD
ENDBRANCH  13   1
ENDBRANCH   7  13
TORSDOF 8
ENDMDL
MODEL 10
REMARK VINA RESULT:      -4.0      2.043      2.649
REMARK  Name = 38030116
REMARK  12 active torsions:
REMARK  status: ('A' for Active; 'I' for Inactive)
REMARK    1  A    between atoms: O_1  and  C_13
REMARK    2  A    between atoms: O_3  and  C_19
REMARK    3  A    between atoms: O_3  and  C_20
REMARK    4  A    between atoms: N_4  and  C_18
REMARK    5  A    between atoms: C_5  and  C_9
REMARK    6  A    between atoms: C_7  and  C_13
REMARK    7  A    between atoms: C_8  and  C_12
REMARK    8  A    between atoms: C_9  and  C_14
REMARK    9  A    between atoms: C_9  and  C_15
REMARK   10  A    between atoms: C_10  and  C_16
REMARK   11  A    between atoms: C_12  and  C_17
REMARK   12  A    between atoms: C_18  and  C_19
REMARK                            x       y       z     vdW  Elec       q    Type
REMARK                         _______ _______ _______ _____ _____    ______ ____
ROOT
ATOM      5  C   UNL     1      -2.521   2.581  24.338  0.00  0.00    +0.001 C 
ATOM      6  C   UNL     1      -1.775   1.263  24.598  0.00  0.00    +0.012 C 
ATOM      7  C   UNL     1      -2.661   3.392  25.650  0.00  0.00    +0.040 C 
ATOM      8  C   UNL     1      -0.367   1.495  25.181  0.00  0.00    +0.023 C 
ATOM     10  C   UNL     1      -0.387   2.498  26.317  0.00  0.00    -0.073 C 
ATOM     11  C   UNL     1      -1.426   3.328  26.519  0.00  0.00    -0.022 C 
ATOM     16  C   UNL     1       0.796   2.494  27.243  0.00  0.00    +0.039 C 
ENDROOT
BRANCH   5   9
ATOM      9  C   UNL     1      -3.883   2.288  23.702  0.00  0.00    -0.013 C 
ATOM     14  C   UNL     1      -4.957   2.167  24.778  0.00  0.00    +0.007 C 
ATOM     15  C   UNL     1      -4.246   3.373  22.695  0.00  0.00    +0.007 C 
ENDBRANCH   5   9
BRANCH   8  12
ATOM     12  C   UNL     1       0.618   1.922  24.089  0.00  0.00    +0.103 C 
BRANCH  12  17
ATOM      2  O   UNL     1       0.687  -0.323  23.189  0.00  0.00    -0.276 OA
ATOM      4  N   UNL     1       2.590   1.006  23.094  0.00  0.00    -0.313 N 
ATOM     17  C   UNL     1       1.268   0.735  23.414  0.00  0.00    +0.214 C 
ATOM     22  H   UNL     1       2.985   1.914  23.320  0.00  0.00    +0.149 HD
BRANCH   4  18
ATOM     18  C   UNL     1       3.456   0.051  22.441  0.00  0.00    +0.132 C 
BRANCH  18  19
ATOM     19  C   UNL     1       4.919   0.423  22.602  0.00  0.00    +0.178 C 
BRANCH  19   3
ATOM      3  O   UNL     1       5.210   0.600  23.983  0.00  0.00    -0.381 OA
ATOM     20  C   UNL     1       5.582  -0.625  24.599  0.00  0.00    +0.194 C 
ENDBRANCH  19   3
ENDBRANCH  18  19
ENDBRANCH   4  18
ENDBRANCH  12  17
ENDBRANCH   8  12
BRANCH   7  13
ATOM     13  C   UNL     1      -3.007   4.857  25.360  0.00  0.00    +0.163 C 
BRANCH  13   1
ATOM      1  O   UNL     1      -1.798   5.583  25.246  0.00  0.00    -0.394 OA
ATOM     21  H   UNL     1      -1.960   6.470  25.608  0.00  0.00    +0.209 HD
ENDBRANCH  13   1
ENDBRANCH   7  13
TORSDOF 8
ENDMDL
