MODEL 1
REMARK VINA RESULT:      -6.0      0.000      0.000
REMARK  Name = 75536975
REMARK  4 active torsions:
REMARK  status: ('A' for Active; 'I' for Inactive)
REMARK    1  A    between atoms: S_1  and  N_6
REMARK    2  A    between atoms: S_1  and  C_16
REMARK    3  A    between atoms: N_7  and  C_15
REMARK    4  A    between atoms: C_15  and  C_17
REMARK                            x       y       z     vdW  Elec       q    Type
REMARK                         _______ _______ _______ _____ _____    ______ ____
ROOT
ATOM      2  O   UNL     1      -1.364 -10.429  14.703  0.00  0.00    -0.252 OA
ATOM      5  N   UNL     1      -3.020 -10.538  13.039  0.00  0.00    -0.278 N 
ATOM      6  N   UNL     1      -4.383  -9.876  10.689  0.00  0.00    -0.178 NA
ATOM      7  N   UNL     1      -3.664 -10.613  15.189  0.00  0.00    -0.279 N 
ATOM      9  C   UNL     1      -4.451 -10.766  12.982  0.00  0.00    +0.111 C 
ATOM     10  C   UNL     1      -5.106  -9.799  12.002  0.00  0.00    +0.133 C 
ATOM     11  C   UNL     1      -4.903 -10.606  14.431  0.00  0.00    +0.133 C 
ATOM     12  C   UNL     1      -2.255 -10.466  11.809  0.00  0.00    +0.127 C 
ATOM     13  C   UNL     1      -2.932  -9.513  10.829  0.00  0.00    +0.128 C 
ATOM     14  C   UNL     1      -2.534 -10.519  14.353  0.00  0.00    +0.305 C 
ENDROOT
BRANCH   6   1
ATOM      1  S   UNL     1      -5.193  -9.145   9.367  0.00  0.00    +0.029 S 
ATOM      3  O   UNL     1      -4.633  -9.662   8.138  0.00  0.00    -0.158 OA
ATOM      4  O   UNL     1      -5.300  -7.725   9.617  0.00  0.00    -0.158 OA
ATOM     16  C   UNL     1      -6.798  -9.865   9.586  0.00  0.00    +0.215 C 
ENDBRANCH   6   1
BRANCH   7  15
ATOM     15  C   UNL     1      -3.651 -10.587  16.635  0.00  0.00    +0.146 C 
BRANCH  15  17
ATOM      8  N   UNL     1      -7.223  -9.380  16.930  0.00  0.00    -0.263 NA
ATOM     17  C   UNL     1      -5.015 -10.327  17.205  0.00  0.00    -0.012 A 
ATOM     18  C   UNL     1      -5.352 -10.759  18.483  0.00  0.00    +0.008 A 
ATOM     19  C   UNL     1      -5.978  -9.648  16.475  0.00  0.00    +0.115 A 
ATOM     20  C   UNL     1      -6.624 -10.504  18.985  0.00  0.00    +0.020 A 
ATOM     21  C   UNL     1      -7.515  -9.816  18.176  0.00  0.00    +0.111 A 
ENDBRANCH  15  17
ENDBRANCH   7  15
TORSDOF 3
ENDMDL
MODEL 2
REMARK VINA RESULT:      -5.5     15.041     16.973
REMARK  Name = 75536975
REMARK  4 active torsions:
REMARK  status: ('A' for Active; 'I' for Inactive)
REMARK    1  A    between atoms: S_1  and  N_6
REMARK    2  A    between atoms: S_1  and  C_16
REMARK    3  A    between atoms: N_7  and  C_15
REMARK    4  A    between atoms: C_15  and  C_17
REMARK                            x       y       z     vdW  Elec       q    Type
REMARK                         _______ _______ _______ _____ _____    ______ ____
ROOT
ATOM      2  O   UNL     1      -0.503  -1.847  23.554  0.00  0.00    -0.252 OA
ATOM      5  N   UNL     1      -1.077   0.222  24.511  0.00  0.00    -0.278 N 
ATOM      6  N   UNL     1      -2.712   2.346  25.307  0.00  0.00    -0.178 NA
ATOM      7  N   UNL     1       0.740   0.124  23.195  0.00  0.00    -0.279 N 
ATOM      9  C   UNL     1      -0.496   1.547  24.595  0.00  0.00    +0.111 C 
ATOM     10  C   UNL     1      -1.564   2.613  24.378  0.00  0.00    +0.133 C 
ATOM     11  C   UNL     1       0.609   1.529  23.542  0.00  0.00    +0.133 C 
ATOM     12  C   UNL     1      -2.269  -0.090  25.276  0.00  0.00    +0.127 C 
ATOM     13  C   UNL     1      -3.321   0.995  25.067  0.00  0.00    +0.128 C 
ATOM     14  C   UNL     1      -0.305  -0.652  23.734  0.00  0.00    +0.305 C 
ENDROOT
BRANCH   6   1
ATOM      1  S   UNL     1      -3.832   3.633  25.470  0.00  0.00    +0.029 S 
ATOM      3  O   UNL     1      -3.990   4.275  24.184  0.00  0.00    -0.158 OA
ATOM      4  O   UNL     1      -3.505   4.383  26.661  0.00  0.00    -0.158 OA
ATOM     16  C   UNL     1      -5.299   2.691  25.798  0.00  0.00    +0.215 C 
ENDBRANCH   6   1
BRANCH   7  15
ATOM     15  C   UNL     1       1.764  -0.348  22.289  0.00  0.00    +0.146 C 
BRANCH  15  17
ATOM      8  N   UNL     1       4.885  -1.392  24.154  0.00  0.00    -0.263 NA
ATOM     17  C   UNL     1       3.131  -0.288  22.907  0.00  0.00    -0.012 A 
ATOM     18  C   UNL     1       3.904   0.865  22.828  0.00  0.00    +0.008 A 
ATOM     19  C   UNL     1       3.663  -1.380  23.575  0.00  0.00    +0.115 A 
ATOM     20  C   UNL     1       5.166   0.892  23.411  0.00  0.00    +0.020 A 
ATOM     21  C   UNL     1       5.607  -0.253  24.057  0.00  0.00    +0.111 A 
ENDBRANCH  15  17
ENDBRANCH   7  15
TORSDOF 3
ENDMDL
MODEL 3
REMARK VINA RESULT:      -5.1      1.659      2.312
REMARK  Name = 75536975
REMARK  4 active torsions:
REMARK  status: ('A' for Active; 'I' for Inactive)
REMARK    1  A    between atoms: S_1  and  N_6
REMARK    2  A    between atoms: S_1  and  C_16
REMARK    3  A    between atoms: N_7  and  C_15
REMARK    4  A    between atoms: C_15  and  C_17
REMARK                            x       y       z     vdW  Elec       q    Type
REMARK                         _______ _______ _______ _____ _____    ______ ____
ROOT
ATOM      2  O   UNL     1      -3.384 -10.499  16.431  0.00  0.00    -0.252 OA
ATOM      5  N   UNL     1      -4.418 -10.583  14.323  0.00  0.00    -0.278 N 
ATOM      6  N   UNL     1      -4.826 -10.039  11.611  0.00  0.00    -0.178 NA
ATOM      7  N   UNL     1      -5.714 -10.290  16.134  0.00  0.00    -0.279 N 
ATOM      9  C   UNL     1      -5.774 -10.610  13.809  0.00  0.00    +0.111 C 
ATOM     10  C   UNL     1      -5.903  -9.693  12.598  0.00  0.00    +0.133 C 
ATOM     11  C   UNL     1      -6.627 -10.203  15.008  0.00  0.00    +0.133 C 
ATOM     12  C   UNL     1      -3.303 -10.779  13.417  0.00  0.00    +0.127 C 
ATOM     13  C   UNL     1      -3.455  -9.872  12.200  0.00  0.00    +0.128 C 
ATOM     14  C   UNL     1      -4.379 -10.465  15.719  0.00  0.00    +0.305 C 
ENDROOT
BRANCH   6   1
ATOM      1  S   UNL     1      -5.033  -9.376  10.044  0.00  0.00    +0.029 S 
ATOM      3  O   UNL     1      -3.971  -9.863   9.191  0.00  0.00    -0.158 OA
ATOM      4  O   UNL     1      -5.319  -7.965  10.173  0.00  0.00    -0.158 OA
ATOM     16  C   UNL     1      -6.532 -10.203   9.582  0.00  0.00    +0.215 C 
ENDBRANCH   6   1
BRANCH   7  15
ATOM     15  C   UNL     1      -6.155 -10.081  17.496  0.00  0.00    +0.146 C 
BRANCH  15  17
ATOM      8  N   UNL     1      -9.795 -10.636  18.359  0.00  0.00    -0.263 NA
ATOM     17  C   UNL     1      -7.639  -9.868  17.579  0.00  0.00    -0.012 A 
ATOM     18  C   UNL     1      -8.240  -8.764  16.985  0.00  0.00    +0.008 A 
ATOM     19  C   UNL     1      -8.454 -10.767  18.248  0.00  0.00    +0.115 A 
ATOM     20  C   UNL     1      -9.617  -8.593  17.078  0.00  0.00    +0.020 A 
ATOM     21  C   UNL     1     -10.343  -9.550  17.769  0.00  0.00    +0.111 A 
ENDBRANCH  15  17
ENDBRANCH   7  15
TORSDOF 3
ENDMDL
MODEL 4
REMARK VINA RESULT:      -5.0     15.010     16.926
REMARK  Name = 75536975
REMARK  4 active torsions:
REMARK  status: ('A' for Active; 'I' for Inactive)
REMARK    1  A    between atoms: S_1  and  N_6
REMARK    2  A    between atoms: S_1  and  C_16
REMARK    3  A    between atoms: N_7  and  C_15
REMARK    4  A    between atoms: C_15  and  C_17
REMARK                            x       y       z     vdW  Elec       q    Type
REMARK                         _______ _______ _______ _____ _____    ______ ____
ROOT
ATOM      2  O   UNL     1      -0.421  -1.965  23.734  0.00  0.00    -0.252 OA
ATOM      5  N   UNL     1      -1.123   0.119  24.561  0.00  0.00    -0.278 N 
ATOM      6  N   UNL     1      -2.889   2.173  25.254  0.00  0.00    -0.178 NA
ATOM      7  N   UNL     1       0.668   0.058  23.207  0.00  0.00    -0.279 N 
ATOM      9  C   UNL     1      -0.637   1.485  24.540  0.00  0.00    +0.111 C 
ATOM     10  C   UNL     1      -1.783   2.455  24.279  0.00  0.00    +0.133 C 
ATOM     11  C   UNL     1       0.443   1.470  23.461  0.00  0.00    +0.133 C 
ATOM     12  C   UNL     1      -2.272  -0.221  25.378  0.00  0.00    +0.127 C 
ATOM     13  C   UNL     1      -3.404   0.769  25.123  0.00  0.00    +0.128 C 
ATOM     14  C   UNL     1      -0.306  -0.750  23.826  0.00  0.00    +0.305 C 
ENDROOT
BRANCH   6   1
ATOM      1  S   UNL     1      -4.095   3.386  25.358  0.00  0.00    +0.029 S 
ATOM      3  O   UNL     1      -5.264   2.822  25.996  0.00  0.00    -0.158 OA
ATOM      4  O   UNL     1      -4.176   4.069  24.087  0.00  0.00    -0.158 OA
ATOM     16  C   UNL     1      -3.306   4.471  26.517  0.00  0.00    +0.215 C 
ENDBRANCH   6   1
BRANCH   7  15
ATOM     15  C   UNL     1       1.704  -0.403  22.310  0.00  0.00    +0.146 C 
BRANCH  15  17
ATOM      8  N   UNL     1       5.003   1.112  23.370  0.00  0.00    -0.263 NA
ATOM     17  C   UNL     1       3.072  -0.270  22.914  0.00  0.00    -0.012 A 
ATOM     18  C   UNL     1       3.680  -1.343  23.555  0.00  0.00    +0.008 A 
ATOM     19  C   UNL     1       3.769   0.926  22.849  0.00  0.00    +0.115 A 
ATOM     20  C   UNL     1       4.948  -1.191  24.105  0.00  0.00    +0.020 A 
ATOM     21  C   UNL     1       5.562   0.046  23.986  0.00  0.00    +0.111 A 
ENDBRANCH  15  17
ENDBRANCH   7  15
TORSDOF 3
ENDMDL
MODEL 5
REMARK VINA RESULT:      -3.1      2.386      3.360
REMARK  Name = 75536975
REMARK  4 active torsions:
REMARK  status: ('A' for Active; 'I' for Inactive)
REMARK    1  A    between atoms: S_1  and  N_6
REMARK    2  A    between atoms: S_1  and  C_16
REMARK    3  A    between atoms: N_7  and  C_15
REMARK    4  A    between atoms: C_15  and  C_17
REMARK                            x       y       z     vdW  Elec       q    Type
REMARK                         _______ _______ _______ _____ _____    ______ ____
ROOT
ATOM      2  O   UNL     1      -4.239  -9.976  17.613  0.00  0.00    -0.252 OA
ATOM      5  N   UNL     1      -4.360 -10.504  15.326  0.00  0.00    -0.278 N 
ATOM      6  N   UNL     1      -3.688 -10.448  12.613  0.00  0.00    -0.178 NA
ATOM      7  N   UNL     1      -6.271 -10.060  16.420  0.00  0.00    -0.279 N 
ATOM      9  C   UNL     1      -5.403 -10.754  14.351  0.00  0.00    +0.111 C 
ATOM     10  C   UNL     1      -5.077 -10.062  13.032  0.00  0.00    +0.133 C 
ATOM     11  C   UNL     1      -6.671 -10.251  15.037  0.00  0.00    +0.133 C 
ATOM     12  C   UNL     1      -2.973 -10.726  14.966  0.00  0.00    +0.127 C 
ATOM     13  C   UNL     1      -2.665 -10.047  13.635  0.00  0.00    +0.128 C 
ATOM     14  C   UNL     1      -4.875 -10.160  16.583  0.00  0.00    +0.305 C 
ENDROOT
BRANCH   6   1
ATOM      1  S   UNL     1      -3.285 -10.070  10.990  0.00  0.00    +0.029 S 
ATOM      3  O   UNL     1      -4.188 -10.781  10.111  0.00  0.00    -0.158 OA
ATOM      4  O   UNL     1      -1.850 -10.154  10.838  0.00  0.00    -0.158 OA
ATOM     16  C   UNL     1      -3.741  -8.356  10.977  0.00  0.00    +0.215 C 
ENDBRANCH   6   1
BRANCH   7  15
ATOM     15  C   UNL     1      -7.218  -9.682  17.446  0.00  0.00    +0.146 C 
BRANCH  15  17
ATOM      8  N   UNL     1     -10.106  -9.034  15.092  0.00  0.00    -0.263 NA
ATOM     17  C   UNL     1      -8.463  -9.077  16.865  0.00  0.00    -0.012 A 
ATOM     18  C   UNL     1      -9.121  -8.035  17.510  0.00  0.00    +0.008 A 
ATOM     19  C   UNL     1      -8.991  -9.536  15.669  0.00  0.00    +0.115 A 
ATOM     20  C   UNL     1     -10.272  -7.493  16.949  0.00  0.00    +0.020 A 
ATOM     21  C   UNL     1     -10.720  -8.023  15.748  0.00  0.00    +0.111 A 
ENDBRANCH  15  17
ENDBRANCH   7  15
TORSDOF 3
ENDMDL
