MODEL 1
REMARK VINA RESULT:      -2.5      0.000      0.000
REMARK  Name = 38029897
REMARK  11 active torsions:
REMARK  status: ('A' for Active; 'I' for Inactive)
REMARK    1  A    between atoms: N_5  and  C_21
REMARK    2  A    between atoms: C_7  and  C_11
REMARK    3  A    between atoms: C_9  and  C_15
REMARK    4  A    between atoms: C_10  and  C_14
REMARK    5  A    between atoms: C_11  and  C_16
REMARK    6  A    between atoms: C_11  and  C_17
REMARK    7  A    between atoms: C_12  and  C_18
REMARK    8  A    between atoms: C_14  and  C_19
REMARK    9  A    between atoms: C_15  and  C_20
REMARK   10  A    between atoms: C_21  and  C_22
REMARK   11  A    between atoms: C_27  and  C_28
REMARK                            x       y       z     vdW  Elec       q    Type
REMARK                         _______ _______ _______ _____ _____    ______ ____
ROOT
ATOM      4  O   UNL     1      -0.134   2.531  26.338  0.00  0.00    -0.276 OA
ATOM      5  N   UNL     1      -0.070   3.928  24.482  0.00  0.00    -0.311 N 
ATOM     19  C   UNL     1       0.282   2.804  25.214  0.00  0.00    +0.214 C 
ATOM     29  H   UNL     1       0.330   4.070  23.558  0.00  0.00    +0.149 HD
ENDROOT
BRANCH  19  14
ATOM     14  C   UNL     1       1.257   1.940  24.448  0.00  0.00    +0.103 C 
BRANCH  14  10
ATOM      7  C   UNL     1      -1.518   0.321  24.295  0.00  0.00    -0.000 C 
ATOM      8  C   UNL     1      -0.932   1.350  23.316  0.00  0.00    +0.012 C 
ATOM      9  C   UNL     1      -1.125  -1.115  23.869  0.00  0.00    +0.029 C 
ATOM     10  C   UNL     1       0.604   1.268  23.236  0.00  0.00    +0.023 C 
ATOM     12  C   UNL     1       1.084  -0.161  23.084  0.00  0.00    -0.073 C 
ATOM     13  C   UNL     1       0.293  -1.213  23.359  0.00  0.00    -0.023 C 
ATOM     18  C   UNL     1       2.482  -0.354  22.564  0.00  0.00    +0.039 C 
BRANCH   7  11
ATOM     11  C   UNL     1      -3.038   0.493  24.380  0.00  0.00    -0.013 C 
ATOM     16  C   UNL     1      -3.722  -0.250  23.236  0.00  0.00    +0.007 C 
ATOM     17  C   UNL     1      -3.555   0.003  25.729  0.00  0.00    +0.007 C 
ENDBRANCH   7  11
BRANCH   9  15
ATOM     15  C   UNL     1      -1.323  -2.108  25.021  0.00  0.00    +0.126 C 
BRANCH  15  20
ATOM      6  N   UNL     1      -3.515  -3.504  24.665  0.00  0.00    -0.197 NA
ATOM     20  C   UNL     1      -2.542  -2.892  24.826  0.00  0.00    +0.063 C 
ENDBRANCH  15  20
ENDBRANCH   9  15
ENDBRANCH  14  10
ENDBRANCH  19  14
BRANCH   5  21
ATOM     21  C   UNL     1      -0.991   4.930  24.967  0.00  0.00    +0.139 C 
BRANCH  21  22
ATOM     22  C   UNL     1      -2.373   4.377  25.162  0.00  0.00    -0.030 A 
ATOM     23  C   UNL     1      -3.144   4.020  24.056  0.00  0.00    +0.006 A 
ATOM     24  C   UNL     1      -2.886   4.219  26.450  0.00  0.00    +0.006 A 
ATOM     25  C   UNL     1      -4.428   3.506  24.237  0.00  0.00    +0.013 A 
ATOM     26  C   UNL     1      -4.169   3.704  26.631  0.00  0.00    +0.013 A 
ATOM     27  C   UNL     1      -4.941   3.348  25.525  0.00  0.00    +0.055 A 
BRANCH  27  28
ATOM      1  F   UNL     1      -6.714   1.961  24.714  0.00  0.00    -0.166 F 
ATOM      2  F   UNL     1      -7.266   3.768  25.791  0.00  0.00    -0.166 F 
ATOM      3  F   UNL     1      -6.450   2.062  26.865  0.00  0.00    -0.166 F 
ATOM     28  C   UNL     1      -6.312   2.795  25.719  0.00  0.00    +0.417 C 
ENDBRANCH  27  28
ENDBRANCH  21  22
ENDBRANCH   5  21
TORSDOF 8
ENDMDL
MODEL 2
REMARK VINA RESULT:      -2.4      2.888      4.756
REMARK  Name = 38029897
REMARK  11 active torsions:
REMARK  status: ('A' for Active; 'I' for Inactive)
REMARK    1  A    between atoms: N_5  and  C_21
REMARK    2  A    between atoms: C_7  and  C_11
REMARK    3  A    between atoms: C_9  and  C_15
REMARK    4  A    between atoms: C_10  and  C_14
REMARK    5  A    between atoms: C_11  and  C_16
REMARK    6  A    between atoms: C_11  and  C_17
REMARK    7  A    between atoms: C_12  and  C_18
REMARK    8  A    between atoms: C_14  and  C_19
REMARK    9  A    between atoms: C_15  and  C_20
REMARK   10  A    between atoms: C_21  and  C_22
REMARK   11  A    between atoms: C_27  and  C_28
REMARK                            x       y       z     vdW  Elec       q    Type
REMARK                         _______ _______ _______ _____ _____    ______ ____
ROOT
ATOM      4  O   UNL     1      -3.851   0.702  23.268  0.00  0.00    -0.276 OA
ATOM      5  N   UNL     1      -5.239   0.511  25.122  0.00  0.00    -0.311 N 
ATOM     19  C   UNL     1      -4.312   0.048  24.200  0.00  0.00    +0.214 C 
ATOM     29  H   UNL     1      -5.564  -0.107  25.860  0.00  0.00    +0.149 HD
ENDROOT
BRANCH  19  14
ATOM     14  C   UNL     1      -3.930  -1.386  24.488  0.00  0.00    +0.103 C 
BRANCH  14  10
ATOM      7  C   UNL     1      -1.380   0.572  24.588  0.00  0.00    -0.000 C 
ATOM      8  C   UNL     1      -2.151  -0.087  25.742  0.00  0.00    +0.012 C 
ATOM      9  C   UNL     1      -0.177  -0.309  24.169  0.00  0.00    +0.029 C 
ATOM     10  C   UNL     1      -2.678  -1.484  25.366  0.00  0.00    +0.023 C 
ATOM     12  C   UNL     1      -1.611  -2.327  24.697  0.00  0.00    -0.073 C 
ATOM     13  C   UNL     1      -0.494  -1.786  24.180  0.00  0.00    -0.023 C 
ATOM     18  C   UNL     1      -1.836  -3.814  24.677  0.00  0.00    +0.039 C 
BRANCH   7  11
ATOM     11  C   UNL     1      -0.937   1.981  24.998  0.00  0.00    -0.013 C 
ATOM     16  C   UNL     1      -0.137   1.931  26.296  0.00  0.00    +0.007 C 
ATOM     17  C   UNL     1      -0.121   2.628  23.883  0.00  0.00    +0.007 C 
ENDBRANCH   7  11
BRANCH   9  15
ATOM     15  C   UNL     1       0.347   0.091  22.785  0.00  0.00    +0.126 C 
BRANCH  15  20
ATOM      6  N   UNL     1       2.967   0.014  22.716  0.00  0.00    -0.197 NA
ATOM     20  C   UNL     1       1.808   0.041  22.749  0.00  0.00    +0.063 C 
ENDBRANCH  15  20
ENDBRANCH   9  15
ENDBRANCH  14  10
ENDBRANCH  19  14
BRANCH   5  21
ATOM     21  C   UNL     1      -5.781   1.850  25.092  0.00  0.00    +0.139 C 
BRANCH  21  22
ATOM     22  C   UNL     1      -4.702   2.893  25.036  0.00  0.00    -0.030 A 
ATOM     23  C   UNL     1      -4.068   3.305  26.208  0.00  0.00    +0.006 A 
ATOM     24  C   UNL     1      -4.333   3.449  23.810  0.00  0.00    +0.006 A 
ATOM     25  C   UNL     1      -3.066   4.273  26.155  0.00  0.00    +0.013 A 
ATOM     26  C   UNL     1      -3.330   4.416  23.758  0.00  0.00    +0.013 A 
ATOM     27  C   UNL     1      -2.696   4.829  24.930  0.00  0.00    +0.055 A 
BRANCH  27  28
ATOM      1  F   UNL     1      -1.869   6.952  25.657  0.00  0.00    -0.166 F 
ATOM      2  F   UNL     1      -1.430   6.351  23.613  0.00  0.00    -0.166 F 
ATOM      3  F   UNL     1      -0.400   5.403  25.278  0.00  0.00    -0.166 F 
ATOM     28  C   UNL     1      -1.622   5.861  24.873  0.00  0.00    +0.417 C 
ENDBRANCH  27  28
ENDBRANCH  21  22
ENDBRANCH   5  21
TORSDOF 8
ENDMDL
MODEL 3
REMARK VINA RESULT:      -2.3      4.039      7.229
REMARK  Name = 38029897
REMARK  11 active torsions:
REMARK  status: ('A' for Active; 'I' for Inactive)
REMARK    1  A    between atoms: N_5  and  C_21
REMARK    2  A    between atoms: C_7  and  C_11
REMARK    3  A    between atoms: C_9  and  C_15
REMARK    4  A    between atoms: C_10  and  C_14
REMARK    5  A    between atoms: C_11  and  C_16
REMARK    6  A    between atoms: C_11  and  C_17
REMARK    7  A    between atoms: C_12  and  C_18
REMARK    8  A    between atoms: C_14  and  C_19
REMARK    9  A    between atoms: C_15  and  C_20
REMARK   10  A    between atoms: C_21  and  C_22
REMARK   11  A    between atoms: C_27  and  C_28
REMARK                            x       y       z     vdW  Elec       q    Type
REMARK                         _______ _______ _______ _____ _____    ______ ____
ROOT
ATOM      4  O   UNL     1      -4.398  -1.701  23.863  0.00  0.00    -0.276 OA
ATOM      5  N   UNL     1      -2.397  -0.817  24.647  0.00  0.00    -0.311 N 
ATOM     19  C   UNL     1      -3.779  -0.929  24.590  0.00  0.00    +0.214 C 
ATOM     29  H   UNL     1      -1.975  -0.145  25.281  0.00  0.00    +0.149 HD
ENDROOT
BRANCH  19  14
ATOM     14  C   UNL     1      -4.441   0.033  25.551  0.00  0.00    +0.103 C 
BRANCH  14  10
ATOM      7  C   UNL     1      -3.075   2.546  24.079  0.00  0.00    -0.000 C 
ATOM      8  C   UNL     1      -4.263   1.680  23.633  0.00  0.00    +0.012 C 
ATOM      9  C   UNL     1      -3.574   3.789  24.856  0.00  0.00    +0.029 C 
ATOM     10  C   UNL     1      -5.114   1.202  24.824  0.00  0.00    +0.023 C 
ATOM     12  C   UNL     1      -5.424   2.332  25.785  0.00  0.00    -0.073 C 
ATOM     13  C   UNL     1      -4.733   3.486  25.775  0.00  0.00    -0.023 C 
ATOM     18  C   UNL     1      -6.576   2.123  26.727  0.00  0.00    +0.039 C 
BRANCH   7  11
ATOM     11  C   UNL     1      -2.232   2.937  22.861  0.00  0.00    -0.013 C 
ATOM     16  C   UNL     1      -0.751   2.967  23.227  0.00  0.00    +0.007 C 
ATOM     17  C   UNL     1      -2.484   1.972  21.707  0.00  0.00    +0.007 C 
ENDBRANCH   7  11
BRANCH   9  15
ATOM     15  C   UNL     1      -2.438   4.431  25.662  0.00  0.00    +0.126 C 
BRANCH  15  20
ATOM      6  N   UNL     1      -0.772   2.612  26.553  0.00  0.00    -0.197 NA
ATOM     20  C   UNL     1      -1.514   3.412  26.156  0.00  0.00    +0.063 C 
ENDBRANCH  15  20
ENDBRANCH   9  15
ENDBRANCH  14  10
ENDBRANCH  19  14
BRANCH   5  21
ATOM     21  C   UNL     1      -1.507  -1.617  23.839  0.00  0.00    +0.139 C 
BRANCH  21  22
ATOM     22  C   UNL     1      -0.223  -0.899  23.537  0.00  0.00    -0.030 A 
ATOM     23  C   UNL     1       0.246   0.087  24.405  0.00  0.00    +0.006 A 
ATOM     24  C   UNL     1       0.502  -1.219  22.388  0.00  0.00    +0.006 A 
ATOM     25  C   UNL     1       1.438   0.754  24.125  0.00  0.00    +0.013 A 
ATOM     26  C   UNL     1       1.694  -0.552  22.109  0.00  0.00    +0.013 A 
ATOM     27  C   UNL     1       2.163   0.434  22.977  0.00  0.00    +0.055 A 
BRANCH  27  28
ATOM      1  F   UNL     1       3.331   2.506  22.720  0.00  0.00    -0.166 F 
ATOM      2  F   UNL     1       3.925   0.854  21.437  0.00  0.00    -0.166 F 
ATOM      3  F   UNL     1       4.450   0.842  23.548  0.00  0.00    -0.166 F 
ATOM     28  C   UNL     1       3.439   1.145  22.679  0.00  0.00    +0.417 C 
ENDBRANCH  27  28
ENDBRANCH  21  22
ENDBRANCH   5  21
TORSDOF 8
ENDMDL
MODEL 4
REMARK VINA RESULT:      -1.9      3.357      5.676
REMARK  Name = 38029897
REMARK  11 active torsions:
REMARK  status: ('A' for Active; 'I' for Inactive)
REMARK    1  A    between atoms: N_5  and  C_21
REMARK    2  A    between atoms: C_7  and  C_11
REMARK    3  A    between atoms: C_9  and  C_15
REMARK    4  A    between atoms: C_10  and  C_14
REMARK    5  A    between atoms: C_11  and  C_16
REMARK    6  A    between atoms: C_11  and  C_17
REMARK    7  A    between atoms: C_12  and  C_18
REMARK    8  A    between atoms: C_14  and  C_19
REMARK    9  A    between atoms: C_15  and  C_20
REMARK   10  A    between atoms: C_21  and  C_22
REMARK   11  A    between atoms: C_27  and  C_28
REMARK                            x       y       z     vdW  Elec       q    Type
REMARK                         _______ _______ _______ _____ _____    ______ ____
ROOT
ATOM      4  O   UNL     1      -3.845   3.374  26.423  0.00  0.00    -0.276 OA
ATOM      5  N   UNL     1      -5.406   2.504  24.937  0.00  0.00    -0.311 N 
ATOM     19  C   UNL     1      -4.498   3.451  25.384  0.00  0.00    +0.214 C 
ATOM     29  H   UNL     1      -5.901   2.658  24.063  0.00  0.00    +0.149 HD
ENDROOT
BRANCH  19  14
ATOM     14  C   UNL     1      -4.404   4.613  24.420  0.00  0.00    +0.103 C 
BRANCH  14  10
ATOM      7  C   UNL     1      -2.205   2.302  24.004  0.00  0.00    -0.000 C 
ATOM      8  C   UNL     1      -2.661   3.403  23.034  0.00  0.00    +0.012 C 
ATOM      9  C   UNL     1      -0.969   2.770  24.812  0.00  0.00    +0.029 C 
ATOM     10  C   UNL     1      -3.022   4.709  23.766  0.00  0.00    +0.023 C 
ATOM     12  C   UNL     1      -1.967   5.097  24.782  0.00  0.00    -0.073 C 
ATOM     13  C   UNL     1      -1.050   4.221  25.228  0.00  0.00    -0.023 C 
ATOM     18  C   UNL     1      -1.962   6.529  25.240  0.00  0.00    +0.039 C 
BRANCH   7  11
ATOM     11  C   UNL     1      -1.922   1.012  23.228  0.00  0.00    -0.013 C 
ATOM     16  C   UNL     1      -2.313   1.176  21.763  0.00  0.00    +0.007 C 
ATOM     17  C   UNL     1      -0.451   0.626  23.355  0.00  0.00    +0.007 C 
ENDBRANCH   7  11
BRANCH   9  15
ATOM     15  C   UNL     1      -0.754   1.895  26.052  0.00  0.00    +0.126 C 
BRANCH  15  20
ATOM      6  N   UNL     1       1.291   2.764  27.445  0.00  0.00    -0.197 NA
ATOM     20  C   UNL     1       0.387   2.373  26.832  0.00  0.00    +0.063 C 
ENDBRANCH  15  20
ENDBRANCH   9  15
ENDBRANCH  14  10
ENDBRANCH  19  14
BRANCH   5  21
ATOM     21  C   UNL     1      -5.696   1.286  25.658  0.00  0.00    +0.139 C 
BRANCH  21  22
ATOM     22  C   UNL     1      -4.742   0.182  25.304  0.00  0.00    -0.030 A 
ATOM     23  C   UNL     1      -4.885  -0.502  24.097  0.00  0.00    +0.006 A 
ATOM     24  C   UNL     1      -3.713  -0.159  26.182  0.00  0.00    +0.006 A 
ATOM     25  C   UNL     1      -3.999  -1.528  23.768  0.00  0.00    +0.013 A 
ATOM     26  C   UNL     1      -2.826  -1.184  25.852  0.00  0.00    +0.013 A 
ATOM     27  C   UNL     1      -2.969  -1.869  24.645  0.00  0.00    +0.055 A 
BRANCH  27  28
ATOM      1  F   UNL     1      -1.092  -2.602  23.355  0.00  0.00    -0.166 F 
ATOM      2  F   UNL     1      -2.650  -4.060  23.779  0.00  0.00    -0.166 F 
ATOM      3  F   UNL     1      -1.292  -3.421  25.354  0.00  0.00    -0.166 F 
ATOM     28  C   UNL     1      -2.019  -2.962  24.291  0.00  0.00    +0.417 C 
ENDBRANCH  27  28
ENDBRANCH  21  22
ENDBRANCH   5  21
TORSDOF 8
ENDMDL
MODEL 5
REMARK VINA RESULT:      -1.8      3.597      6.999
REMARK  Name = 38029897
REMARK  11 active torsions:
REMARK  status: ('A' for Active; 'I' for Inactive)
REMARK    1  A    between atoms: N_5  and  C_21
REMARK    2  A    between atoms: C_7  and  C_11
REMARK    3  A    between atoms: C_9  and  C_15
REMARK    4  A    between atoms: C_10  and  C_14
REMARK    5  A    between atoms: C_11  and  C_16
REMARK    6  A    between atoms: C_11  and  C_17
REMARK    7  A    between atoms: C_12  and  C_18
REMARK    8  A    between atoms: C_14  and  C_19
REMARK    9  A    between atoms: C_15  and  C_20
REMARK   10  A    between atoms: C_21  and  C_22
REMARK   11  A    between atoms: C_27  and  C_28
REMARK                            x       y       z     vdW  Elec       q    Type
REMARK                         _______ _______ _______ _____ _____    ______ ____
ROOT
ATOM      4  O   UNL     1      -4.794  -0.702  23.998  0.00  0.00    -0.276 OA
ATOM      5  N   UNL     1      -3.894  -0.642  26.139  0.00  0.00    -0.311 N 
ATOM     19  C   UNL     1      -4.743  -0.221  25.127  0.00  0.00    +0.214 C 
ATOM     29  H   UNL     1      -3.923  -0.178  27.043  0.00  0.00    +0.149 HD
ENDROOT
BRANCH  19  14
ATOM     14  C   UNL     1      -5.616   0.924  25.590  0.00  0.00    +0.103 C 
BRANCH  14  10
ATOM      7  C   UNL     1      -3.074   2.175  24.066  0.00  0.00    -0.000 C 
ATOM      8  C   UNL     1      -4.493   1.906  23.541  0.00  0.00    +0.012 C 
ATOM      9  C   UNL     1      -2.960   3.626  24.595  0.00  0.00    +0.029 C 
ATOM     10  C   UNL     1      -5.565   2.115  24.628  0.00  0.00    +0.023 C 
ATOM     12  C   UNL     1      -5.357   3.413  25.382  0.00  0.00    -0.073 C 
ATOM     13  C   UNL     1      -4.191   4.081  25.345  0.00  0.00    -0.023 C 
ATOM     18  C   UNL     1      -6.537   3.950  26.143  0.00  0.00    +0.039 C 
BRANCH   7  11
ATOM     11  C   UNL     1      -2.051   1.890  22.962  0.00  0.00    -0.013 C 
ATOM     16  C   UNL     1      -2.627   2.251  21.596  0.00  0.00    +0.007 C 
ATOM     17  C   UNL     1      -0.758   2.657  23.224  0.00  0.00    +0.007 C 
ENDBRANCH   7  11
BRANCH   9  15
ATOM     15  C   UNL     1      -1.727   3.794  25.490  0.00  0.00    +0.126 C 
BRANCH  15  20
ATOM      6  N   UNL     1      -0.327   5.882  24.744  0.00  0.00    -0.197 NA
ATOM     20  C   UNL     1      -0.944   4.959  25.081  0.00  0.00    +0.063 C 
ENDBRANCH  15  20
ENDBRANCH   9  15
ENDBRANCH  14  10
ENDBRANCH  19  14
BRANCH   5  21
ATOM     21  C   UNL     1      -2.949  -1.723  25.979  0.00  0.00    +0.139 C 
BRANCH  21  22
ATOM     22  C   UNL     1      -1.745  -1.304  25.185  0.00  0.00    -0.030 A 
ATOM     23  C   UNL     1      -0.988  -0.206  25.592  0.00  0.00    +0.006 A 
ATOM     24  C   UNL     1      -1.383  -2.015  24.040  0.00  0.00    +0.006 A 
ATOM     25  C   UNL     1       0.130   0.183  24.853  0.00  0.00    +0.013 A 
ATOM     26  C   UNL     1      -0.265  -1.627  23.303  0.00  0.00    +0.013 A 
ATOM     27  C   UNL     1       0.492  -0.528  23.709  0.00  0.00    +0.055 A 
BRANCH  27  28
ATOM      1  F   UNL     1       1.503  -0.172  21.571  0.00  0.00    -0.166 F 
ATOM      2  F   UNL     1       2.779  -0.897  23.175  0.00  0.00    -0.166 F 
ATOM      3  F   UNL     1       2.093   1.167  23.172  0.00  0.00    -0.166 F 
ATOM     28  C   UNL     1       1.689  -0.115  22.923  0.00  0.00    +0.417 C 
ENDBRANCH  27  28
ENDBRANCH  21  22
ENDBRANCH   5  21
TORSDOF 8
ENDMDL
MODEL 6
REMARK VINA RESULT:      -1.5      4.736      7.206
REMARK  Name = 38029897
REMARK  11 active torsions:
REMARK  status: ('A' for Active; 'I' for Inactive)
REMARK    1  A    between atoms: N_5  and  C_21
REMARK    2  A    between atoms: C_7  and  C_11
REMARK    3  A    between atoms: C_9  and  C_15
REMARK    4  A    between atoms: C_10  and  C_14
REMARK    5  A    between atoms: C_11  and  C_16
REMARK    6  A    between atoms: C_11  and  C_17
REMARK    7  A    between atoms: C_12  and  C_18
REMARK    8  A    between atoms: C_14  and  C_19
REMARK    9  A    between atoms: C_15  and  C_20
REMARK   10  A    between atoms: C_21  and  C_22
REMARK   11  A    between atoms: C_27  and  C_28
REMARK                            x       y       z     vdW  Elec       q    Type
REMARK                         _______ _______ _______ _____ _____    ______ ____
ROOT
ATOM      4  O   UNL     1      -2.307   1.833  22.303  0.00  0.00    -0.276 OA
ATOM      5  N   UNL     1      -0.335   1.551  23.499  0.00  0.00    -0.311 N 
ATOM     19  C   UNL     1      -1.564   2.135  23.233  0.00  0.00    +0.214 C 
ATOM     29  H   UNL     1       0.212   1.871  24.293  0.00  0.00    +0.149 HD
ENDROOT
BRANCH  19  14
ATOM     14  C   UNL     1      -1.884   3.210  24.247  0.00  0.00    +0.103 C 
BRANCH  14  10
ATOM      7  C   UNL     1      -2.485   0.146  25.020  0.00  0.00    -0.000 C 
ATOM      8  C   UNL     1      -2.066   1.317  25.922  0.00  0.00    +0.012 C 
ATOM      9  C   UNL     1      -4.027   0.015  24.985  0.00  0.00    +0.029 C 
ATOM     10  C   UNL     1      -2.658   2.657  25.448  0.00  0.00    +0.023 C 
ATOM     12  C   UNL     1      -4.136   2.540  25.134  0.00  0.00    -0.073 C 
ATOM     13  C   UNL     1      -4.733   1.350  24.943  0.00  0.00    -0.023 C 
ATOM     18  C   UNL     1      -4.922   3.821  25.089  0.00  0.00    +0.039 C 
BRANCH   7  11
ATOM     11  C   UNL     1      -1.815  -1.146  25.502  0.00  0.00    -0.013 C 
ATOM     16  C   UNL     1      -1.030  -1.794  24.366  0.00  0.00    +0.007 C 
ATOM     17  C   UNL     1      -0.907  -0.861  26.694  0.00  0.00    +0.007 C 
ENDBRANCH   7  11
BRANCH   9  15
ATOM     15  C   UNL     1      -4.484  -0.841  23.798  0.00  0.00    +0.126 C 
BRANCH  15  20
ATOM      6  N   UNL     1      -4.024  -3.385  24.240  0.00  0.00    -0.197 NA
ATOM     20  C   UNL     1      -4.224  -2.258  24.050  0.00  0.00    +0.063 C 
ENDBRANCH  15  20
ENDBRANCH   9  15
ENDBRANCH  14  10
ENDBRANCH  19  14
BRANCH   5  21
ATOM     21  C   UNL     1       0.226   0.491  22.692  0.00  0.00    +0.139 C 
BRANCH  21  22
ATOM     22  C   UNL     1       1.701   0.326  22.926  0.00  0.00    -0.030 A 
ATOM     23  C   UNL     1       2.552   1.425  22.809  0.00  0.00    +0.006 A 
ATOM     24  C   UNL     1       2.218  -0.926  23.260  0.00  0.00    +0.006 A 
ATOM     25  C   UNL     1       3.921   1.271  23.027  0.00  0.00    +0.013 A 
ATOM     26  C   UNL     1       3.587  -1.078  23.479  0.00  0.00    +0.013 A 
ATOM     27  C   UNL     1       4.439   0.020  23.362  0.00  0.00    +0.055 A 
BRANCH  27  28
ATOM      1  F   UNL     1       6.589  -0.578  22.500  0.00  0.00    -0.166 F 
ATOM      2  F   UNL     1       6.178  -1.045  24.584  0.00  0.00    -0.166 F 
ATOM      3  F   UNL     1       6.528   1.013  23.973  0.00  0.00    -0.166 F 
ATOM     28  C   UNL     1       5.902  -0.142  23.598  0.00  0.00    +0.417 C 
ENDBRANCH  27  28
ENDBRANCH  21  22
ENDBRANCH   5  21
TORSDOF 8
ENDMDL
MODEL 7
REMARK VINA RESULT:      -1.4      2.942      5.470
REMARK  Name = 38029897
REMARK  11 active torsions:
REMARK  status: ('A' for Active; 'I' for Inactive)
REMARK    1  A    between atoms: N_5  and  C_21
REMARK    2  A    between atoms: C_7  and  C_11
REMARK    3  A    between atoms: C_9  and  C_15
REMARK    4  A    between atoms: C_10  and  C_14
REMARK    5  A    between atoms: C_11  and  C_16
REMARK    6  A    between atoms: C_11  and  C_17
REMARK    7  A    between atoms: C_12  and  C_18
REMARK    8  A    between atoms: C_14  and  C_19
REMARK    9  A    between atoms: C_15  and  C_20
REMARK   10  A    between atoms: C_21  and  C_22
REMARK   11  A    between atoms: C_27  and  C_28
REMARK                            x       y       z     vdW  Elec       q    Type
REMARK                         _______ _______ _______ _____ _____    ______ ____
ROOT
ATOM      4  O   UNL     1      -0.624   3.839  24.948  0.00  0.00    -0.276 OA
ATOM      5  N   UNL     1      -1.206   2.199  26.488  0.00  0.00    -0.311 N 
ATOM     19  C   UNL     1      -1.260   3.468  25.931  0.00  0.00    +0.214 C 
ATOM     29  H   UNL     1      -1.769   1.986  27.307  0.00  0.00    +0.149 HD
ENDROOT
BRANCH  19  14
ATOM     14  C   UNL     1      -2.216   4.356  26.696  0.00  0.00    +0.103 C 
BRANCH  14  10
ATOM      7  C   UNL     1      -4.434   2.481  25.312  0.00  0.00    -0.000 C 
ATOM      8  C   UNL     1      -4.610   3.805  26.070  0.00  0.00    +0.012 C 
ATOM      9  C   UNL     1      -4.293   2.743  23.792  0.00  0.00    +0.029 C 
ATOM     10  C   UNL     1      -3.426   4.765  25.848  0.00  0.00    +0.023 C 
ATOM     12  C   UNL     1      -3.052   4.868  24.383  0.00  0.00    -0.073 C 
ATOM     13  C   UNL     1      -3.459   3.963  23.477  0.00  0.00    -0.023 C 
ATOM     18  C   UNL     1      -2.235   6.063  23.976  0.00  0.00    +0.039 C 
BRANCH   7  11
ATOM     11  C   UNL     1      -5.608   1.546  25.621  0.00  0.00    -0.013 C 
ATOM     16  C   UNL     1      -6.220   1.891  26.976  0.00  0.00    +0.007 C 
ATOM     17  C   UNL     1      -6.657   1.625  24.517  0.00  0.00    +0.007 C 
ENDBRANCH   7  11
BRANCH   9  15
ATOM     15  C   UNL     1      -3.705   1.523  23.072  0.00  0.00    +0.126 C 
BRANCH  15  20
ATOM      6  N   UNL     1      -1.164   1.886  22.534  0.00  0.00    -0.197 NA
ATOM     20  C   UNL     1      -2.289   1.733  22.771  0.00  0.00    +0.063 C 
ENDBRANCH  15  20
ENDBRANCH   9  15
ENDBRANCH  14  10
ENDBRANCH  19  14
BRANCH   5  21
ATOM     21  C   UNL     1      -0.374   1.141  25.962  0.00  0.00    +0.139 C 
BRANCH  21  22
ATOM     22  C   UNL     1      -1.188  -0.029  25.486  0.00  0.00    -0.030 A 
ATOM     23  C   UNL     1      -2.503  -0.187  25.921  0.00  0.00    +0.006 A 
ATOM     24  C   UNL     1      -0.627  -0.956  24.606  0.00  0.00    +0.006 A 
ATOM     25  C   UNL     1      -3.257  -1.274  25.479  0.00  0.00    +0.013 A 
ATOM     26  C   UNL     1      -1.382  -2.041  24.163  0.00  0.00    +0.013 A 
ATOM     27  C   UNL     1      -2.698  -2.200  24.599  0.00  0.00    +0.055 A 
BRANCH  27  28
ATOM      1  F   UNL     1      -2.834  -4.179  23.262  0.00  0.00    -0.166 F 
ATOM      2  F   UNL     1      -4.634  -2.975  23.458  0.00  0.00    -0.166 F 
ATOM      3  F   UNL     1      -3.936  -4.177  25.130  0.00  0.00    -0.166 F 
ATOM     28  C   UNL     1      -3.506  -3.359  24.123  0.00  0.00    +0.417 C 
ENDBRANCH  27  28
ENDBRANCH  21  22
ENDBRANCH   5  21
TORSDOF 8
ENDMDL
MODEL 8
REMARK VINA RESULT:      -1.2      4.948      7.823
REMARK  Name = 38029897
REMARK  11 active torsions:
REMARK  status: ('A' for Active; 'I' for Inactive)
REMARK    1  A    between atoms: N_5  and  C_21
REMARK    2  A    between atoms: C_7  and  C_11
REMARK    3  A    between atoms: C_9  and  C_15
REMARK    4  A    between atoms: C_10  and  C_14
REMARK    5  A    between atoms: C_11  and  C_16
REMARK    6  A    between atoms: C_11  and  C_17
REMARK    7  A    between atoms: C_12  and  C_18
REMARK    8  A    between atoms: C_14  and  C_19
REMARK    9  A    between atoms: C_15  and  C_20
REMARK   10  A    between atoms: C_21  and  C_22
REMARK   11  A    between atoms: C_27  and  C_28
REMARK                            x       y       z     vdW  Elec       q    Type
REMARK                         _______ _______ _______ _____ _____    ______ ____
ROOT
ATOM      4  O   UNL     1      -0.193  -1.602  24.806  0.00  0.00    -0.276 OA
ATOM      5  N   UNL     1      -0.198  -0.063  23.065  0.00  0.00    -0.311 N 
ATOM     19  C   UNL     1      -0.595  -0.558  24.298  0.00  0.00    +0.214 C 
ATOM     29  H   UNL     1      -0.590   0.811  22.726  0.00  0.00    +0.149 HD
ENDROOT
BRANCH  19  14
ATOM     14  C   UNL     1      -1.602   0.360  24.953  0.00  0.00    +0.103 C 
BRANCH  14  10
ATOM      7  C   UNL     1      -3.133   3.187  25.077  0.00  0.00    -0.000 C 
ATOM      8  C   UNL     1      -2.434   2.505  23.891  0.00  0.00    +0.012 C 
ATOM      9  C   UNL     1      -4.640   2.830  25.094  0.00  0.00    +0.029 C 
ATOM     10  C   UNL     1      -2.571   0.972  23.936  0.00  0.00    +0.023 C 
ATOM     12  C   UNL     1      -3.997   0.543  24.219  0.00  0.00    -0.073 C 
ATOM     13  C   UNL     1      -4.911   1.390  24.724  0.00  0.00    -0.023 C 
ATOM     18  C   UNL     1      -4.360  -0.873  23.865  0.00  0.00    +0.039 C 
BRANCH   7  11
ATOM     11  C   UNL     1      -2.908   4.701  25.012  0.00  0.00    -0.013 C 
ATOM     16  C   UNL     1      -1.416   5.019  25.043  0.00  0.00    +0.007 C 
ATOM     17  C   UNL     1      -3.559   5.282  23.761  0.00  0.00    +0.007 C 
ENDBRANCH   7  11
BRANCH   9  15
ATOM     15  C   UNL     1      -5.265   3.131  26.461  0.00  0.00    +0.126 C 
BRANCH  15  20
ATOM      6  N   UNL     1      -7.035   1.301  27.089  0.00  0.00    -0.197 NA
ATOM     20  C   UNL     1      -6.249   2.110  26.817  0.00  0.00    +0.063 C 
ENDBRANCH  15  20
ENDBRANCH   9  15
ENDBRANCH  14  10
ENDBRANCH  19  14
BRANCH   5  21
ATOM     21  C   UNL     1       0.760  -0.734  22.216  0.00  0.00    +0.139 C 
BRANCH  21  22
ATOM     22  C   UNL     1       2.172  -0.512  22.678  0.00  0.00    -0.030 A 
ATOM     23  C   UNL     1       2.854  -1.527  23.348  0.00  0.00    +0.006 A 
ATOM     24  C   UNL     1       2.802   0.709  22.434  0.00  0.00    +0.006 A 
ATOM     25  C   UNL     1       4.165  -1.321  23.777  0.00  0.00    +0.013 A 
ATOM     26  C   UNL     1       4.113   0.914  22.861  0.00  0.00    +0.013 A 
ATOM     27  C   UNL     1       4.795  -0.100  23.533  0.00  0.00    +0.055 A 
BRANCH  27  28
ATOM      1  F   UNL     1       7.128  -0.072  23.006  0.00  0.00    -0.166 F 
ATOM      2  F   UNL     1       6.559  -0.722  25.001  0.00  0.00    -0.166 F 
ATOM      3  F   UNL     1       6.431   1.380  24.458  0.00  0.00    -0.166 F 
ATOM     28  C   UNL     1       6.198   0.118  23.988  0.00  0.00    +0.417 C 
ENDBRANCH  27  28
ENDBRANCH  21  22
ENDBRANCH   5  21
TORSDOF 8
ENDMDL
MODEL 9
REMARK VINA RESULT:      -1.0      2.812      5.008
REMARK  Name = 38029897
REMARK  11 active torsions:
REMARK  status: ('A' for Active; 'I' for Inactive)
REMARK    1  A    between atoms: N_5  and  C_21
REMARK    2  A    between atoms: C_7  and  C_11
REMARK    3  A    between atoms: C_9  and  C_15
REMARK    4  A    between atoms: C_10  and  C_14
REMARK    5  A    between atoms: C_11  and  C_16
REMARK    6  A    between atoms: C_11  and  C_17
REMARK    7  A    between atoms: C_12  and  C_18
REMARK    8  A    between atoms: C_14  and  C_19
REMARK    9  A    between atoms: C_15  and  C_20
REMARK   10  A    between atoms: C_21  and  C_22
REMARK   11  A    between atoms: C_27  and  C_28
REMARK                            x       y       z     vdW  Elec       q    Type
REMARK                         _______ _______ _______ _____ _____    ______ ____
ROOT
ATOM      4  O   UNL     1      -2.298   3.192  26.713  0.00  0.00    -0.276 OA
ATOM      5  N   UNL     1      -0.570   3.629  25.223  0.00  0.00    -0.311 N 
ATOM     19  C   UNL     1      -1.837   3.809  25.756  0.00  0.00    +0.214 C 
ATOM     29  H   UNL     1      -0.277   4.186  24.426  0.00  0.00    +0.149 HD
ENDROOT
BRANCH  19  14
ATOM     14  C   UNL     1      -2.596   4.878  25.003  0.00  0.00    +0.103 C 
BRANCH  14  10
ATOM      7  C   UNL     1      -4.942   2.678  25.083  0.00  0.00    -0.000 C 
ATOM      8  C   UNL     1      -4.852   3.981  24.274  0.00  0.00    +0.012 C 
ATOM      9  C   UNL     1      -4.408   1.487  24.250  0.00  0.00    +0.029 C 
ATOM     10  C   UNL     1      -3.409   4.298  23.840  0.00  0.00    +0.023 C 
ATOM     12  C   UNL     1      -2.719   3.085  23.249  0.00  0.00    -0.073 C 
ATOM     13  C   UNL     1      -3.187   1.838  23.432  0.00  0.00    -0.023 C 
ATOM     18  C   UNL     1      -1.503   3.343  22.403  0.00  0.00    +0.039 C 
BRANCH   7  11
ATOM     11  C   UNL     1      -6.387   2.450  25.539  0.00  0.00    -0.013 C 
ATOM     16  C   UNL     1      -7.157   1.654  24.490  0.00  0.00    +0.007 C 
ATOM     17  C   UNL     1      -6.413   1.736  26.887  0.00  0.00    +0.007 C 
ENDBRANCH   7  11
BRANCH   9  15
ATOM     15  C   UNL     1      -4.092   0.283  25.146  0.00  0.00    +0.126 C 
BRANCH  15  20
ATOM      6  N   UNL     1      -4.506  -1.958  23.849  0.00  0.00    -0.197 NA
ATOM     20  C   UNL     1      -4.322  -0.970  24.429  0.00  0.00    +0.063 C 
ENDBRANCH  15  20
ENDBRANCH   9  15
ENDBRANCH  14  10
ENDBRANCH  19  14
BRANCH   5  21
ATOM     21  C   UNL     1       0.378   2.671  25.745  0.00  0.00    +0.139 C 
BRANCH  21  22
ATOM     22  C   UNL     1      -0.053   1.256  25.488  0.00  0.00    -0.030 A 
ATOM     23  C   UNL     1       0.173   0.673  24.242  0.00  0.00    +0.006 A 
ATOM     24  C   UNL     1      -0.679   0.523  26.498  0.00  0.00    +0.006 A 
ATOM     25  C   UNL     1      -0.227  -0.642  24.004  0.00  0.00    +0.013 A 
ATOM     26  C   UNL     1      -1.078  -0.791  26.260  0.00  0.00    +0.013 A 
ATOM     27  C   UNL     1      -0.852  -1.375  25.013  0.00  0.00    +0.055 A 
BRANCH  27  28
ATOM      1  F   UNL     1      -2.479  -3.101  25.322  0.00  0.00    -0.166 F 
ATOM      2  F   UNL     1      -0.389  -3.694  25.249  0.00  0.00    -0.166 F 
ATOM      3  F   UNL     1      -1.415  -3.081  23.433  0.00  0.00    -0.166 F 
ATOM     28  C   UNL     1      -1.277  -2.781  24.759  0.00  0.00    +0.417 C 
ENDBRANCH  27  28
ENDBRANCH  21  22
ENDBRANCH   5  21
TORSDOF 8
ENDMDL
MODEL 10
REMARK VINA RESULT:      -0.9      2.932      4.865
REMARK  Name = 38029897
REMARK  11 active torsions:
REMARK  status: ('A' for Active; 'I' for Inactive)
REMARK    1  A    between atoms: N_5  and  C_21
REMARK    2  A    between atoms: C_7  and  C_11
REMARK    3  A    between atoms: C_9  and  C_15
REMARK    4  A    between atoms: C_10  and  C_14
REMARK    5  A    between atoms: C_11  and  C_16
REMARK    6  A    between atoms: C_11  and  C_17
REMARK    7  A    between atoms: C_12  and  C_18
REMARK    8  A    between atoms: C_14  and  C_19
REMARK    9  A    between atoms: C_15  and  C_20
REMARK   10  A    between atoms: C_21  and  C_22
REMARK   11  A    between atoms: C_27  and  C_28
REMARK                            x       y       z     vdW  Elec       q    Type
REMARK                         _______ _______ _______ _____ _____    ______ ____
ROOT
ATOM      4  O   UNL     1      -2.284   2.054  22.471  0.00  0.00    -0.276 OA
ATOM      5  N   UNL     1      -3.275   3.272  24.185  0.00  0.00    -0.311 N 
ATOM     19  C   UNL     1      -2.259   2.970  23.290  0.00  0.00    +0.214 C 
ATOM     29  H   UNL     1      -3.161   4.050  24.828  0.00  0.00    +0.149 HD
ENDROOT
BRANCH  19  14
ATOM     14  C   UNL     1      -1.096   3.924  23.446  0.00  0.00    +0.103 C 
BRANCH  14  10
ATOM      7  C   UNL     1       0.539   1.169  23.737  0.00  0.00    -0.000 C 
ATOM      8  C   UNL     1       0.998   2.611  24.006  0.00  0.00    +0.012 C 
ATOM      9  C   UNL     1       0.008   0.519  25.039  0.00  0.00    +0.029 C 
ATOM     10  C   UNL     1      -0.139   3.489  24.561  0.00  0.00    +0.023 C 
ATOM     12  C   UNL     1      -0.890   2.798  25.681  0.00  0.00    -0.073 C 
ATOM     13  C   UNL     1      -0.802   1.472  25.887  0.00  0.00    -0.023 C 
ATOM     18  C   UNL     1      -1.710   3.673  26.588  0.00  0.00    +0.039 C 
BRANCH   7  11
ATOM     11  C   UNL     1       1.692   0.364  23.129  0.00  0.00    -0.013 C 
ATOM     16  C   UNL     1       1.267  -0.251  21.799  0.00  0.00    +0.007 C 
ATOM     17  C   UNL     1       2.922   1.247  22.948  0.00  0.00    +0.007 C 
ENDBRANCH   7  11
BRANCH   9  15
ATOM     15  C   UNL     1      -0.829  -0.728  24.733  0.00  0.00    +0.126 C 
BRANCH  15  20
ATOM      6  N   UNL     1       0.333  -2.883  25.673  0.00  0.00    -0.197 NA
ATOM     20  C   UNL     1      -0.176  -1.930  25.251  0.00  0.00    +0.063 C 
ENDBRANCH  15  20
ENDBRANCH   9  15
ENDBRANCH  14  10
ENDBRANCH  19  14
BRANCH   5  21
ATOM     21  C   UNL     1      -4.510   2.525  24.258  0.00  0.00    +0.139 C 
BRANCH  21  22
ATOM     22  C   UNL     1      -4.268   1.046  24.359  0.00  0.00    -0.030 A 
ATOM     23  C   UNL     1      -4.191   0.435  25.610  0.00  0.00    +0.006 A 
ATOM     24  C   UNL     1      -4.121   0.283  23.200  0.00  0.00    +0.006 A 
ATOM     25  C   UNL     1      -3.967  -0.938  25.703  0.00  0.00    +0.013 A 
ATOM     26  C   UNL     1      -3.897  -1.090  23.293  0.00  0.00    +0.013 A 
ATOM     27  C   UNL     1      -3.820  -1.701  24.545  0.00  0.00    +0.055 A 
BRANCH  27  28
ATOM      1  F   UNL     1      -3.458  -3.619  25.928  0.00  0.00    -0.166 F 
ATOM      2  F   UNL     1      -2.443  -3.563  24.005  0.00  0.00    -0.166 F 
ATOM      3  F   UNL     1      -4.586  -3.924  24.101  0.00  0.00    -0.166 F 
ATOM     28  C   UNL     1      -3.584  -3.170  24.644  0.00  0.00    +0.417 C 
ENDBRANCH  27  28
ENDBRANCH  21  22
ENDBRANCH   5  21
TORSDOF 8
ENDMDL
