MODEL 1
REMARK VINA RESULT:      -1.1      0.000      0.000
REMARK  Name = 40777419
REMARK  8 active torsions:
REMARK  status: ('A' for Active; 'I' for Inactive)
REMARK    1  A    between atoms: O_3  and  C_29
REMARK    2  A    between atoms: O_3  and  C_30
REMARK    3  A    between atoms: N_5  and  C_14
REMARK    4  A    between atoms: C_7  and  C_11
REMARK    5  A    between atoms: C_8  and  C_13
REMARK    6  A    between atoms: C_11  and  C_17
REMARK    7  A    between atoms: C_13  and  C_21
REMARK    8  A    between atoms: C_23  and  C_24
REMARK                            x       y       z     vdW  Elec       q    Type
REMARK                         _______ _______ _______ _____ _____    ______ ____
ROOT
ATOM      4  N   UNL     1      -2.104  -2.908  24.447  0.00  0.00    -0.316 NA
ATOM      7  C   UNL     1      -4.100  -0.787  23.975  0.00  0.00    +0.004 C 
ATOM      8  C   UNL     1      -2.587  -0.583  23.721  0.00  0.00    +0.012 C 
ATOM      9  C   UNL     1      -4.427  -2.286  23.883  0.00  0.00    +0.019 C 
ATOM     10  C   UNL     1      -1.733  -1.502  24.611  0.00  0.00    +0.085 C 
ATOM     12  C   UNL     1      -3.513  -3.139  24.761  0.00  0.00    +0.081 C 
ATOM     31  H   UNL     1      -1.525  -3.483  25.057  0.00  0.00    +0.122 HD
ENDROOT
BRANCH   7  11
ATOM     11  C   UNL     1      -4.593  -0.202  25.303  0.00  0.00    +0.099 C 
BRANCH  11  17
ATOM      1  O   UNL     1      -6.201   1.476  24.631  0.00  0.00    -0.276 OA
ATOM      5  N   UNL     1      -4.225   2.137  25.660  0.00  0.00    -0.312 N 
ATOM     17  C   UNL     1      -5.120   1.209  25.148  0.00  0.00    +0.214 C 
ATOM     32  H   UNL     1      -3.387   1.808  26.129  0.00  0.00    +0.149 HD
BRANCH   5  14
ATOM     14  C   UNL     1      -4.471   3.563  25.644  0.00  0.00    +0.073 C 
ATOM     15  C   UNL     1      -3.547   4.292  26.624  0.00  0.00    +0.022 C 
ATOM     16  C   UNL     1      -4.334   4.128  24.225  0.00  0.00    +0.022 C 
ATOM     18  C   UNL     1      -2.096   4.329  26.143  0.00  0.00    +0.002 C 
ATOM     19  C   UNL     1      -2.882   4.166  23.749  0.00  0.00    +0.002 C 
ATOM     20  C   UNL     1      -1.985   4.906  24.734  0.00  0.00    +0.000 C 
ENDBRANCH   5  14
ENDBRANCH  11  17
ENDBRANCH   7  11
BRANCH   8  13
ATOM     13  C   UNL     1      -2.144   0.873  23.872  0.00  0.00    +0.064 C 
BRANCH  13  21
ATOM      2  O   UNL     1       1.299   1.890  24.143  0.00  0.00    -0.354 OA
ATOM      6  N   UNL     1      -0.063   2.108  24.304  0.00  0.00    -0.083 NA
ATOM     21  C   UNL     1      -0.648   0.994  23.851  0.00  0.00    +0.085 A 
ATOM     22  C   UNL     1       0.287   0.049  23.395  0.00  0.00    +0.076 A 
ATOM     23  C   UNL     1       1.496   0.660  23.601  0.00  0.00    +0.167 A 
BRANCH  23  24
ATOM     24  C   UNL     1       2.863   0.293  23.374  0.00  0.00    +0.020 A 
ATOM     25  C   UNL     1       3.330  -0.952  23.798  0.00  0.00    +0.015 A 
ATOM     26  C   UNL     1       3.726   1.179  22.730  0.00  0.00    +0.015 A 
ATOM     27  C   UNL     1       4.660  -1.310  23.579  0.00  0.00    +0.046 A 
ATOM     28  C   UNL     1       5.056   0.821  22.510  0.00  0.00    +0.046 A 
ATOM     29  C   UNL     1       5.523  -0.422  22.935  0.00  0.00    +0.120 A 
BRANCH  29   3
ATOM      3  O   UNL     1       6.820  -0.773  22.717  0.00  0.00    -0.495 OA
ATOM     30  C   UNL     1       7.819  -0.050  23.435  0.00  0.00    +0.277 C 
ENDBRANCH  29   3
ENDBRANCH  23  24
ENDBRANCH  13  21
ENDBRANCH   8  13
TORSDOF 7
ENDMDL
MODEL 2
REMARK VINA RESULT:      -0.2      1.390      4.309
REMARK  Name = 40777419
REMARK  8 active torsions:
REMARK  status: ('A' for Active; 'I' for Inactive)
REMARK    1  A    between atoms: O_3  and  C_29
REMARK    2  A    between atoms: O_3  and  C_30
REMARK    3  A    between atoms: N_5  and  C_14
REMARK    4  A    between atoms: C_7  and  C_11
REMARK    5  A    between atoms: C_8  and  C_13
REMARK    6  A    between atoms: C_11  and  C_17
REMARK    7  A    between atoms: C_13  and  C_21
REMARK    8  A    between atoms: C_23  and  C_24
REMARK                            x       y       z     vdW  Elec       q    Type
REMARK                         _______ _______ _______ _____ _____    ______ ____
ROOT
ATOM      4  N   UNL     1      -0.964   5.275  24.535  0.00  0.00    -0.316 NA
ATOM      7  C   UNL     1      -2.670   3.047  25.450  0.00  0.00    +0.004 C 
ATOM      8  C   UNL     1      -1.467   2.843  24.496  0.00  0.00    +0.012 C 
ATOM      9  C   UNL     1      -2.450   4.330  26.268  0.00  0.00    +0.019 C 
ATOM     10  C   UNL     1      -1.174   4.110  23.674  0.00  0.00    +0.085 C 
ATOM     12  C   UNL     1      -2.122   5.535  25.387  0.00  0.00    +0.081 C 
ATOM     31  H   UNL     1      -0.782   6.093  23.955  0.00  0.00    +0.122 HD
ENDROOT
BRANCH   7  11
ATOM     11  C   UNL     1      -4.028   3.078  24.741  0.00  0.00    +0.099 C 
BRANCH  11  17
ATOM      1  O   UNL     1      -5.989   1.662  24.701  0.00  0.00    -0.276 OA
ATOM      5  N   UNL     1      -3.927   0.741  25.250  0.00  0.00    -0.312 N 
ATOM     17  C   UNL     1      -4.780   1.773  24.885  0.00  0.00    +0.214 C 
ATOM     32  H   UNL     1      -2.930   0.923  25.312  0.00  0.00    +0.149 HD
BRANCH   5  14
ATOM     14  C   UNL     1      -4.376  -0.618  25.460  0.00  0.00    +0.073 C 
ATOM     15  C   UNL     1      -4.581  -1.342  24.126  0.00  0.00    +0.022 C 
ATOM     16  C   UNL     1      -3.406  -1.385  26.365  0.00  0.00    +0.022 C 
ATOM     18  C   UNL     1      -3.260  -1.670  23.429  0.00  0.00    +0.002 C 
ATOM     19  C   UNL     1      -2.088  -1.713  25.665  0.00  0.00    +0.002 C 
ATOM     20  C   UNL     1      -2.317  -2.442  24.346  0.00  0.00    +0.000 C 
ENDBRANCH   5  14
ENDBRANCH  11  17
ENDBRANCH   7  11
BRANCH   8  13
ATOM     13  C   UNL     1      -1.629   1.632  23.578  0.00  0.00    +0.064 C 
BRANCH  13  21
ATOM      2  O   UNL     1       1.085  -0.486  22.523  0.00  0.00    -0.354 OA
ATOM      6  N   UNL     1      -0.255  -0.119  22.534  0.00  0.00    -0.083 NA
ATOM     21  C   UNL     1      -0.313   0.954  23.329  0.00  0.00    +0.085 A 
ATOM     22  C   UNL     1       0.947   1.305  23.844  0.00  0.00    +0.076 A 
ATOM     23  C   UNL     1       1.791   0.369  23.306  0.00  0.00    +0.167 A 
BRANCH  23  24
ATOM     24  C   UNL     1       3.199   0.112  23.393  0.00  0.00    +0.020 A 
ATOM     25  C   UNL     1       4.112   1.137  23.139  0.00  0.00    +0.015 A 
ATOM     26  C   UNL     1       3.657  -1.161  23.731  0.00  0.00    +0.015 A 
ATOM     27  C   UNL     1       5.481   0.888  23.223  0.00  0.00    +0.046 A 
ATOM     28  C   UNL     1       5.027  -1.410  23.815  0.00  0.00    +0.046 A 
ATOM     29  C   UNL     1       5.939  -0.386  23.561  0.00  0.00    +0.120 A 
BRANCH  29   3
ATOM      3  O   UNL     1       7.276  -0.628  23.646  0.00  0.00    -0.495 OA
ATOM     30  C   UNL     1       7.953  -0.967  22.437  0.00  0.00    +0.277 C 
ENDBRANCH  29   3
ENDBRANCH  23  24
ENDBRANCH  13  21
ENDBRANCH   8  13
TORSDOF 7
ENDMDL
MODEL 3
REMARK VINA RESULT:      -0.1      1.770      4.634
REMARK  Name = 40777419
REMARK  8 active torsions:
REMARK  status: ('A' for Active; 'I' for Inactive)
REMARK    1  A    between atoms: O_3  and  C_29
REMARK    2  A    between atoms: O_3  and  C_30
REMARK    3  A    between atoms: N_5  and  C_14
REMARK    4  A    between atoms: C_7  and  C_11
REMARK    5  A    between atoms: C_8  and  C_13
REMARK    6  A    between atoms: C_11  and  C_17
REMARK    7  A    between atoms: C_13  and  C_21
REMARK    8  A    between atoms: C_23  and  C_24
REMARK                            x       y       z     vdW  Elec       q    Type
REMARK                         _______ _______ _______ _____ _____    ______ ____
ROOT
ATOM      4  N   UNL     1      -6.356   4.348  25.892  0.00  0.00    -0.316 NA
ATOM      7  C   UNL     1      -4.114   2.561  25.194  0.00  0.00    +0.004 C 
ATOM      8  C   UNL     1      -3.903   3.997  25.731  0.00  0.00    +0.012 C 
ATOM      9  C   UNL     1      -5.486   2.047  25.659  0.00  0.00    +0.019 C 
ATOM     10  C   UNL     1      -5.097   4.908  25.400  0.00  0.00    +0.085 C 
ATOM     12  C   UNL     1      -6.616   3.023  25.333  0.00  0.00    +0.081 C 
ATOM     31  H   UNL     1      -7.122   4.974  25.647  0.00  0.00    +0.122 HD
ENDROOT
BRANCH   7  11
ATOM     11  C   UNL     1      -3.973   2.439  23.672  0.00  0.00    +0.099 C 
BRANCH  11  17
ATOM      1  O   UNL     1      -2.574   1.185  22.149  0.00  0.00    -0.276 OA
ATOM      5  N   UNL     1      -2.846   0.430  24.330  0.00  0.00    -0.312 N 
ATOM     17  C   UNL     1      -3.056   1.302  23.271  0.00  0.00    +0.214 C 
ATOM     32  H   UNL     1      -3.238   0.655  25.240  0.00  0.00    +0.149 HD
BRANCH   5  14
ATOM     14  C   UNL     1      -2.012  -0.747  24.230  0.00  0.00    +0.073 C 
ATOM     15  C   UNL     1      -1.518  -1.191  25.610  0.00  0.00    +0.022 C 
ATOM     16  C   UNL     1      -2.749  -1.883  23.511  0.00  0.00    +0.022 C 
ATOM     18  C   UNL     1      -2.632  -1.802  26.462  0.00  0.00    +0.002 C 
ATOM     19  C   UNL     1      -3.859  -2.493  24.366  0.00  0.00    +0.002 C 
ATOM     20  C   UNL     1      -3.341  -2.937  25.729  0.00  0.00    +0.000 C 
ENDBRANCH   5  14
ENDBRANCH  11  17
ENDBRANCH   7  11
BRANCH   8  13
ATOM     13  C   UNL     1      -2.595   4.630  25.254  0.00  0.00    +0.064 C 
BRANCH  13  21
ATOM      2  O   UNL     1      -0.223   1.953  25.672  0.00  0.00    -0.354 OA
ATOM      6  N   UNL     1      -1.270   2.749  26.120  0.00  0.00    -0.083 NA
ATOM     21  C   UNL     1      -1.508   3.603  25.119  0.00  0.00    +0.085 A 
ATOM     22  C   UNL     1      -0.649   3.396  24.026  0.00  0.00    +0.076 A 
ATOM     23  C   UNL     1       0.138   2.348  24.424  0.00  0.00    +0.167 A 
BRANCH  23  24
ATOM     24  C   UNL     1       1.216   1.613  23.829  0.00  0.00    +0.020 A 
ATOM     25  C   UNL     1       2.437   2.241  23.583  0.00  0.00    +0.015 A 
ATOM     26  C   UNL     1       1.044   0.270  23.495  0.00  0.00    +0.015 A 
ATOM     27  C   UNL     1       3.485   1.528  23.004  0.00  0.00    +0.046 A 
ATOM     28  C   UNL     1       2.092  -0.445  22.915  0.00  0.00    +0.046 A 
ATOM     29  C   UNL     1       3.313   0.184  22.669  0.00  0.00    +0.120 A 
BRANCH  29   3
ATOM      3  O   UNL     1       4.337  -0.514  22.107  0.00  0.00    -0.495 OA
ATOM     30  C   UNL     1       5.618  -0.397  22.724  0.00  0.00    +0.277 C 
ENDBRANCH  29   3
ENDBRANCH  23  24
ENDBRANCH  13  21
ENDBRANCH   8  13
TORSDOF 7
ENDMDL
MODEL 4
REMARK VINA RESULT:       0.3      1.462      4.127
REMARK  Name = 40777419
REMARK  8 active torsions:
REMARK  status: ('A' for Active; 'I' for Inactive)
REMARK    1  A    between atoms: O_3  and  C_29
REMARK    2  A    between atoms: O_3  and  C_30
REMARK    3  A    between atoms: N_5  and  C_14
REMARK    4  A    between atoms: C_7  and  C_11
REMARK    5  A    between atoms: C_8  and  C_13
REMARK    6  A    between atoms: C_11  and  C_17
REMARK    7  A    between atoms: C_13  and  C_21
REMARK    8  A    between atoms: C_23  and  C_24
REMARK                            x       y       z     vdW  Elec       q    Type
REMARK                         _______ _______ _______ _____ _____    ______ ____
ROOT
ATOM      4  N   UNL     1      -4.663   4.911  24.380  0.00  0.00    -0.316 NA
ATOM      7  C   UNL     1      -4.078   2.130  25.171  0.00  0.00    +0.004 C 
ATOM      8  C   UNL     1      -3.230   2.899  24.130  0.00  0.00    +0.012 C 
ATOM      9  C   UNL     1      -4.773   3.140  26.098  0.00  0.00    +0.019 C 
ATOM     10  C   UNL     1      -4.052   3.989  23.422  0.00  0.00    +0.085 C 
ATOM     12  C   UNL     1      -5.534   4.216  25.324  0.00  0.00    +0.081 C 
ATOM     31  H   UNL     1      -5.204   5.612  23.875  0.00  0.00    +0.122 HD
ENDROOT
BRANCH   7  11
ATOM     11  C   UNL     1      -5.098   1.165  24.554  0.00  0.00    +0.099 C 
BRANCH  11  17
ATOM      1  O   UNL     1      -5.078  -1.180  23.964  0.00  0.00    -0.276 OA
ATOM      5  N   UNL     1      -3.798  -0.445  25.759  0.00  0.00    -0.312 N 
ATOM     17  C   UNL     1      -4.678  -0.282  24.699  0.00  0.00    +0.214 C 
ATOM     32  H   UNL     1      -3.476   0.375  26.264  0.00  0.00    +0.149 HD
BRANCH   5  14
ATOM     14  C   UNL     1      -3.236  -1.726  26.129  0.00  0.00    +0.073 C 
ATOM     15  C   UNL     1      -3.092  -2.637  24.906  0.00  0.00    +0.022 C 
ATOM     16  C   UNL     1      -1.896  -1.550  26.852  0.00  0.00    +0.022 C 
ATOM     18  C   UNL     1      -1.971  -2.185  23.968  0.00  0.00    +0.002 C 
ATOM     19  C   UNL     1      -0.778  -1.101  25.912  0.00  0.00    +0.002 C 
ATOM     20  C   UNL     1      -0.647  -2.029  24.709  0.00  0.00    +0.000 C 
ENDBRANCH   5  14
ENDBRANCH  11  17
ENDBRANCH   7  11
BRANCH   8  13
ATOM     13  C   UNL     1      -2.561   1.981  23.106  0.00  0.00    +0.064 C 
BRANCH  13  21
ATOM      2  O   UNL     1       0.818   2.155  24.338  0.00  0.00    -0.354 OA
ATOM      6  N   UNL     1      -0.500   2.592  24.299  0.00  0.00    -0.083 NA
ATOM     21  C   UNL     1      -1.102   1.796  23.410  0.00  0.00    +0.085 A 
ATOM     22  C   UNL     1      -0.221   0.848  22.861  0.00  0.00    +0.076 A 
ATOM     23  C   UNL     1       0.973   1.116  23.477  0.00  0.00    +0.167 A 
BRANCH  23  24
ATOM     24  C   UNL     1       2.291   0.557  23.409  0.00  0.00    +0.020 A 
ATOM     25  C   UNL     1       2.494  -0.791  23.706  0.00  0.00    +0.015 A 
ATOM     26  C   UNL     1       3.372   1.361  23.046  0.00  0.00    +0.015 A 
ATOM     27  C   UNL     1       3.775  -1.335  23.639  0.00  0.00    +0.046 A 
ATOM     28  C   UNL     1       4.654   0.817  22.980  0.00  0.00    +0.046 A 
ATOM     29  C   UNL     1       4.857  -0.531  23.277  0.00  0.00    +0.120 A 
BRANCH  29   3
ATOM      3  O   UNL     1       6.107  -1.063  23.208  0.00  0.00    -0.495 OA
ATOM     30  C   UNL     1       7.199  -0.148  23.117  0.00  0.00    +0.277 C 
ENDBRANCH  29   3
ENDBRANCH  23  24
ENDBRANCH  13  21
ENDBRANCH   8  13
TORSDOF 7
ENDMDL
MODEL 5
REMARK VINA RESULT:       1.9      1.539      4.490
REMARK  Name = 40777419
REMARK  8 active torsions:
REMARK  status: ('A' for Active; 'I' for Inactive)
REMARK    1  A    between atoms: O_3  and  C_29
REMARK    2  A    between atoms: O_3  and  C_30
REMARK    3  A    between atoms: N_5  and  C_14
REMARK    4  A    between atoms: C_7  and  C_11
REMARK    5  A    between atoms: C_8  and  C_13
REMARK    6  A    between atoms: C_11  and  C_17
REMARK    7  A    between atoms: C_13  and  C_21
REMARK    8  A    between atoms: C_23  and  C_24
REMARK                            x       y       z     vdW  Elec       q    Type
REMARK                         _______ _______ _______ _____ _____    ______ ____
ROOT
ATOM      4  N   UNL     1      -2.891   5.669  24.034  0.00  0.00    -0.316 NA
ATOM      7  C   UNL     1      -4.582   3.640  25.348  0.00  0.00    +0.004 C 
ATOM      8  C   UNL     1      -3.084   3.828  25.688  0.00  0.00    +0.012 C 
ATOM      9  C   UNL     1      -5.136   4.955  24.776  0.00  0.00    +0.019 C 
ATOM     10  C   UNL     1      -2.302   4.414  24.501  0.00  0.00    +0.085 C 
ATOM     12  C   UNL     1      -4.284   5.497  23.629  0.00  0.00    +0.081 C 
ATOM     31  H   UNL     1      -2.352   6.021  23.243  0.00  0.00    +0.122 HD
ENDROOT
BRANCH   7  11
ATOM     11  C   UNL     1      -4.863   2.471  24.397  0.00  0.00    +0.099 C 
BRANCH  11  17
ATOM      1  O   UNL     1      -5.840   1.006  26.056  0.00  0.00    -0.276 OA
ATOM      5  N   UNL     1      -4.194   0.183  24.636  0.00  0.00    -0.312 N 
ATOM     17  C   UNL     1      -5.043   1.162  25.136  0.00  0.00    +0.214 C 
ATOM     32  H   UNL     1      -3.620   0.395  23.826  0.00  0.00    +0.149 HD
BRANCH   5  14
ATOM     14  C   UNL     1      -4.152  -1.166  25.157  0.00  0.00    +0.073 C 
ATOM     15  C   UNL     1      -3.667  -2.152  24.089  0.00  0.00    +0.022 C 
ATOM     16  C   UNL     1      -3.285  -1.241  26.418  0.00  0.00    +0.022 C 
ATOM     18  C   UNL     1      -2.175  -2.002  23.789  0.00  0.00    +0.002 C 
ATOM     19  C   UNL     1      -1.795  -1.094  26.114  0.00  0.00    +0.002 C 
ATOM     20  C   UNL     1      -1.334  -2.093  25.058  0.00  0.00    +0.000 C 
ENDBRANCH   5  14
ENDBRANCH  11  17
ENDBRANCH   7  11
BRANCH   8  13
ATOM     13  C   UNL     1      -2.418   2.546  26.191  0.00  0.00    +0.064 C 
BRANCH  13  21
ATOM      2  O   UNL     1      -0.646   1.249  23.338  0.00  0.00    -0.354 OA
ATOM      6  N   UNL     1      -1.805   1.670  23.978  0.00  0.00    -0.083 NA
ATOM     21  C   UNL     1      -1.412   2.030  25.204  0.00  0.00    +0.085 A 
ATOM     22  C   UNL     1      -0.030   1.859  25.392  0.00  0.00    +0.076 A 
ATOM     23  C   UNL     1       0.405   1.366  24.190  0.00  0.00    +0.167 A 
BRANCH  23  24
ATOM     24  C   UNL     1       1.678   0.965  23.665  0.00  0.00    +0.020 A 
ATOM     25  C   UNL     1       2.613   1.930  23.290  0.00  0.00    +0.015 A 
ATOM     26  C   UNL     1       1.981  -0.390  23.530  0.00  0.00    +0.015 A 
ATOM     27  C   UNL     1       3.850   1.541  22.780  0.00  0.00    +0.046 A 
ATOM     28  C   UNL     1       3.219  -0.779  23.019  0.00  0.00    +0.046 A 
ATOM     29  C   UNL     1       4.154   0.185  22.643  0.00  0.00    +0.120 A 
BRANCH  29   3
ATOM      3  O   UNL     1       5.363  -0.194  22.148  0.00  0.00    -0.495 OA
ATOM     30  C   UNL     1       6.430  -0.345  23.084  0.00  0.00    +0.277 C 
ENDBRANCH  29   3
ENDBRANCH  23  24
ENDBRANCH  13  21
ENDBRANCH   8  13
TORSDOF 7
ENDMDL
