MODEL 1
REMARK VINA RESULT:      -5.7      0.000      0.000
REMARK  Name = 75368563
REMARK  3 active torsions:
REMARK  status: ('A' for Active; 'I' for Inactive)
REMARK    1  A    between atoms: N_3  and  C_12
REMARK    2  A    between atoms: C_12  and  C_13
REMARK    3  A    between atoms: C_14  and  C_16
REMARK                            x       y       z     vdW  Elec       q    Type
REMARK                         _______ _______ _______ _____ _____    ______ ____
ROOT
ATOM      1  O   UNL     1      -2.070   6.092  25.520  0.00  0.00    -0.253 OA
ATOM      2  N   UNL     1      -2.629   3.946  24.733  0.00  0.00    -0.279 N 
ATOM      3  N   UNL     1      -3.812   1.396  24.661  0.00  0.00    -0.293 NA
ATOM      4  N   UNL     1      -0.485   4.609  24.629  0.00  0.00    -0.297 N 
ATOM      6  C   UNL     1      -1.950   2.877  24.031  0.00  0.00    +0.109 C 
ATOM      7  C   UNL     1      -2.341   1.523  24.621  0.00  0.00    +0.109 C 
ATOM      8  C   UNL     1      -4.055   3.853  24.959  0.00  0.00    +0.125 C 
ATOM      9  C   UNL     1      -0.474   3.238  24.170  0.00  0.00    +0.129 C 
ATOM     10  C   UNL     1      -4.410   2.463  25.492  0.00  0.00    +0.104 C 
ATOM     11  C   UNL     1      -1.774   5.016  25.020  0.00  0.00    +0.303 C 
ATOM     19  H   UNL     1       0.345   5.183  24.737  0.00  0.00    +0.150 HD
ENDROOT
BRANCH   3  12
ATOM     12  C   UNL     1      -4.195   0.079  25.169  0.00  0.00    +0.140 C 
BRANCH  12  13
ATOM      5  N   UNL     1      -1.940  -0.563  25.772  0.00  0.00    -0.258 NA
ATOM     13  C   UNL     1      -3.059  -0.905  25.092  0.00  0.00    +0.058 A 
ATOM     14  C   UNL     1      -3.195  -2.071  24.359  0.00  0.00    -0.028 A 
ATOM     15  C   UNL     1      -2.114  -2.946  24.320  0.00  0.00    +0.006 A 
ATOM     16  C   UNL     1      -4.448  -2.405  23.626  0.00  0.00    +0.045 C 
ATOM     17  C   UNL     1      -0.911  -1.437  25.711  0.00  0.00    +0.111 A 
ATOM     18  C   UNL     1      -0.947  -2.630  25.007  0.00  0.00    +0.020 A 
ENDBRANCH  12  13
ENDBRANCH   3  12
TORSDOF 2
ENDMDL
MODEL 2
REMARK VINA RESULT:      -5.4      2.643      5.808
REMARK  Name = 75368563
REMARK  3 active torsions:
REMARK  status: ('A' for Active; 'I' for Inactive)
REMARK    1  A    between atoms: N_3  and  C_12
REMARK    2  A    between atoms: C_12  and  C_13
REMARK    3  A    between atoms: C_14  and  C_16
REMARK                            x       y       z     vdW  Elec       q    Type
REMARK                         _______ _______ _______ _____ _____    ______ ____
ROOT
ATOM      1  O   UNL     1       0.366  -2.357  25.747  0.00  0.00    -0.253 OA
ATOM      2  N   UNL     1      -0.905  -0.969  24.334  0.00  0.00    -0.279 N 
ATOM      3  N   UNL     1      -1.903   1.384  23.163  0.00  0.00    -0.293 NA
ATOM      4  N   UNL     1      -1.927  -2.680  25.370  0.00  0.00    -0.297 N 
ATOM      6  C   UNL     1      -2.250  -0.967  23.800  0.00  0.00    +0.109 C 
ATOM      7  C   UNL     1      -2.831   0.446  23.827  0.00  0.00    +0.109 C 
ATOM      8  C   UNL     1       0.049   0.010  23.857  0.00  0.00    +0.125 C 
ATOM      9  C   UNL     1      -2.984  -1.981  24.673  0.00  0.00    +0.129 C 
ATOM     10  C   UNL     1      -0.591   1.400  23.843  0.00  0.00    +0.104 C 
ATOM     11  C   UNL     1      -0.685  -2.037  25.210  0.00  0.00    +0.303 C 
ATOM     19  H   UNL     1      -2.072  -3.485  25.970  0.00  0.00    +0.150 HD
ENDROOT
BRANCH   3  12
ATOM     12  C   UNL     1      -2.477   2.730  23.130  0.00  0.00    +0.140 C 
BRANCH  12  13
ATOM      5  N   UNL     1      -4.668   2.273  24.053  0.00  0.00    -0.258 NA
ATOM     13  C   UNL     1      -3.498   2.931  24.218  0.00  0.00    +0.058 A 
ATOM     14  C   UNL     1      -3.213   3.749  25.298  0.00  0.00    -0.028 A 
ATOM     15  C   UNL     1      -4.192   3.902  26.275  0.00  0.00    +0.006 A 
ATOM     16  C   UNL     1      -1.908   4.453  25.437  0.00  0.00    +0.045 C 
ATOM     17  C   UNL     1      -5.594   2.445  25.021  0.00  0.00    +0.111 A 
ATOM     18  C   UNL     1      -5.408   3.240  26.141  0.00  0.00    +0.020 A 
ENDBRANCH  12  13
ENDBRANCH   3  12
TORSDOF 2
ENDMDL
MODEL 3
REMARK VINA RESULT:      -4.9      2.613      4.981
REMARK  Name = 75368563
REMARK  3 active torsions:
REMARK  status: ('A' for Active; 'I' for Inactive)
REMARK    1  A    between atoms: N_3  and  C_12
REMARK    2  A    between atoms: C_12  and  C_13
REMARK    3  A    between atoms: C_14  and  C_16
REMARK                            x       y       z     vdW  Elec       q    Type
REMARK                         _______ _______ _______ _____ _____    ______ ____
ROOT
ATOM      1  O   UNL     1       1.527  -0.563  22.687  0.00  0.00    -0.253 OA
ATOM      2  N   UNL     1      -0.265  -0.174  24.162  0.00  0.00    -0.279 N 
ATOM      3  N   UNL     1      -2.903  -0.083  25.129  0.00  0.00    -0.293 NA
ATOM      4  N   UNL     1       1.301   1.419  23.922  0.00  0.00    -0.297 N 
ATOM      6  C   UNL     1      -0.621   0.837  25.134  0.00  0.00    +0.109 C 
ATOM      7  C   UNL     1      -2.112   1.161  25.042  0.00  0.00    +0.109 C 
ATOM      8  C   UNL     1      -1.067  -1.374  24.059  0.00  0.00    +0.125 C 
ATOM      9  C   UNL     1       0.311   1.999  24.802  0.00  0.00    +0.129 C 
ATOM     10  C   UNL     1      -2.553  -1.009  24.031  0.00  0.00    +0.104 C 
ATOM     11  C   UNL     1       0.926   0.132  23.493  0.00  0.00    +0.303 C 
ATOM     19  H   UNL     1       2.124   1.908  23.585  0.00  0.00    +0.150 HD
ENDROOT
BRANCH   3  12
ATOM     12  C   UNL     1      -4.334   0.221  25.102  0.00  0.00    +0.140 C 
BRANCH  12  13
ATOM      5  N   UNL     1      -3.821   2.373  24.120  0.00  0.00    -0.258 NA
ATOM     13  C   UNL     1      -4.591   1.700  25.005  0.00  0.00    +0.058 A 
ATOM     14  C   UNL     1      -5.564   2.292  25.792  0.00  0.00    -0.028 A 
ATOM     15  C   UNL     1      -5.761   3.663  25.665  0.00  0.00    +0.006 A 
ATOM     16  C   UNL     1      -6.389   1.509  26.754  0.00  0.00    +0.045 C 
ATOM     17  C   UNL     1      -4.040   3.703  24.023  0.00  0.00    +0.111 A 
ATOM     18  C   UNL     1      -4.989   4.389  24.765  0.00  0.00    +0.020 A 
ENDBRANCH  12  13
ENDBRANCH   3  12
TORSDOF 2
ENDMDL
MODEL 4
REMARK VINA RESULT:      -4.9      2.741      5.572
REMARK  Name = 75368563
REMARK  3 active torsions:
REMARK  status: ('A' for Active; 'I' for Inactive)
REMARK    1  A    between atoms: N_3  and  C_12
REMARK    2  A    between atoms: C_12  and  C_13
REMARK    3  A    between atoms: C_14  and  C_16
REMARK                            x       y       z     vdW  Elec       q    Type
REMARK                         _______ _______ _______ _____ _____    ______ ____
ROOT
ATOM      1  O   UNL     1      -1.639  -3.493  23.610  0.00  0.00    -0.253 OA
ATOM      2  N   UNL     1      -2.771  -1.746  24.707  0.00  0.00    -0.279 N 
ATOM      3  N   UNL     1      -4.445   0.483  25.071  0.00  0.00    -0.293 NA
ATOM      4  N   UNL     1      -0.598  -2.082  25.169  0.00  0.00    -0.297 N 
ATOM      6  C   UNL     1      -2.477  -0.814  25.775  0.00  0.00    +0.109 C 
ATOM      7  C   UNL     1      -3.016   0.574  25.433  0.00  0.00    +0.109 C 
ATOM      8  C   UNL     1      -4.114  -1.811  24.172  0.00  0.00    +0.125 C 
ATOM      9  C   UNL     1      -0.960  -0.898  25.916  0.00  0.00    +0.129 C 
ATOM     10  C   UNL     1      -4.638  -0.399  23.901  0.00  0.00    +0.104 C 
ATOM     11  C   UNL     1      -1.675  -2.559  24.397  0.00  0.00    +0.303 C 
ATOM     19  H   UNL     1       0.337  -2.474  25.135  0.00  0.00    +0.150 HD
ENDROOT
BRANCH   3  12
ATOM     12  C   UNL     1      -4.987   1.815  24.800  0.00  0.00    +0.140 C 
BRANCH  12  13
ATOM      5  N   UNL     1      -3.953   3.488  26.211  0.00  0.00    -0.258 NA
ATOM     13  C   UNL     1      -3.954   2.892  24.998  0.00  0.00    +0.058 A 
ATOM     14  C   UNL     1      -3.082   3.219  23.973  0.00  0.00    -0.028 A 
ATOM     15  C   UNL     1      -2.148   4.222  24.207  0.00  0.00    +0.006 A 
ATOM     16  C   UNL     1      -3.121   2.533  22.651  0.00  0.00    +0.045 C 
ATOM     17  C   UNL     1      -3.032   4.458  26.403  0.00  0.00    +0.111 A 
ATOM     18  C   UNL     1      -2.116   4.858  25.443  0.00  0.00    +0.020 A 
ENDBRANCH  12  13
ENDBRANCH   3  12
TORSDOF 2
ENDMDL
MODEL 5
REMARK VINA RESULT:      -4.6      2.487      3.666
REMARK  Name = 75368563
REMARK  3 active torsions:
REMARK  status: ('A' for Active; 'I' for Inactive)
REMARK    1  A    between atoms: N_3  and  C_12
REMARK    2  A    between atoms: C_12  and  C_13
REMARK    3  A    between atoms: C_14  and  C_16
REMARK                            x       y       z     vdW  Elec       q    Type
REMARK                         _______ _______ _______ _____ _____    ______ ____
ROOT
ATOM      1  O   UNL     1      -6.753   2.002  24.595  0.00  0.00    -0.253 OA
ATOM      2  N   UNL     1      -4.521   2.732  24.435  0.00  0.00    -0.279 N 
ATOM      3  N   UNL     1      -1.743   2.626  24.015  0.00  0.00    -0.293 NA
ATOM      4  N   UNL     1      -5.748   3.390  26.198  0.00  0.00    -0.297 N 
ATOM      6  C   UNL     1      -3.668   3.660  25.147  0.00  0.00    +0.109 C 
ATOM      7  C   UNL     1      -2.270   3.068  25.322  0.00  0.00    +0.109 C 
ATOM      8  C   UNL     1      -4.042   2.121  23.213  0.00  0.00    +0.125 C 
ATOM      9  C   UNL     1      -4.425   3.917  26.447  0.00  0.00    +0.129 C 
ATOM     10  C   UNL     1      -2.618   1.597  23.414  0.00  0.00    +0.104 C 
ATOM     11  C   UNL     1      -5.791   2.630  25.014  0.00  0.00    +0.303 C 
ATOM     19  H   UNL     1      -6.531   3.483  26.837  0.00  0.00    +0.150 HD
ENDROOT
BRANCH   3  12
ATOM     12  C   UNL     1      -0.381   2.113  24.163  0.00  0.00    +0.140 C 
BRANCH  12  13
ATOM      5  N   UNL     1      -1.066   0.379  25.707  0.00  0.00    -0.258 NA
ATOM     13  C   UNL     1      -0.368   0.669  24.585  0.00  0.00    +0.058 A 
ATOM     14  C   UNL     1       0.330  -0.269  23.842  0.00  0.00    -0.028 A 
ATOM     15  C   UNL     1       0.312  -1.590  24.277  0.00  0.00    +0.006 A 
ATOM     16  C   UNL     1       1.086   0.098  22.612  0.00  0.00    +0.045 C 
ATOM     17  C   UNL     1      -1.062  -0.915  26.098  0.00  0.00    +0.111 A 
ATOM     18  C   UNL     1      -0.396  -1.927  25.425  0.00  0.00    +0.020 A 
ENDBRANCH  12  13
ENDBRANCH   3  12
TORSDOF 2
ENDMDL
MODEL 6
REMARK VINA RESULT:      -4.3      1.342      2.850
REMARK  Name = 75368563
REMARK  3 active torsions:
REMARK  status: ('A' for Active; 'I' for Inactive)
REMARK    1  A    between atoms: N_3  and  C_12
REMARK    2  A    between atoms: C_12  and  C_13
REMARK    3  A    between atoms: C_14  and  C_16
REMARK                            x       y       z     vdW  Elec       q    Type
REMARK                         _______ _______ _______ _____ _____    ______ ____
ROOT
ATOM      1  O   UNL     1      -1.173   6.050  24.999  0.00  0.00    -0.253 OA
ATOM      2  N   UNL     1      -1.196   3.720  25.325  0.00  0.00    -0.279 N 
ATOM      3  N   UNL     1      -0.675   0.995  24.869  0.00  0.00    -0.293 NA
ATOM      4  N   UNL     1      -3.116   4.862  25.561  0.00  0.00    -0.297 N 
ATOM      6  C   UNL     1      -2.150   2.735  25.790  0.00  0.00    +0.109 C 
ATOM      7  C   UNL     1      -2.071   1.473  24.933  0.00  0.00    +0.109 C 
ATOM      8  C   UNL     1       0.175   3.321  25.086  0.00  0.00    +0.125 C 
ATOM      9  C   UNL     1      -3.485   3.473  25.726  0.00  0.00    +0.129 C 
ATOM     10  C   UNL     1       0.208   2.022  24.278  0.00  0.00    +0.104 C 
ATOM     11  C   UNL     1      -1.748   5.004  25.264  0.00  0.00    +0.303 C 
ATOM     19  H   UNL     1      -3.774   5.634  25.573  0.00  0.00    +0.150 HD
ENDROOT
BRANCH   3  12
ATOM     12  C   UNL     1      -0.597  -0.248  24.101  0.00  0.00    +0.140 C 
BRANCH  12  13
ATOM      5  N   UNL     1      -2.965  -0.424  23.629  0.00  0.00    -0.258 NA
ATOM     13  C   UNL     1      -1.881  -1.029  24.166  0.00  0.00    +0.058 A 
ATOM     14  C   UNL     1      -1.905  -2.285  24.750  0.00  0.00    -0.028 A 
ATOM     15  C   UNL     1      -3.118  -2.964  24.786  0.00  0.00    +0.006 A 
ATOM     16  C   UNL     1      -0.684  -2.912  25.329  0.00  0.00    +0.045 C 
ATOM     17  C   UNL     1      -4.126  -1.114  23.682  0.00  0.00    +0.111 A 
ATOM     18  C   UNL     1      -4.254  -2.374  24.243  0.00  0.00    +0.020 A 
ENDBRANCH  12  13
ENDBRANCH   3  12
TORSDOF 2
ENDMDL
MODEL 7
REMARK VINA RESULT:      -4.3      2.864      6.167
REMARK  Name = 75368563
REMARK  3 active torsions:
REMARK  status: ('A' for Active; 'I' for Inactive)
REMARK    1  A    between atoms: N_3  and  C_12
REMARK    2  A    between atoms: C_12  and  C_13
REMARK    3  A    between atoms: C_14  and  C_16
REMARK                            x       y       z     vdW  Elec       q    Type
REMARK                         _______ _______ _______ _____ _____    ______ ____
ROOT
ATOM      1  O   UNL     1      -3.531  -3.676  24.637  0.00  0.00    -0.253 OA
ATOM      2  N   UNL     1      -2.526  -1.555  24.463  0.00  0.00    -0.279 N 
ATOM      3  N   UNL     1      -0.950   0.672  25.140  0.00  0.00    -0.293 NA
ATOM      4  N   UNL     1      -4.711  -1.757  23.981  0.00  0.00    -0.297 N 
ATOM      6  C   UNL     1      -2.915  -0.247  23.979  0.00  0.00    +0.109 C 
ATOM      7  C   UNL     1      -2.400   0.841  24.920  0.00  0.00    +0.109 C 
ATOM      8  C   UNL     1      -1.151  -1.789  24.849  0.00  0.00    +0.125 C 
ATOM      9  C   UNL     1      -4.434  -0.341  23.874  0.00  0.00    +0.129 C 
ATOM     10  C   UNL     1      -0.657  -0.647  25.740  0.00  0.00    +0.104 C 
ATOM     11  C   UNL     1      -3.574  -2.480  24.389  0.00  0.00    +0.303 C 
ATOM     19  H   UNL     1      -5.629  -2.171  23.859  0.00  0.00    +0.150 HD
ENDROOT
BRANCH   3  12
ATOM     12  C   UNL     1      -0.436   1.745  25.992  0.00  0.00    +0.140 C 
BRANCH  12  13
ATOM      5  N   UNL     1      -2.232   3.248  26.606  0.00  0.00    -0.258 NA
ATOM     13  C   UNL     1      -1.182   3.035  25.781  0.00  0.00    +0.058 A 
ATOM     14  C   UNL     1      -0.783   3.917  24.790  0.00  0.00    -0.028 A 
ATOM     15  C   UNL     1      -1.507   5.094  24.636  0.00  0.00    +0.006 A 
ATOM     16  C   UNL     1       0.381   3.639  23.904  0.00  0.00    +0.045 C 
ATOM     17  C   UNL     1      -2.911   4.402  26.427  0.00  0.00    +0.111 A 
ATOM     18  C   UNL     1      -2.593   5.349  25.467  0.00  0.00    +0.020 A 
ENDBRANCH  12  13
ENDBRANCH   3  12
TORSDOF 2
ENDMDL
MODEL 8
REMARK VINA RESULT:      -4.2      1.807      3.331
REMARK  Name = 75368563
REMARK  3 active torsions:
REMARK  status: ('A' for Active; 'I' for Inactive)
REMARK    1  A    between atoms: N_3  and  C_12
REMARK    2  A    between atoms: C_12  and  C_13
REMARK    3  A    between atoms: C_14  and  C_16
REMARK                            x       y       z     vdW  Elec       q    Type
REMARK                         _______ _______ _______ _____ _____    ______ ____
ROOT
ATOM      1  O   UNL     1      -5.968   5.464  25.227  0.00  0.00    -0.253 OA
ATOM      2  N   UNL     1      -4.510   3.625  25.400  0.00  0.00    -0.279 N 
ATOM      3  N   UNL     1      -2.562   1.735  24.668  0.00  0.00    -0.293 NA
ATOM      4  N   UNL     1      -6.625   3.397  26.121  0.00  0.00    -0.297 N 
ATOM      6  C   UNL     1      -4.552   2.306  25.997  0.00  0.00    +0.109 C 
ATOM      7  C   UNL     1      -3.910   1.281  25.064  0.00  0.00    +0.109 C 
ATOM      8  C   UNL     1      -3.266   4.113  24.844  0.00  0.00    +0.125 C 
ATOM      9  C   UNL     1      -6.037   2.085  26.273  0.00  0.00    +0.129 C 
ATOM     10  C   UNL     1      -2.627   3.034  23.966  0.00  0.00    +0.104 C 
ATOM     11  C   UNL     1      -5.722   4.309  25.544  0.00  0.00    +0.303 C 
ATOM     19  H   UNL     1      -7.595   3.616  26.325  0.00  0.00    +0.150 HD
ENDROOT
BRANCH   3  12
ATOM     12  C   UNL     1      -1.915   0.731  23.823  0.00  0.00    +0.140 C 
BRANCH  12  13
ATOM      5  N   UNL     1      -3.740  -0.832  23.531  0.00  0.00    -0.258 NA
ATOM     13  C   UNL     1      -2.499  -0.640  24.033  0.00  0.00    +0.058 A 
ATOM     14  C   UNL     1      -1.775  -1.611  24.704  0.00  0.00    -0.028 A 
ATOM     15  C   UNL     1      -2.361  -2.861  24.873  0.00  0.00    +0.006 A 
ATOM     16  C   UNL     1      -0.409  -1.352  25.240  0.00  0.00    +0.045 C 
ATOM     17  C   UNL     1      -4.277  -2.059  23.714  0.00  0.00    +0.111 A 
ATOM     18  C   UNL     1      -3.636  -3.097  24.370  0.00  0.00    +0.020 A 
ENDBRANCH  12  13
ENDBRANCH   3  12
TORSDOF 2
ENDMDL
MODEL 9
REMARK VINA RESULT:      -4.1      2.804      4.046
REMARK  Name = 75368563
REMARK  3 active torsions:
REMARK  status: ('A' for Active; 'I' for Inactive)
REMARK    1  A    between atoms: N_3  and  C_12
REMARK    2  A    between atoms: C_12  and  C_13
REMARK    3  A    between atoms: C_14  and  C_16
REMARK                            x       y       z     vdW  Elec       q    Type
REMARK                         _______ _______ _______ _____ _____    ______ ____
ROOT
ATOM      1  O   UNL     1      -6.982   1.730  25.662  0.00  0.00    -0.253 OA
ATOM      2  N   UNL     1      -4.716   1.921  25.057  0.00  0.00    -0.279 N 
ATOM      3  N   UNL     1      -1.965   1.350  24.951  0.00  0.00    -0.293 NA
ATOM      4  N   UNL     1      -5.842   3.780  25.625  0.00  0.00    -0.297 N 
ATOM      6  C   UNL     1      -3.784   3.001  24.811  0.00  0.00    +0.109 C 
ATOM      7  C   UNL     1      -2.420   2.675  25.418  0.00  0.00    +0.109 C 
ATOM      8  C   UNL     1      -4.316   0.559  24.772  0.00  0.00    +0.125 C 
ATOM      9  C   UNL     1      -4.481   4.219  25.410  0.00  0.00    +0.129 C 
ATOM     10  C   UNL     1      -2.921   0.294  25.345  0.00  0.00    +0.104 C 
ATOM     11  C   UNL     1      -5.970   2.388  25.467  0.00  0.00    +0.303 C 
ATOM     19  H   UNL     1      -6.596   4.384  25.935  0.00  0.00    +0.150 HD
ENDROOT
BRANCH   3  12
ATOM     12  C   UNL     1      -0.633   1.054  25.478  0.00  0.00    +0.140 C 
BRANCH  12  13
ATOM      5  N   UNL     1       1.262   1.660  24.100  0.00  0.00    -0.258 NA
ATOM     13  C   UNL     1       0.341   0.712  24.384  0.00  0.00    +0.058 A 
ATOM     14  C   UNL     1       0.260  -0.509  23.734  0.00  0.00    -0.028 A 
ATOM     15  C   UNL     1       1.183  -0.775  22.729  0.00  0.00    +0.006 A 
ATOM     16  C   UNL     1      -0.774  -1.523  24.082  0.00  0.00    +0.045 C 
ATOM     17  C   UNL     1       2.143   1.367  23.118  0.00  0.00    +0.111 A 
ATOM     18  C   UNL     1       2.147   0.176  22.410  0.00  0.00    +0.020 A 
ENDBRANCH  12  13
ENDBRANCH   3  12
TORSDOF 2
ENDMDL
MODEL 10
REMARK VINA RESULT:      -4.0     18.391     19.976
REMARK  Name = 75368563
REMARK  3 active torsions:
REMARK  status: ('A' for Active; 'I' for Inactive)
REMARK    1  A    between atoms: N_3  and  C_12
REMARK    2  A    between atoms: C_12  and  C_13
REMARK    3  A    between atoms: C_14  and  C_16
REMARK                            x       y       z     vdW  Elec       q    Type
REMARK                         _______ _______ _______ _____ _____    ______ ____
ROOT
ATOM      1  O   UNL     1      17.159  -2.084  28.711  0.00  0.00    -0.253 OA
ATOM      2  N   UNL     1      16.518  -3.406  30.549  0.00  0.00    -0.279 N 
ATOM      3  N   UNL     1      15.125  -5.341  32.039  0.00  0.00    -0.293 NA
ATOM      4  N   UNL     1      16.813  -1.200  30.857  0.00  0.00    -0.297 N 
ATOM      6  C   UNL     1      16.357  -3.212  31.975  0.00  0.00    +0.109 C 
ATOM      7  C   UNL     1      15.101  -3.928  32.470  0.00  0.00    +0.109 C 
ATOM      8  C   UNL     1      16.411  -4.740  29.998  0.00  0.00    +0.125 C 
ATOM      9  C   UNL     1      16.335  -1.694  32.130  0.00  0.00    +0.129 C 
ATOM     10  C   UNL     1      15.176  -5.442  30.565  0.00  0.00    +0.104 C 
ATOM     11  C   UNL     1      16.869  -2.222  29.891  0.00  0.00    +0.303 C 
ATOM     19  H   UNL     1      17.003  -0.224  30.657  0.00  0.00    +0.150 HD
ENDROOT
BRANCH   3  12
ATOM     12  C   UNL     1      13.956  -6.050  32.559  0.00  0.00    +0.140 C 
BRANCH  12  13
ATOM      5  N   UNL     1      14.872  -8.291  32.513  0.00  0.00    -0.258 NA
ATOM     13  C   UNL     1      13.895  -7.470  32.064  0.00  0.00    +0.058 A 
ATOM     14  C   UNL     1      12.886  -7.866  31.202  0.00  0.00    -0.028 A 
ATOM     15  C   UNL     1      12.877  -9.189  30.773  0.00  0.00    +0.006 A 
ATOM     16  C   UNL     1      11.831  -6.926  30.733  0.00  0.00    +0.045 C 
ATOM     17  C   UNL     1      14.831  -9.568  32.076  0.00  0.00    +0.111 A 
ATOM     18  C   UNL     1      13.865 -10.063  31.215  0.00  0.00    +0.020 A 
ENDBRANCH  12  13
ENDBRANCH   3  12
TORSDOF 2
ENDMDL
