MODEL 1
REMARK VINA RESULT:      12.2      0.000      0.000
REMARK  Name = 11883120
REMARK  8 active torsions:
REMARK  status: ('A' for Active; 'I' for Inactive)
REMARK    1  A    between atoms: O_3  and  C_16
REMARK    2  A    between atoms: O_4  and  C_21
REMARK    3  A    between atoms: C_11  and  C_19
REMARK    4  A    between atoms: C_13  and  C_21
REMARK    5  A    between atoms: C_13  and  C_22
REMARK    6  A    between atoms: C_14  and  C_24
REMARK    7  A    between atoms: C_24  and  C_25
REMARK    8  A    between atoms: C_31  and  C_32
REMARK                            x       y       z     vdW  Elec       q    Type
REMARK                         _______ _______ _______ _____ _____    ______ ____
ROOT
ATOM      1  S   UNL     1       0.290   2.227  25.884  0.00  0.00    -0.057 S 
ATOM      7  O   UNL     1       1.760  -0.112  22.137  0.00  0.00    -0.270 OA
ATOM      8  N   UNL     1      -0.423   1.246  23.599  0.00  0.00    -0.229 NA
ATOM     10  N   UNL     1       1.879   0.938  24.243  0.00  0.00    -0.261 N 
ATOM     11  C   UNL     1      -4.052   2.229  24.455  0.00  0.00    -0.019 C 
ATOM     12  C   UNL     1      -3.591   3.483  25.322  0.00  0.00    +0.011 C 
ATOM     13  C   UNL     1      -4.719   4.279  26.085  0.00  0.00    +0.021 C 
ATOM     14  C   UNL     1      -2.865   1.861  23.451  0.00  0.00    +0.054 C 
ATOM     15  C   UNL     1      -5.300   2.611  23.618  0.00  0.00    +0.010 C 
ATOM     16  C   UNL     1      -5.909   4.537  25.118  0.00  0.00    +0.123 C 
ATOM     17  C   UNL     1      -2.356   3.141  26.206  0.00  0.00    +0.049 C 
ATOM     18  C   UNL     1      -6.407   3.272  24.428  0.00  0.00    +0.032 C 
ATOM     19  C   UNL     1      -4.394   0.993  25.323  0.00  0.00    +0.012 C 
ATOM     20  C   UNL     1      -1.538   1.836  24.165  0.00  0.00    +0.058 A 
ATOM     22  C   UNL     1      -4.160   5.666  26.512  0.00  0.00    +0.016 C 
ATOM     23  C   UNL     1      -1.327   2.432  25.392  0.00  0.00    +0.015 A 
ATOM     26  C   UNL     1       0.596   1.385  24.419  0.00  0.00    +0.165 A 
ATOM     31  C   UNL     1       2.379   0.232  23.138  0.00  0.00    +0.250 C 
ATOM     40  H   UNL     1       2.505   1.208  24.996  0.00  0.00    +0.157 HD
ENDROOT
BRANCH  31  32
ATOM      2  F   UNL     1       5.954  -2.841  24.216  0.00  0.00    -0.205 F 
ATOM     32  C   UNL     1       3.827  -0.102  23.199  0.00  0.00    +0.040 A 
ATOM     33  C   UNL     1       4.204  -1.336  23.688  0.00  0.00    +0.051 A 
ATOM     34  C   UNL     1       4.744   0.831  22.765  0.00  0.00    +0.013 A 
ATOM     35  C   UNL     1       5.561  -1.651  23.745  0.00  0.00    +0.124 A 
ATOM     36  C   UNL     1       6.102   0.516  22.822  0.00  0.00    +0.004 A 
ATOM     37  C   UNL     1       6.510  -0.724  23.312  0.00  0.00    +0.038 A 
ENDBRANCH  31  32
BRANCH  16   3
ATOM      3  O   UNL     1      -6.999   5.142  25.813  0.00  0.00    -0.391 OA
ATOM     38  H   UNL     1      -6.770   5.182  26.756  0.00  0.00    +0.210 HD
ENDBRANCH  16   3
BRANCH  13  21
ATOM     21  C   UNL     1      -5.205   3.609  27.390  0.00  0.00    +0.165 C 
BRANCH  21   4
ATOM      4  O   UNL     1      -6.207   2.680  27.049  0.00  0.00    -0.394 OA
ATOM     39  H   UNL     1      -6.025   1.852  27.524  0.00  0.00    +0.209 HD
ENDBRANCH  21   4
ENDBRANCH  13  21
BRANCH  14  24
ATOM     24  C   UNL     1      -3.092   0.578  22.640  0.00  0.00    +0.106 C 
BRANCH  24  25
ATOM      5  O   UNL     1      -4.908  -0.662  23.525  0.00  0.00    -0.276 OA
ATOM      6  O   UNL     1      -1.340  -3.302  25.529  0.00  0.00    -0.377 OA
ATOM      9  N   UNL     1      -2.793  -1.225  24.297  0.00  0.00    -0.297 N 
ATOM     25  C   UNL     1      -3.687  -0.488  23.524  0.00  0.00    +0.216 C 
ATOM     27  C   UNL     1      -1.370  -1.419  24.001  0.00  0.00    +0.136 C 
ATOM     28  C   UNL     1      -3.217  -1.773  25.586  0.00  0.00    +0.136 C 
ATOM     29  C   UNL     1      -0.980  -2.876  24.213  0.00  0.00    +0.179 C 
ATOM     30  C   UNL     1      -2.753  -3.216  25.728  0.00  0.00    +0.179 C 
ENDBRANCH  24  25
ENDBRANCH  14  24
TORSDOF 6
ENDMDL
