MODEL 1
REMARK VINA RESULT:      -2.6      0.000      0.000
REMARK  Name = 71693045
REMARK  9 active torsions:
REMARK  status: ('A' for Active; 'I' for Inactive)
REMARK    1  A    between atoms: N_1  and  C_12
REMARK    2  A    between atoms: C_4  and  C_8
REMARK    3  A    between atoms: C_6  and  C_12
REMARK    4  A    between atoms: C_7  and  C_11
REMARK    5  A    between atoms: C_8  and  C_13
REMARK    6  A    between atoms: C_8  and  C_14
REMARK    7  A    between atoms: C_9  and  C_15
REMARK    8  A    between atoms: C_11  and  C_16
REMARK    9  A    between atoms: C_21  and  C_23
REMARK                            x       y       z     vdW  Elec       q    Type
REMARK                         _______ _______ _______ _____ _____    ______ ____
ROOT
ATOM      4  C   UNL     1      -3.669   0.290  23.930  0.00  0.00    +0.000 C 
ATOM      5  C   UNL     1      -2.418   0.658  23.120  0.00  0.00    +0.012 C 
ATOM      6  C   UNL     1      -3.997   1.403  24.955  0.00  0.00    +0.029 C 
ATOM      7  C   UNL     1      -1.178   0.929  23.998  0.00  0.00    +0.022 C 
ATOM      9  C   UNL     1      -1.505   1.694  25.271  0.00  0.00    -0.073 C 
ATOM     10  C   UNL     1      -2.772   1.906  25.675  0.00  0.00    -0.023 C 
ATOM     15  C   UNL     1      -0.353   2.168  26.113  0.00  0.00    +0.039 C 
ENDROOT
BRANCH   4   8
ATOM      8  C   UNL     1      -3.505  -1.072  24.618  0.00  0.00    -0.013 C 
ATOM     13  C   UNL     1      -3.933  -0.985  26.080  0.00  0.00    +0.007 C 
ATOM     14  C   UNL     1      -4.308  -2.139  23.882  0.00  0.00    +0.007 C 
ENDBRANCH   4   8
BRANCH   7  11
ATOM     11  C   UNL     1      -0.114   1.626  23.140  0.00  0.00    +0.082 C 
BRANCH  11  16
ATOM      2  N   UNL     1       2.388   1.624  23.107  0.00  0.00    -0.342 N 
ATOM      3  N   UNL     1       1.421  -0.343  23.473  0.00  0.00    -0.232 NA
ATOM     16  C   UNL     1       1.215   0.935  23.246  0.00  0.00    +0.109 A 
ATOM     17  C   UNL     1       3.419   0.732  23.254  0.00  0.00    +0.066 A 
ATOM     18  C   UNL     1       2.789  -0.489  23.482  0.00  0.00    +0.089 A 
ATOM     19  C   UNL     1       4.805   0.883  23.209  0.00  0.00    +0.031 A 
ATOM     20  C   UNL     1       3.573  -1.638  23.677  0.00  0.00    +0.030 A 
ATOM     21  C   UNL     1       5.570  -0.271  23.406  0.00  0.00    -0.048 A 
ATOM     22  C   UNL     1       4.968  -1.510  23.636  0.00  0.00    +0.005 A 
ATOM     23  C   UNL     1       7.060  -0.174  23.370  0.00  0.00    +0.044 C 
ATOM     26  H   UNL     1       2.481   2.616  22.930  0.00  0.00    +0.167 HD
ENDBRANCH  11  16
ENDBRANCH   7  11
BRANCH   6  12
ATOM     12  C   UNL     1      -4.715   2.584  24.295  0.00  0.00    +0.085 C 
BRANCH  12   1
ATOM      1  N   UNL     1      -5.064   3.590  25.283  0.00  0.00    -0.329 NA
ATOM     24  H   UNL     1      -4.329   3.669  25.983  0.00  0.00    +0.118 HD
ATOM     25  H   UNL     1      -5.900   3.296  25.786  0.00  0.00    +0.118 HD
ENDBRANCH  12   1
ENDBRANCH   6  12
TORSDOF 5
ENDMDL
MODEL 2
REMARK VINA RESULT:      -2.1      1.669      3.175
REMARK  Name = 71693045
REMARK  9 active torsions:
REMARK  status: ('A' for Active; 'I' for Inactive)
REMARK    1  A    between atoms: N_1  and  C_12
REMARK    2  A    between atoms: C_4  and  C_8
REMARK    3  A    between atoms: C_6  and  C_12
REMARK    4  A    between atoms: C_7  and  C_11
REMARK    5  A    between atoms: C_8  and  C_13
REMARK    6  A    between atoms: C_8  and  C_14
REMARK    7  A    between atoms: C_9  and  C_15
REMARK    8  A    between atoms: C_11  and  C_16
REMARK    9  A    between atoms: C_21  and  C_23
REMARK                            x       y       z     vdW  Elec       q    Type
REMARK                         _______ _______ _______ _____ _____    ______ ____
ROOT
ATOM      4  C   UNL     1      -3.086   2.864  25.793  0.00  0.00    +0.000 C 
ATOM      5  C   UNL     1      -2.213   1.656  25.427  0.00  0.00    +0.012 C 
ATOM      6  C   UNL     1      -4.315   2.948  24.855  0.00  0.00    +0.029 C 
ATOM      7  C   UNL     1      -1.739   1.666  23.957  0.00  0.00    +0.022 C 
ATOM      9  C   UNL     1      -2.809   2.145  22.990  0.00  0.00    -0.073 C 
ATOM     10  C   UNL     1      -3.959   2.705  23.411  0.00  0.00    -0.023 C 
ATOM     15  C   UNL     1      -2.518   2.028  21.519  0.00  0.00    +0.039 C 
ENDROOT
BRANCH   4   8
ATOM      8  C   UNL     1      -2.273   4.165  25.766  0.00  0.00    -0.013 C 
ATOM     13  C   UNL     1      -0.822   3.879  25.394  0.00  0.00    +0.007 C 
ATOM     14  C   UNL     1      -2.895   5.160  24.791  0.00  0.00    +0.007 C 
ENDBRANCH   4   8
BRANCH   7  11
ATOM     11  C   UNL     1      -1.199   0.273  23.608  0.00  0.00    +0.082 C 
BRANCH  11  16
ATOM      2  N   UNL     1       1.039  -0.831  23.789  0.00  0.00    -0.342 N 
ATOM      3  N   UNL     1       1.053   1.285  23.109  0.00  0.00    -0.232 NA
ATOM     16  C   UNL     1       0.298   0.279  23.490  0.00  0.00    +0.109 A 
ATOM     17  C   UNL     1       2.359  -0.521  23.586  0.00  0.00    +0.066 A 
ATOM     18  C   UNL     1       2.341   0.806  23.161  0.00  0.00    +0.089 A 
ATOM     19  C   UNL     1       3.531  -1.263  23.732  0.00  0.00    +0.031 A 
ATOM     20  C   UNL     1       3.556   1.445  22.862  0.00  0.00    +0.030 A 
ATOM     21  C   UNL     1       4.731  -0.611  23.429  0.00  0.00    -0.048 A 
ATOM     22  C   UNL     1       4.746   0.719  23.002  0.00  0.00    +0.005 A 
ATOM     23  C   UNL     1       6.021  -1.353  23.566  0.00  0.00    +0.044 C 
ATOM     26  H   UNL     1       0.679  -1.724  24.101  0.00  0.00    +0.167 HD
ENDBRANCH  11  16
ENDBRANCH   7  11
BRANCH   6  12
ATOM     12  C   UNL     1      -5.414   1.968  25.276  0.00  0.00    +0.085 C 
BRANCH  12   1
ATOM      1  N   UNL     1      -6.167   2.492  26.401  0.00  0.00    -0.329 NA
ATOM     24  H   UNL     1      -7.167   2.379  26.242  0.00  0.00    +0.118 HD
ATOM     25  H   UNL     1      -6.007   3.496  26.479  0.00  0.00    +0.118 HD
ENDBRANCH  12   1
ENDBRANCH   6  12
TORSDOF 5
ENDMDL
MODEL 3
REMARK VINA RESULT:      -2.0      1.732      2.708
REMARK  Name = 71693045
REMARK  9 active torsions:
REMARK  status: ('A' for Active; 'I' for Inactive)
REMARK    1  A    between atoms: N_1  and  C_12
REMARK    2  A    between atoms: C_4  and  C_8
REMARK    3  A    between atoms: C_6  and  C_12
REMARK    4  A    between atoms: C_7  and  C_11
REMARK    5  A    between atoms: C_8  and  C_13
REMARK    6  A    between atoms: C_8  and  C_14
REMARK    7  A    between atoms: C_9  and  C_15
REMARK    8  A    between atoms: C_11  and  C_16
REMARK    9  A    between atoms: C_21  and  C_23
REMARK                            x       y       z     vdW  Elec       q    Type
REMARK                         _______ _______ _______ _____ _____    ______ ____
ROOT
ATOM      4  C   UNL     1      -2.916   2.637  24.428  0.00  0.00    +0.000 C 
ATOM      5  C   UNL     1      -2.474   1.419  23.605  0.00  0.00    +0.012 C 
ATOM      6  C   UNL     1      -1.790   3.076  25.395  0.00  0.00    +0.029 C 
ATOM      7  C   UNL     1      -2.044   0.217  24.474  0.00  0.00    +0.022 C 
ATOM      9  C   UNL     1      -1.251   0.625  25.705  0.00  0.00    -0.073 C 
ATOM     10  C   UNL     1      -1.140   1.910  26.093  0.00  0.00    -0.023 C 
ATOM     15  C   UNL     1      -0.631  -0.471  26.527  0.00  0.00    +0.039 C 
ENDROOT
BRANCH   4   8
ATOM      8  C   UNL     1      -4.221   2.352  25.184  0.00  0.00    -0.013 C 
ATOM     13  C   UNL     1      -5.015   3.640  25.381  0.00  0.00    +0.007 C 
ATOM     14  C   UNL     1      -5.052   1.314  24.436  0.00  0.00    +0.007 C 
ENDBRANCH   4   8
BRANCH   7  11
ATOM     11  C   UNL     1      -1.294  -0.784  23.586  0.00  0.00    +0.082 C 
BRANCH  11  16
ATOM      2  N   UNL     1       1.148  -1.286  23.791  0.00  0.00    -0.342 N 
ATOM      3  N   UNL     1       0.635   0.725  22.998  0.00  0.00    -0.232 NA
ATOM     16  C   UNL     1       0.155  -0.414  23.445  0.00  0.00    +0.109 A 
ATOM     17  C   UNL     1       2.350  -0.671  23.551  0.00  0.00    +0.066 A 
ATOM     18  C   UNL     1       2.002   0.584  23.057  0.00  0.00    +0.089 A 
ATOM     19  C   UNL     1       3.670  -1.090  23.719  0.00  0.00    +0.031 A 
ATOM     20  C   UNL     1       3.020   1.486  22.704  0.00  0.00    +0.030 A 
ATOM     21  C   UNL     1       4.670  -0.178  23.363  0.00  0.00    -0.048 A 
ATOM     22  C   UNL     1       4.353   1.087  22.865  0.00  0.00    +0.005 A 
ATOM     23  C   UNL     1       6.103  -0.569  23.520  0.00  0.00    +0.044 C 
ATOM     26  H   UNL     1       1.022  -2.222  24.157  0.00  0.00    +0.167 HD
ENDBRANCH  11  16
ENDBRANCH   7  11
BRANCH   6  12
ATOM     12  C   UNL     1      -0.715   3.896  24.674  0.00  0.00    +0.085 C 
BRANCH  12   1
ATOM      1  N   UNL     1      -0.906   5.315  24.913  0.00  0.00    -0.329 NA
ATOM     24  H   UNL     1      -0.555   5.571  25.834  0.00  0.00    +0.118 HD
ATOM     25  H   UNL     1      -1.903   5.527  24.923  0.00  0.00    +0.118 HD
ENDBRANCH  12   1
ENDBRANCH   6  12
TORSDOF 5
ENDMDL
MODEL 4
REMARK VINA RESULT:      -0.9      1.435      3.169
REMARK  Name = 71693045
REMARK  9 active torsions:
REMARK  status: ('A' for Active; 'I' for Inactive)
REMARK    1  A    between atoms: N_1  and  C_12
REMARK    2  A    between atoms: C_4  and  C_8
REMARK    3  A    between atoms: C_6  and  C_12
REMARK    4  A    between atoms: C_7  and  C_11
REMARK    5  A    between atoms: C_8  and  C_13
REMARK    6  A    between atoms: C_8  and  C_14
REMARK    7  A    between atoms: C_9  and  C_15
REMARK    8  A    between atoms: C_11  and  C_16
REMARK    9  A    between atoms: C_21  and  C_23
REMARK                            x       y       z     vdW  Elec       q    Type
REMARK                         _______ _______ _______ _____ _____    ______ ____
ROOT
ATOM      4  C   UNL     1      -3.798   2.168  24.580  0.00  0.00    +0.000 C 
ATOM      5  C   UNL     1      -2.555   1.300  24.814  0.00  0.00    +0.012 C 
ATOM      6  C   UNL     1      -5.079   1.401  24.986  0.00  0.00    +0.029 C 
ATOM      7  C   UNL     1      -2.602  -0.052  24.070  0.00  0.00    +0.022 C 
ATOM      9  C   UNL     1      -3.982  -0.690  24.081  0.00  0.00    -0.073 C 
ATOM     10  C   UNL     1      -5.075  -0.028  24.506  0.00  0.00    -0.023 C 
ATOM     15  C   UNL     1      -4.106  -2.088  23.541  0.00  0.00    +0.039 C 
ENDROOT
BRANCH   4   8
ATOM      8  C   UNL     1      -3.873   2.649  23.124  0.00  0.00    -0.013 C 
ATOM     13  C   UNL     1      -4.043   4.164  23.071  0.00  0.00    +0.007 C 
ATOM     14  C   UNL     1      -2.626   2.218  22.358  0.00  0.00    +0.007 C 
ENDBRANCH   4   8
BRANCH   7  11
ATOM     11  C   UNL     1      -1.516  -0.968  24.649  0.00  0.00    +0.082 C 
BRANCH  11  16
ATOM      2  N   UNL     1       0.931  -1.371  24.325  0.00  0.00    -0.342 N 
ATOM      3  N   UNL     1       0.186   0.627  23.700  0.00  0.00    -0.232 NA
ATOM     16  C   UNL     1      -0.145  -0.536  24.214  0.00  0.00    +0.109 A 
ATOM     17  C   UNL     1       2.031  -0.703  23.850  0.00  0.00    +0.066 A 
ATOM     18  C   UNL     1       1.539   0.542  23.466  0.00  0.00    +0.089 A 
ATOM     19  C   UNL     1       3.372  -1.069  23.728  0.00  0.00    +0.031 A 
ATOM     20  C   UNL     1       2.425   1.490  22.927  0.00  0.00    +0.030 A 
ATOM     21  C   UNL     1       4.238  -0.112  23.189  0.00  0.00    -0.048 A 
ATOM     22  C   UNL     1       3.776   1.145  22.795  0.00  0.00    +0.005 A 
ATOM     23  C   UNL     1       5.687  -0.445  23.032  0.00  0.00    +0.044 C 
ATOM     26  H   UNL     1       0.921  -2.315  24.689  0.00  0.00    +0.167 HD
ENDBRANCH  11  16
ENDBRANCH   7  11
BRANCH   6  12
ATOM     12  C   UNL     1      -5.294   1.423  26.502  0.00  0.00    +0.085 C 
BRANCH  12   1
ATOM      1  N   UNL     1      -6.365   2.337  26.856  0.00  0.00    -0.329 NA
ATOM     24  H   UNL     1      -6.238   2.682  27.806  0.00  0.00    +0.118 HD
ATOM     25  H   UNL     1      -7.253   1.837  26.855  0.00  0.00    +0.118 HD
ENDBRANCH  12   1
ENDBRANCH   6  12
TORSDOF 5
ENDMDL
MODEL 5
REMARK VINA RESULT:      -0.8      3.700      5.969
REMARK  Name = 71693045
REMARK  9 active torsions:
REMARK  status: ('A' for Active; 'I' for Inactive)
REMARK    1  A    between atoms: N_1  and  C_12
REMARK    2  A    between atoms: C_4  and  C_8
REMARK    3  A    between atoms: C_6  and  C_12
REMARK    4  A    between atoms: C_7  and  C_11
REMARK    5  A    between atoms: C_8  and  C_13
REMARK    6  A    between atoms: C_8  and  C_14
REMARK    7  A    between atoms: C_9  and  C_15
REMARK    8  A    between atoms: C_11  and  C_16
REMARK    9  A    between atoms: C_21  and  C_23
REMARK                            x       y       z     vdW  Elec       q    Type
REMARK                         _______ _______ _______ _____ _____    ______ ____
ROOT
ATOM      4  C   UNL     1      -2.850   4.604  25.754  0.00  0.00    +0.000 C 
ATOM      5  C   UNL     1      -1.884   3.536  26.283  0.00  0.00    +0.012 C 
ATOM      6  C   UNL     1      -3.797   3.999  24.689  0.00  0.00    +0.029 C 
ATOM      7  C   UNL     1      -1.046   2.864  25.173  0.00  0.00    +0.022 C 
ATOM      9  C   UNL     1      -1.842   2.601  23.904  0.00  0.00    -0.073 C 
ATOM     10  C   UNL     1      -3.074   3.108  23.712  0.00  0.00    -0.023 C 
ATOM     15  C   UNL     1      -1.178   1.792  22.823  0.00  0.00    +0.039 C 
ENDROOT
BRANCH   4   8
ATOM      8  C   UNL     1      -2.089   5.816  25.200  0.00  0.00    -0.013 C 
ATOM     13  C   UNL     1      -0.626   5.460  24.956  0.00  0.00    +0.007 C 
ATOM     14  C   UNL     1      -2.745   6.313  23.915  0.00  0.00    +0.007 C 
ENDBRANCH   4   8
BRANCH   7  11
ATOM     11  C   UNL     1      -0.402   1.595  25.746  0.00  0.00    +0.082 C 
BRANCH  11  16
ATOM      2  N   UNL     1      -2.474   0.364  25.074  0.00  0.00    -0.342 N 
ATOM      3  N   UNL     1      -0.594  -0.820  25.058  0.00  0.00    -0.232 NA
ATOM     16  C   UNL     1      -1.125   0.359  25.292  0.00  0.00    +0.109 A 
ATOM     17  C   UNL     1      -2.838  -0.895  24.671  0.00  0.00    +0.066 A 
ATOM     18  C   UNL     1      -1.646  -1.615  24.669  0.00  0.00    +0.089 A 
ATOM     19  C   UNL     1      -4.069  -1.448  24.318  0.00  0.00    +0.031 A 
ATOM     20  C   UNL     1      -1.667  -2.970  24.297  0.00  0.00    +0.030 A 
ATOM     21  C   UNL     1      -4.070  -2.798  23.951  0.00  0.00    -0.048 A 
ATOM     22  C   UNL     1      -2.892  -3.547  23.940  0.00  0.00    +0.005 A 
ATOM     23  C   UNL     1      -5.358  -3.449  23.563  0.00  0.00    +0.044 C 
ATOM     26  H   UNL     1      -3.095   1.156  25.186  0.00  0.00    +0.167 HD
ENDBRANCH  11  16
ENDBRANCH   7  11
BRANCH   6  12
ATOM     12  C   UNL     1      -4.944   3.215  25.334  0.00  0.00    +0.085 C 
BRANCH  12   1
ATOM      1  N   UNL     1      -5.186   1.976  24.617  0.00  0.00    -0.329 NA
ATOM     24  H   UNL     1      -5.763   1.349  25.176  0.00  0.00    +0.118 HD
ATOM     25  H   UNL     1      -4.303   1.489  24.472  0.00  0.00    +0.118 HD
ENDBRANCH  12   1
ENDBRANCH   6  12
TORSDOF 5
ENDMDL
MODEL 6
REMARK VINA RESULT:      -0.8      1.887      3.237
REMARK  Name = 71693045
REMARK  9 active torsions:
REMARK  status: ('A' for Active; 'I' for Inactive)
REMARK    1  A    between atoms: N_1  and  C_12
REMARK    2  A    between atoms: C_4  and  C_8
REMARK    3  A    between atoms: C_6  and  C_12
REMARK    4  A    between atoms: C_7  and  C_11
REMARK    5  A    between atoms: C_8  and  C_13
REMARK    6  A    between atoms: C_8  and  C_14
REMARK    7  A    between atoms: C_9  and  C_15
REMARK    8  A    between atoms: C_11  and  C_16
REMARK    9  A    between atoms: C_21  and  C_23
REMARK                            x       y       z     vdW  Elec       q    Type
REMARK                         _______ _______ _______ _____ _____    ______ ____
ROOT
ATOM      4  C   UNL     1      -4.399   1.015  25.594  0.00  0.00    +0.000 C 
ATOM      5  C   UNL     1      -3.222   1.998  25.666  0.00  0.00    +0.012 C 
ATOM      6  C   UNL     1      -4.174  -0.019  24.465  0.00  0.00    +0.029 C 
ATOM      7  C   UNL     1      -2.960   2.737  24.336  0.00  0.00    +0.022 C 
ATOM      9  C   UNL     1      -3.127   1.846  23.116  0.00  0.00    -0.073 C 
ATOM     10  C   UNL     1      -3.661   0.612  23.196  0.00  0.00    -0.023 C 
ATOM     15  C   UNL     1      -2.726   2.412  21.781  0.00  0.00    +0.039 C 
ENDROOT
BRANCH   4   8
ATOM      8  C   UNL     1      -5.730   1.757  25.416  0.00  0.00    -0.013 C 
ATOM     13  C   UNL     1      -6.699   1.391  26.536  0.00  0.00    +0.007 C 
ATOM     14  C   UNL     1      -5.498   3.264  25.374  0.00  0.00    +0.007 C 
ENDBRANCH   4   8
BRANCH   7  11
ATOM     11  C   UNL     1      -1.578   3.398  24.407  0.00  0.00    +0.082 C 
BRANCH  11  16
ATOM      2  N   UNL     1       0.791   2.853  23.811  0.00  0.00    -0.342 N 
ATOM      3  N   UNL     1      -0.605   1.128  23.914  0.00  0.00    -0.232 NA
ATOM     16  C   UNL     1      -0.488   2.430  24.046  0.00  0.00    +0.109 A 
ATOM     17  C   UNL     1       1.549   1.752  23.509  0.00  0.00    +0.066 A 
ATOM     18  C   UNL     1       0.654   0.687  23.581  0.00  0.00    +0.089 A 
ATOM     19  C   UNL     1       2.898   1.600  23.190  0.00  0.00    +0.031 A 
ATOM     20  C   UNL     1       1.117  -0.614  23.320  0.00  0.00    +0.030 A 
ATOM     21  C   UNL     1       3.341   0.298  22.933  0.00  0.00    -0.048 A 
ATOM     22  C   UNL     1       2.469  -0.791  22.996  0.00  0.00    +0.005 A 
ATOM     23  C   UNL     1       4.776   0.069  22.586  0.00  0.00    +0.044 C 
ATOM     26  H   UNL     1       1.121   3.809  23.855  0.00  0.00    +0.167 HD
ENDBRANCH  11  16
ENDBRANCH   7  11
BRANCH   6  12
ATOM     12  C   UNL     1      -3.213  -1.130  24.900  0.00  0.00    +0.085 C 
BRANCH  12   1
ATOM      1  N   UNL     1      -3.747  -2.435  24.555  0.00  0.00    -0.329 NA
ATOM     24  H   UNL     1      -3.916  -2.984  25.396  0.00  0.00    +0.118 HD
ATOM     25  H   UNL     1      -3.055  -2.954  24.015  0.00  0.00    +0.118 HD
ENDBRANCH  12   1
ENDBRANCH   6  12
TORSDOF 5
ENDMDL
MODEL 7
REMARK VINA RESULT:      -0.3      3.819      5.888
REMARK  Name = 71693045
REMARK  9 active torsions:
REMARK  status: ('A' for Active; 'I' for Inactive)
REMARK    1  A    between atoms: N_1  and  C_12
REMARK    2  A    between atoms: C_4  and  C_8
REMARK    3  A    between atoms: C_6  and  C_12
REMARK    4  A    between atoms: C_7  and  C_11
REMARK    5  A    between atoms: C_8  and  C_13
REMARK    6  A    between atoms: C_8  and  C_14
REMARK    7  A    between atoms: C_9  and  C_15
REMARK    8  A    between atoms: C_11  and  C_16
REMARK    9  A    between atoms: C_21  and  C_23
REMARK                            x       y       z     vdW  Elec       q    Type
REMARK                         _______ _______ _______ _____ _____    ______ ____
ROOT
ATOM      4  C   UNL     1      -1.060   3.710  24.436  0.00  0.00    +0.000 C 
ATOM      5  C   UNL     1      -2.147   2.822  23.816  0.00  0.00    +0.012 C 
ATOM      6  C   UNL     1      -1.218   3.764  25.975  0.00  0.00    +0.029 C 
ATOM      7  C   UNL     1      -3.581   3.271  24.170  0.00  0.00    +0.022 C 
ATOM      9  C   UNL     1      -3.719   3.740  25.609  0.00  0.00    -0.073 C 
ATOM     10  C   UNL     1      -2.652   3.943  26.404  0.00  0.00    -0.023 C 
ATOM     15  C   UNL     1      -5.106   4.032  26.115  0.00  0.00    +0.039 C 
ENDROOT
BRANCH   4   8
ATOM      8  C   UNL     1      -1.076   5.117  23.823  0.00  0.00    -0.013 C 
ATOM     13  C   UNL     1      -1.182   6.174  24.918  0.00  0.00    +0.007 C 
ATOM     14  C   UNL     1       0.172   5.341  22.975  0.00  0.00    +0.007 C 
ENDBRANCH   4   8
BRANCH   7  11
ATOM     11  C   UNL     1      -4.551   2.136  23.816  0.00  0.00    +0.082 C 
BRANCH  11  16
ATOM      2  N   UNL     1      -2.620   0.665  24.422  0.00  0.00    -0.342 N 
ATOM      3  N   UNL     1      -4.532  -0.377  23.978  0.00  0.00    -0.232 NA
ATOM     16  C   UNL     1      -3.933   0.790  24.065  0.00  0.00    +0.109 A 
ATOM     17  C   UNL     1      -2.353  -0.671  24.578  0.00  0.00    +0.066 A 
ATOM     18  C   UNL     1      -3.563  -1.300  24.295  0.00  0.00    +0.089 A 
ATOM     19  C   UNL     1      -1.193  -1.362  24.931  0.00  0.00    +0.031 A 
ATOM     20  C   UNL     1      -3.637  -2.701  24.363  0.00  0.00    +0.030 A 
ATOM     21  C   UNL     1      -1.286  -2.756  24.993  0.00  0.00    -0.048 A 
ATOM     22  C   UNL     1      -2.485  -3.416  24.715  0.00  0.00    +0.005 A 
ATOM     23  C   UNL     1      -0.078  -3.553  25.366  0.00  0.00    +0.044 C 
ATOM     26  H   UNL     1      -1.961   1.422  24.552  0.00  0.00    +0.167 HD
ENDBRANCH  11  16
ENDBRANCH   7  11
BRANCH   6  12
ATOM     12  C   UNL     1      -0.643   2.513  26.646  0.00  0.00    +0.085 C 
BRANCH  12   1
ATOM      1  N   UNL     1       0.544   2.054  25.946  0.00  0.00    -0.329 NA
ATOM     24  H   UNL     1       1.282   1.828  26.610  0.00  0.00    +0.118 HD
ATOM     25  H   UNL     1       0.910   2.809  25.366  0.00  0.00    +0.118 HD
ENDBRANCH  12   1
ENDBRANCH   6  12
TORSDOF 5
ENDMDL
MODEL 8
REMARK VINA RESULT:      -0.1      2.287      3.251
REMARK  Name = 71693045
REMARK  9 active torsions:
REMARK  status: ('A' for Active; 'I' for Inactive)
REMARK    1  A    between atoms: N_1  and  C_12
REMARK    2  A    between atoms: C_4  and  C_8
REMARK    3  A    between atoms: C_6  and  C_12
REMARK    4  A    between atoms: C_7  and  C_11
REMARK    5  A    between atoms: C_8  and  C_13
REMARK    6  A    between atoms: C_8  and  C_14
REMARK    7  A    between atoms: C_9  and  C_15
REMARK    8  A    between atoms: C_11  and  C_16
REMARK    9  A    between atoms: C_21  and  C_23
REMARK                            x       y       z     vdW  Elec       q    Type
REMARK                         _______ _______ _______ _____ _____    ______ ____
ROOT
ATOM      4  C   UNL     1      -4.506   1.941  24.297  0.00  0.00    +0.000 C 
ATOM      5  C   UNL     1      -3.350   1.520  25.214  0.00  0.00    +0.012 C 
ATOM      6  C   UNL     1      -3.992   2.863  23.166  0.00  0.00    +0.029 C 
ATOM      7  C   UNL     1      -2.590   2.716  25.830  0.00  0.00    +0.022 C 
ATOM      9  C   UNL     1      -2.401   3.867  24.855  0.00  0.00    -0.073 C 
ATOM     10  C   UNL     1      -3.027   3.908  23.664  0.00  0.00    -0.023 C 
ATOM     15  C   UNL     1      -1.523   5.008  25.290  0.00  0.00    +0.039 C 
ENDROOT
BRANCH   4   8
ATOM      8  C   UNL     1      -5.632   2.612  25.096  0.00  0.00    -0.013 C 
ATOM     13  C   UNL     1      -6.084   1.710  26.240  0.00  0.00    +0.007 C 
ATOM     14  C   UNL     1      -5.174   3.967  25.625  0.00  0.00    +0.007 C 
ENDBRANCH   4   8
BRANCH   7  11
ATOM     11  C   UNL     1      -1.268   2.206  26.415  0.00  0.00    +0.082 C 
BRANCH  11  16
ATOM      2  N   UNL     1       0.875   2.053  25.133  0.00  0.00    -0.342 N 
ATOM      3  N   UNL     1      -0.713   0.615  24.544  0.00  0.00    -0.232 NA
ATOM     16  C   UNL     1      -0.395   1.600  25.353  0.00  0.00    +0.109 A 
ATOM     17  C   UNL     1       1.415   1.311  24.113  0.00  0.00    +0.066 A 
ATOM     18  C   UNL     1       0.403   0.420  23.763  0.00  0.00    +0.089 A 
ATOM     19  C   UNL     1       2.661   1.342  23.487  0.00  0.00    +0.031 A 
ATOM     20  C   UNL     1       0.632  -0.502  22.728  0.00  0.00    +0.030 A 
ATOM     21  C   UNL     1       2.871   0.417  22.459  0.00  0.00    -0.048 A 
ATOM     22  C   UNL     1       1.877  -0.489  22.084  0.00  0.00    +0.005 A 
ATOM     23  C   UNL     1       4.186   0.400  21.749  0.00  0.00    +0.044 C 
ATOM     26  H   UNL     1       1.338   2.801  25.633  0.00  0.00    +0.167 HD
ENDBRANCH  11  16
ENDBRANCH   7  11
BRANCH   6  12
ATOM     12  C   UNL     1      -3.331   2.062  22.040  0.00  0.00    +0.085 C 
BRANCH  12   1
ATOM      1  N   UNL     1      -3.203   2.869  20.841  0.00  0.00    -0.329 NA
ATOM     24  H   UNL     1      -4.118   3.036  20.426  0.00  0.00    +0.118 HD
ATOM     25  H   UNL     1      -2.667   2.356  20.141  0.00  0.00    +0.118 HD
ENDBRANCH  12   1
ENDBRANCH   6  12
TORSDOF 5
ENDMDL
MODEL 9
REMARK VINA RESULT:       0.3      2.346      7.155
REMARK  Name = 71693045
REMARK  9 active torsions:
REMARK  status: ('A' for Active; 'I' for Inactive)
REMARK    1  A    between atoms: N_1  and  C_12
REMARK    2  A    between atoms: C_4  and  C_8
REMARK    3  A    between atoms: C_6  and  C_12
REMARK    4  A    between atoms: C_7  and  C_11
REMARK    5  A    between atoms: C_8  and  C_13
REMARK    6  A    between atoms: C_8  and  C_14
REMARK    7  A    between atoms: C_9  and  C_15
REMARK    8  A    between atoms: C_11  and  C_16
REMARK    9  A    between atoms: C_21  and  C_23
REMARK                            x       y       z     vdW  Elec       q    Type
REMARK                         _______ _______ _______ _____ _____    ______ ____
ROOT
ATOM      4  C   UNL     1       1.047   0.054  23.158  0.00  0.00    +0.000 C 
ATOM      5  C   UNL     1       0.607   1.511  22.962  0.00  0.00    +0.012 C 
ATOM      6  C   UNL     1       0.185  -0.630  24.246  0.00  0.00    +0.029 C 
ATOM      7  C   UNL     1       0.659   2.346  24.259  0.00  0.00    +0.022 C 
ATOM      9  C   UNL     1       0.192   1.575  25.483  0.00  0.00    -0.073 C 
ATOM     10  C   UNL     1      -0.025   0.246  25.454  0.00  0.00    -0.023 C 
ATOM     15  C   UNL     1       0.032   2.340  26.768  0.00  0.00    +0.039 C 
ENDROOT
BRANCH   4   8
ATOM      8  C   UNL     1       2.542  -0.034  23.493  0.00  0.00    -0.013 C 
ATOM     13  C   UNL     1       3.007  -1.487  23.481  0.00  0.00    +0.007 C 
ATOM     14  C   UNL     1       3.357   0.802  22.510  0.00  0.00    +0.007 C 
ENDBRANCH   4   8
BRANCH   7  11
ATOM     11  C   UNL     1      -0.128   3.645  24.037  0.00  0.00    +0.082 C 
BRANCH  11  16
ATOM      2  N   UNL     1      -2.306   2.420  23.917  0.00  0.00    -0.342 N 
ATOM      3  N   UNL     1      -2.298   4.267  25.152  0.00  0.00    -0.232 NA
ATOM     16  C   UNL     1      -1.578   3.475  24.390  0.00  0.00    +0.109 A 
ATOM     17  C   UNL     1      -3.581   2.536  24.407  0.00  0.00    +0.066 A 
ATOM     18  C   UNL     1      -3.551   3.697  25.175  0.00  0.00    +0.089 A 
ATOM     19  C   UNL     1      -4.723   1.751  24.249  0.00  0.00    +0.031 A 
ATOM     20  C   UNL     1      -4.721   4.115  25.831  0.00  0.00    +0.030 A 
ATOM     21  C   UNL     1      -5.879   2.182  24.909  0.00  0.00    -0.048 A 
ATOM     22  C   UNL     1      -5.880   3.342  25.687  0.00  0.00    +0.005 A 
ATOM     23  C   UNL     1      -7.135   1.383  24.780  0.00  0.00    +0.044 C 
ATOM     26  H   UNL     1      -1.966   1.681  23.314  0.00  0.00    +0.167 HD
ENDBRANCH  11  16
ENDBRANCH   7  11
BRANCH   6  12
ATOM     12  C   UNL     1      -1.176  -1.068  23.697  0.00  0.00    +0.085 C 
BRANCH  12   1
ATOM      1  N   UNL     1      -2.226  -0.822  24.669  0.00  0.00    -0.329 NA
ATOM     24  H   UNL     1      -3.059  -0.461  24.207  0.00  0.00    +0.118 HD
ATOM     25  H   UNL     1      -1.926  -0.093  25.316  0.00  0.00    +0.118 HD
ENDBRANCH  12   1
ENDBRANCH   6  12
TORSDOF 5
ENDMDL
MODEL 10
REMARK VINA RESULT:       0.7      3.521      5.768
REMARK  Name = 71693045
REMARK  9 active torsions:
REMARK  status: ('A' for Active; 'I' for Inactive)
REMARK    1  A    between atoms: N_1  and  C_12
REMARK    2  A    between atoms: C_4  and  C_8
REMARK    3  A    between atoms: C_6  and  C_12
REMARK    4  A    between atoms: C_7  and  C_11
REMARK    5  A    between atoms: C_8  and  C_13
REMARK    6  A    between atoms: C_8  and  C_14
REMARK    7  A    between atoms: C_9  and  C_15
REMARK    8  A    between atoms: C_11  and  C_16
REMARK    9  A    between atoms: C_21  and  C_23
REMARK                            x       y       z     vdW  Elec       q    Type
REMARK                         _______ _______ _______ _____ _____    ______ ____
ROOT
ATOM      4  C   UNL     1      -2.556   4.615  25.828  0.00  0.00    +0.000 C 
ATOM      5  C   UNL     1      -1.502   3.549  26.159  0.00  0.00    +0.012 C 
ATOM      6  C   UNL     1      -3.669   4.018  24.934  0.00  0.00    +0.029 C 
ATOM      7  C   UNL     1      -0.868   2.906  24.906  0.00  0.00    +0.022 C 
ATOM      9  C   UNL     1      -1.871   2.657  23.791  0.00  0.00    -0.073 C 
ATOM     10  C   UNL     1      -3.122   3.152  23.828  0.00  0.00    -0.023 C 
ATOM     15  C   UNL     1      -1.401   1.875  22.596  0.00  0.00    +0.039 C 
ENDROOT
BRANCH   4   8
ATOM      8  C   UNL     1      -1.914   5.845  25.172  0.00  0.00    -0.013 C 
ATOM     13  C   UNL     1      -0.484   5.534  24.741  0.00  0.00    +0.007 C 
ATOM     14  C   UNL     1      -2.748   6.310  23.982  0.00  0.00    +0.007 C 
ENDBRANCH   4   8
BRANCH   7  11
ATOM     11  C   UNL     1      -0.122   1.636  25.333  0.00  0.00    +0.082 C 
BRANCH  11  16
ATOM      2  N   UNL     1      -0.584  -0.592  24.292  0.00  0.00    -0.342 N 
ATOM      3  N   UNL     1      -2.120   0.151  25.715  0.00  0.00    -0.232 NA
ATOM     16  C   UNL     1      -0.969   0.411  25.137  0.00  0.00    +0.109 A 
ATOM     17  C   UNL     1      -1.551  -1.564  24.326  0.00  0.00    +0.066 A 
ATOM     18  C   UNL     1      -2.499  -1.076  25.222  0.00  0.00    +0.089 A 
ATOM     19  C   UNL     1      -1.674  -2.789  23.671  0.00  0.00    +0.031 A 
ATOM     20  C   UNL     1      -3.645  -1.843  25.490  0.00  0.00    +0.030 A 
ATOM     21  C   UNL     1      -2.821  -3.540  23.950  0.00  0.00    -0.048 A 
ATOM     22  C   UNL     1      -3.790  -3.078  24.844  0.00  0.00    +0.005 A 
ATOM     23  C   UNL     1      -3.010  -4.861  23.280  0.00  0.00    +0.044 C 
ATOM     26  H   UNL     1       0.264  -0.616  23.740  0.00  0.00    +0.167 HD
ENDBRANCH  11  16
ENDBRANCH   7  11
BRANCH   6  12
ATOM     12  C   UNL     1      -4.679   3.209  25.755  0.00  0.00    +0.085 C 
BRANCH  12   1
ATOM      1  N   UNL     1      -5.975   3.863  25.763  0.00  0.00    -0.329 NA
ATOM     24  H   UNL     1      -6.656   3.296  26.266  0.00  0.00    +0.118 HD
ATOM     25  H   UNL     1      -6.324   3.938  24.808  0.00  0.00    +0.118 HD
ENDBRANCH  12   1
ENDBRANCH   6  12
TORSDOF 5
ENDMDL
