MODEL 1
REMARK VINA RESULT:       3.4      0.000      0.000
REMARK  Name = 7142734
REMARK  5 active torsions:
REMARK  status: ('A' for Active; 'I' for Inactive)
REMARK    1  A    between atoms: O_4  and  C_22
REMARK    2  A    between atoms: O_4  and  C_24
REMARK    3  A    between atoms: N_8  and  C_20
REMARK    4  A    between atoms: N_9  and  C_27
REMARK    5  A    between atoms: C_19  and  C_22
REMARK                            x       y       z     vdW  Elec       q    Type
REMARK                         _______ _______ _______ _____ _____    ______ ____
ROOT
ATOM      2  O   UNL     1      -0.602   3.049  25.944  0.00  0.00    -0.266 OA
ATOM      3  O   UNL     1      -4.536  -0.521  26.622  0.00  0.00    -0.272 OA
ATOM      6  N   UNL     1      -5.272   1.290  25.367  0.00  0.00    -0.298 N 
ATOM      7  N   UNL     1      -2.723   3.180  24.973  0.00  0.00    -0.310 N 
ATOM     10  C   UNL     1      -4.853   3.551  26.344  0.00  0.00    +0.027 C 
ATOM     11  C   UNL     1      -5.002   3.285  23.904  0.00  0.00    +0.054 C 
ATOM     12  C   UNL     1      -5.394   4.190  25.071  0.00  0.00    +0.018 C 
ATOM     13  C   UNL     1      -5.452   2.147  26.540  0.00  0.00    +0.113 C 
ATOM     14  C   UNL     1      -3.322   3.519  26.271  0.00  0.00    +0.130 C 
ATOM     15  C   UNL     1      -5.652   1.899  24.084  0.00  0.00    +0.117 C 
ATOM     16  C   UNL     1      -3.495   3.138  23.808  0.00  0.00    +0.027 A 
ATOM     17  C   UNL     1      -2.909   2.942  22.615  0.00  0.00    +0.024 A 
ATOM     18  C   UNL     1      -1.325   3.003  24.947  0.00  0.00    +0.273 A 
ATOM     19  C   UNL     1      -4.850  -0.029  25.536  0.00  0.00    +0.253 C 
ATOM     20  C   UNL     1      -0.713   2.762  23.602  0.00  0.00    +0.100 A 
ATOM     21  C   UNL     1      -1.490   2.748  22.513  0.00  0.00    +0.030 A 
ENDROOT
BRANCH  20   8
ATOM      5  O   UNL     1       0.633   0.258  23.661  0.00  0.00    -0.252 OA
ATOM      8  N   UNL     1       0.636   2.573  23.536  0.00  0.00    -0.265 N 
ATOM      9  N   UNL     1       2.642   1.459  23.484  0.00  0.00    -0.269 N 
ATOM     23  C   UNL     1       1.254   1.316  23.569  0.00  0.00    +0.308 C 
ATOM     36  H   UNL     1       1.223   3.382  23.719  0.00  0.00    +0.157 HD
ATOM     37  H   UNL     1       2.998   2.409  23.410  0.00  0.00    +0.156 HD
BRANCH   9  27
ATOM      1  F   UNL     1       7.228   0.078  23.161  0.00  0.00    -0.205 F 
ATOM     27  C   UNL     1       3.623   0.441  23.483  0.00  0.00    +0.037 A 
ATOM     31  C   UNL     1       4.969   0.768  23.319  0.00  0.00    +0.061 A 
ATOM     32  C   UNL     1       3.244  -0.891  23.649  0.00  0.00    +0.023 A 
ATOM     33  C   UNL     1       5.936  -0.238  23.319  0.00  0.00    +0.125 A 
ATOM     34  C   UNL     1       4.211  -1.897  23.649  0.00  0.00    +0.005 A 
ATOM     35  C   UNL     1       5.557  -1.569  23.485  0.00  0.00    +0.038 A 
ENDBRANCH   9  27
ENDBRANCH  20   8
BRANCH  19  22
ATOM     22  C   UNL     1      -4.778  -0.879  24.293  0.00  0.00    +0.324 C 
BRANCH  22   4
ATOM      4  O   UNL     1      -3.511  -0.655  23.725  0.00  0.00    -0.483 OA
BRANCH   4  24
ATOM     24  C   UNL     1      -2.414  -1.096  24.432  0.00  0.00    +0.121 A 
ATOM     25  C   UNL     1      -1.859  -2.344  24.151  0.00  0.00    +0.045 A 
ATOM     26  C   UNL     1      -1.859  -0.294  25.429  0.00  0.00    +0.045 A 
ATOM     28  C   UNL     1      -0.748  -2.790  24.867  0.00  0.00    +0.004 A 
ATOM     29  C   UNL     1      -0.749  -0.741  26.145  0.00  0.00    +0.004 A 
ATOM     30  C   UNL     1      -0.192  -1.989  25.864  0.00  0.00    +0.000 A 
ENDBRANCH   4  24
ENDBRANCH  22   4
ENDBRANCH  19  22
TORSDOF 5
ENDMDL
MODEL 2
REMARK VINA RESULT:       3.5      1.357      1.824
REMARK  Name = 7142734
REMARK  5 active torsions:
REMARK  status: ('A' for Active; 'I' for Inactive)
REMARK    1  A    between atoms: O_4  and  C_22
REMARK    2  A    between atoms: O_4  and  C_24
REMARK    3  A    between atoms: N_8  and  C_20
REMARK    4  A    between atoms: N_9  and  C_27
REMARK    5  A    between atoms: C_19  and  C_22
REMARK                            x       y       z     vdW  Elec       q    Type
REMARK                         _______ _______ _______ _____ _____    ______ ____
ROOT
ATOM      2  O   UNL     1      -0.537   1.704  25.756  0.00  0.00    -0.266 OA
ATOM      3  O   UNL     1      -5.708   1.090  27.005  0.00  0.00    -0.272 OA
ATOM      6  N   UNL     1      -5.426   2.833  25.496  0.00  0.00    -0.298 N 
ATOM      7  N   UNL     1      -2.307   2.891  24.796  0.00  0.00    -0.310 N 
ATOM     10  C   UNL     1      -3.730   4.560  26.114  0.00  0.00    +0.027 C 
ATOM     11  C   UNL     1      -4.229   4.134  23.744  0.00  0.00    +0.054 C 
ATOM     12  C   UNL     1      -3.940   5.235  24.764  0.00  0.00    +0.018 C 
ATOM     13  C   UNL     1      -4.988   3.776  26.527  0.00  0.00    +0.113 C 
ATOM     14  C   UNL     1      -2.491   3.662  26.033  0.00  0.00    +0.130 C 
ATOM     15  C   UNL     1      -5.521   3.391  24.139  0.00  0.00    +0.117 C 
ATOM     16  C   UNL     1      -3.076   3.152  23.658  0.00  0.00    +0.027 A 
ATOM     17  C   UNL     1      -2.813   2.517  22.503  0.00  0.00    +0.024 A 
ATOM     18  C   UNL     1      -1.253   1.954  24.785  0.00  0.00    +0.273 A 
ATOM     19  C   UNL     1      -5.796   1.538  25.860  0.00  0.00    +0.253 C 
ATOM     20  C   UNL     1      -1.008   1.250  23.486  0.00  0.00    +0.100 A 
ATOM     21  C   UNL     1      -1.758   1.547  22.419  0.00  0.00    +0.030 A 
ENDROOT
BRANCH  20   8
ATOM      5  O   UNL     1       1.772   1.779  23.764  0.00  0.00    -0.252 OA
ATOM      8  N   UNL     1      -0.005   0.327  23.437  0.00  0.00    -0.265 N 
ATOM      9  N   UNL     1       2.126  -0.524  23.482  0.00  0.00    -0.269 N 
ATOM     23  C   UNL     1       1.353   0.638  23.579  0.00  0.00    +0.308 C 
ATOM     36  H   UNL     1      -0.234  -0.579  23.038  0.00  0.00    +0.157 HD
ATOM     37  H   UNL     1       1.621  -1.395  23.331  0.00  0.00    +0.156 HD
BRANCH   9  27
ATOM      1  F   UNL     1       6.494   1.465  23.475  0.00  0.00    -0.205 F 
ATOM     27  C   UNL     1       3.532  -0.644  23.570  0.00  0.00    +0.037 A 
ATOM     31  C   UNL     1       4.336   0.492  23.477  0.00  0.00    +0.061 A 
ATOM     32  C   UNL     1       4.115  -1.898  23.752  0.00  0.00    +0.023 A 
ATOM     33  C   UNL     1       5.723   0.374  23.565  0.00  0.00    +0.125 A 
ATOM     34  C   UNL     1       5.502  -2.016  23.840  0.00  0.00    +0.005 A 
ATOM     35  C   UNL     1       6.306  -0.880  23.746  0.00  0.00    +0.038 A 
ENDBRANCH   9  27
ENDBRANCH  20   8
BRANCH  19  22
ATOM     22  C   UNL     1      -6.326   0.653  24.760  0.00  0.00    +0.324 C 
BRANCH  22   4
ATOM      4  O   UNL     1      -5.233   0.345  23.930  0.00  0.00    -0.483 OA
BRANCH   4  24
ATOM     24  C   UNL     1      -4.384  -0.657  24.347  0.00  0.00    +0.121 A 
ATOM     25  C   UNL     1      -3.470  -0.415  25.372  0.00  0.00    +0.045 A 
ATOM     26  C   UNL     1      -4.440  -1.913  23.744  0.00  0.00    +0.045 A 
ATOM     28  C   UNL     1      -2.611  -1.430  25.795  0.00  0.00    +0.004 A 
ATOM     29  C   UNL     1      -3.580  -2.927  24.166  0.00  0.00    +0.004 A 
ATOM     30  C   UNL     1      -2.667  -2.686  25.192  0.00  0.00    +0.000 A 
ENDBRANCH   4  24
ENDBRANCH  22   4
ENDBRANCH  19  22
TORSDOF 5
ENDMDL
