MODEL 1
REMARK VINA RESULT:      -2.0      0.000      0.000
REMARK  Name = 11911721
REMARK  6 active torsions:
REMARK  status: ('A' for Active; 'I' for Inactive)
REMARK    1  A    between atoms: O_4  and  C_26
REMARK    2  A    between atoms: O_4  and  C_30
REMARK    3  A    between atoms: N_5  and  C_11
REMARK    4  A    between atoms: N_6  and  C_12
REMARK    5  A    between atoms: C_16  and  C_18
REMARK    6  A    between atoms: C_17  and  C_19
REMARK                            x       y       z     vdW  Elec       q    Type
REMARK                         _______ _______ _______ _____ _____    ______ ____
ROOT
ATOM      1  O   UNL     1      14.337 -10.172  27.549  0.00  0.00    -0.370 OA
ATOM      2  O   UNL     1      17.377  -9.430  27.860  0.00  0.00    -0.370 OA
ATOM      9  C   UNL     1      16.154  -8.863  28.365  0.00  0.00    +0.175 C 
ATOM     10  C   UNL     1      15.113  -8.996  27.271  0.00  0.00    +0.171 C 
ATOM     11  C   UNL     1      15.625  -9.712  29.505  0.00  0.00    +0.166 C 
ATOM     12  C   UNL     1      15.921  -9.188  26.008  0.00  0.00    +0.130 C 
ATOM     13  C   UNL     1      14.763 -10.747  28.791  0.00  0.00    +0.190 C 
ATOM     14  C   UNL     1      17.160  -9.896  26.521  0.00  0.00    +0.185 C 
ENDROOT
BRANCH  11   5
ATOM      5  N   UNL     1      14.928  -8.918  30.521  0.00  0.00    -0.243 N 
ATOM      7  N   UNL     1      15.509  -8.668  31.702  0.00  0.00    -0.065 NA
ATOM      8  N   UNL     1      14.654  -7.938  32.409  0.00  0.00    -0.129 NA
ATOM     15  C   UNL     1      13.693  -8.364  30.432  0.00  0.00    +0.139 A 
ATOM     17  C   UNL     1      13.537  -7.743  31.646  0.00  0.00    +0.113 A 
BRANCH  17  19
ATOM     19  C   UNL     1      12.388  -7.003  32.060  0.00  0.00    +0.004 A 
ATOM     22  C   UNL     1      11.203  -7.668  32.398  0.00  0.00    +0.010 A 
ATOM     23  C   UNL     1      12.436  -5.607  32.132  0.00  0.00    +0.010 A 
ATOM     27  C   UNL     1      10.081  -6.945  32.803  0.00  0.00    +0.001 A 
ATOM     28  C   UNL     1      11.314  -4.884  32.537  0.00  0.00    +0.001 A 
ATOM     29  C   UNL     1      10.137  -5.553  32.873  0.00  0.00    +0.000 A 
ENDBRANCH  17  19
ENDBRANCH  11   5
BRANCH  12   6
ATOM      3  O   UNL     1      15.292  -6.579  27.031  0.00  0.00    -0.270 OA
ATOM      6  N   UNL     1      16.256  -7.921  25.404  0.00  0.00    -0.304 N 
ATOM     16  C   UNL     1      15.908  -6.706  25.975  0.00  0.00    +0.244 C 
ATOM     31  H   UNL     1      16.663  -7.950  24.474  0.00  0.00    +0.149 HD
BRANCH  16  18
ATOM     18  C   UNL     1      16.303  -5.493  25.215  0.00  0.00    +0.037 A 
ATOM     20  C   UNL     1      16.395  -4.289  25.884  0.00  0.00    +0.016 A 
ATOM     21  C   UNL     1      16.568  -5.607  23.866  0.00  0.00    +0.016 A 
ATOM     24  C   UNL     1      16.768  -3.150  25.172  0.00  0.00    +0.046 A 
ATOM     25  C   UNL     1      16.939  -4.467  23.154  0.00  0.00    +0.046 A 
ATOM     26  C   UNL     1      17.040  -3.238  23.806  0.00  0.00    +0.120 A 
BRANCH  26   4
ATOM      4  O   UNL     1      17.405  -2.126  23.111  0.00  0.00    -0.495 OA
ATOM     30  C   UNL     1      16.395  -1.487  22.332  0.00  0.00    +0.277 C 
ENDBRANCH  26   4
ENDBRANCH  16  18
ENDBRANCH  12   6
TORSDOF 5
ENDMDL
