MODEL 1
REMARK VINA RESULT:      -2.6      0.000      0.000
REMARK  Name = 75537103
REMARK  4 active torsions:
REMARK  status: ('A' for Active; 'I' for Inactive)
REMARK    1  A    between atoms: N_3  and  C_12
REMARK    2  A    between atoms: N_4  and  C_14
REMARK    3  A    between atoms: N_5  and  C_20
REMARK    4  A    between atoms: C_12  and  C_13
REMARK                            x       y       z     vdW  Elec       q    Type
REMARK                         _______ _______ _______ _____ _____    ______ ____
ROOT
ATOM      1  O   UNL     1      -1.469  -8.554   9.972  0.00  0.00    -0.252 OA
ATOM      2  N   UNL     1      -3.015  -9.871  11.153  0.00  0.00    -0.278 N 
ATOM      3  N   UNL     1      -5.498 -10.770  12.122  0.00  0.00    -0.295 NA
ATOM      4  N   UNL     1      -1.126  -9.253  12.198  0.00  0.00    -0.287 N 
ATOM      6  C   UNL     1      -3.064 -10.559  12.426  0.00  0.00    +0.109 C 
ATOM      7  C   UNL     1      -4.437 -10.380  13.074  0.00  0.00    +0.109 C 
ATOM      8  C   UNL     1      -1.901  -9.953  13.210  0.00  0.00    +0.132 C 
ATOM      9  C   UNL     1      -4.088 -10.068  10.199  0.00  0.00    +0.125 C 
ATOM     10  C   UNL     1      -5.442  -9.940  10.903  0.00  0.00    +0.104 C 
ATOM     11  C   UNL     1      -1.824  -9.154  10.978  0.00  0.00    +0.305 C 
ATOM     14  C   UNL     1       0.138  -8.622  12.503  0.00  0.00    +0.133 C 
ENDROOT
BRANCH   3  12
ATOM     12  C   UNL     1      -6.812 -10.661  12.753  0.00  0.00    +0.121 C 
BRANCH  12  13
ATOM      5  N   UNL     1      -5.921 -10.407  16.314  0.00  0.00    -0.349 N 
ATOM     13  C   UNL     1      -6.704 -10.433  14.238  0.00  0.00    -0.008 A 
ATOM     15  C   UNL     1      -7.681  -9.824  15.074  0.00  0.00    +0.004 A 
ATOM     16  C   UNL     1      -5.634 -10.781  15.029  0.00  0.00    +0.091 A 
ATOM     17  C   UNL     1      -7.165  -9.820  16.372  0.00  0.00    +0.049 A 
ATOM     18  C   UNL     1      -8.959  -9.273  14.852  0.00  0.00    +0.010 A 
ATOM     19  C   UNL     1      -7.864  -9.291  17.462  0.00  0.00    +0.026 A 
ATOM     20  C   UNL     1      -5.033 -10.608  17.439  0.00  0.00    +0.149 C 
ATOM     21  C   UNL     1      -9.671  -8.741  15.933  0.00  0.00    +0.001 A 
ATOM     22  C   UNL     1      -9.130  -8.750  17.217  0.00  0.00    +0.002 A 
ENDBRANCH  12  13
ENDBRANCH   3  12
TORSDOF 2
ENDMDL
MODEL 2
REMARK VINA RESULT:      -2.3     14.991     17.230
REMARK  Name = 75537103
REMARK  4 active torsions:
REMARK  status: ('A' for Active; 'I' for Inactive)
REMARK    1  A    between atoms: N_3  and  C_12
REMARK    2  A    between atoms: N_4  and  C_14
REMARK    3  A    between atoms: N_5  and  C_20
REMARK    4  A    between atoms: C_12  and  C_13
REMARK                            x       y       z     vdW  Elec       q    Type
REMARK                         _______ _______ _______ _____ _____    ______ ____
ROOT
ATOM      1  O   UNL     1      -6.464   1.482  24.191  0.00  0.00    -0.252 OA
ATOM      2  N   UNL     1      -4.556   2.790  24.604  0.00  0.00    -0.278 N 
ATOM      3  N   UNL     1      -1.867   3.609  24.522  0.00  0.00    -0.295 NA
ATOM      4  N   UNL     1      -5.949   2.370  26.314  0.00  0.00    -0.287 N 
ATOM      6  C   UNL     1      -4.025   3.569  25.703  0.00  0.00    +0.109 C 
ATOM      7  C   UNL     1      -2.517   3.358  25.824  0.00  0.00    +0.109 C 
ATOM      8  C   UNL     1      -4.838   3.097  26.907  0.00  0.00    +0.132 C 
ATOM      9  C   UNL     1      -3.901   2.848  23.313  0.00  0.00    +0.125 C 
ATOM     10  C   UNL     1      -2.388   2.692  23.488  0.00  0.00    +0.104 C 
ATOM     11  C   UNL     1      -5.749   2.135  24.939  0.00  0.00    +0.305 C 
ATOM     14  C   UNL     1      -7.032   1.841  27.114  0.00  0.00    +0.133 C 
ENDROOT
BRANCH   3  12
ATOM     12  C   UNL     1      -0.416   3.469  24.642  0.00  0.00    +0.121 C 
BRANCH  12  13
ATOM      5  N   UNL     1       1.199   0.436  23.323  0.00  0.00    -0.349 N 
ATOM     13  C   UNL     1       0.047   2.088  24.256  0.00  0.00    -0.008 A 
ATOM     15  C   UNL     1      -0.518   0.855  24.685  0.00  0.00    +0.004 A 
ATOM     16  C   UNL     1       1.101   1.798  23.419  0.00  0.00    +0.091 A 
ATOM     17  C   UNL     1       0.223  -0.166  24.085  0.00  0.00    +0.049 A 
ATOM     18  C   UNL     1      -1.591   0.507  25.529  0.00  0.00    +0.010 A 
ATOM     19  C   UNL     1      -0.056  -1.522  24.287  0.00  0.00    +0.026 A 
ATOM     20  C   UNL     1       2.191  -0.255  22.529  0.00  0.00    +0.149 C 
ATOM     21  C   UNL     1      -1.883  -0.845  25.740  0.00  0.00    +0.001 A 
ATOM     22  C   UNL     1      -1.125  -1.842  25.129  0.00  0.00    +0.002 A 
ENDBRANCH  12  13
ENDBRANCH   3  12
TORSDOF 2
ENDMDL
MODEL 3
REMARK VINA RESULT:      -1.4     14.308     16.371
REMARK  Name = 75537103
REMARK  4 active torsions:
REMARK  status: ('A' for Active; 'I' for Inactive)
REMARK    1  A    between atoms: N_3  and  C_12
REMARK    2  A    between atoms: N_4  and  C_14
REMARK    3  A    between atoms: N_5  and  C_20
REMARK    4  A    between atoms: C_12  and  C_13
REMARK                            x       y       z     vdW  Elec       q    Type
REMARK                         _______ _______ _______ _____ _____    ______ ____
ROOT
ATOM      1  O   UNL     1      -1.501  -3.505  23.516  0.00  0.00    -0.252 OA
ATOM      2  N   UNL     1      -2.875  -1.930  24.589  0.00  0.00    -0.278 N 
ATOM      3  N   UNL     1      -4.730   0.164  24.888  0.00  0.00    -0.295 NA
ATOM      4  N   UNL     1      -0.778  -2.201  25.343  0.00  0.00    -0.287 N 
ATOM      6  C   UNL     1      -2.803  -1.091  25.766  0.00  0.00    +0.109 C 
ATOM      7  C   UNL     1      -3.378   0.293  25.469  0.00  0.00    +0.109 C 
ATOM      8  C   UNL     1      -1.319  -1.105  26.131  0.00  0.00    +0.132 C 
ATOM      9  C   UNL     1      -4.121  -2.013  23.853  0.00  0.00    +0.125 C 
ATOM     10  C   UNL     1      -4.690  -0.609  23.630  0.00  0.00    +0.104 C 
ATOM     11  C   UNL     1      -1.696  -2.656  24.376  0.00  0.00    +0.305 C 
ATOM     14  C   UNL     1       0.596  -2.632  25.474  0.00  0.00    +0.133 C 
ENDROOT
BRANCH   3  12
ATOM     12  C   UNL     1      -5.313   1.485  24.656  0.00  0.00    +0.121 C 
BRANCH  12  13
ATOM      5  N   UNL     1      -3.563   4.399  26.065  0.00  0.00    -0.349 N 
ATOM     13  C   UNL     1      -4.378   2.591  25.070  0.00  0.00    -0.008 A 
ATOM     15  C   UNL     1      -3.042   2.782  24.619  0.00  0.00    +0.004 A 
ATOM     16  C   UNL     1      -4.669   3.600  25.958  0.00  0.00    +0.091 A 
ATOM     17  C   UNL     1      -2.553   3.924  25.259  0.00  0.00    +0.049 A 
ATOM     18  C   UNL     1      -2.198   2.093  23.725  0.00  0.00    +0.010 A 
ATOM     19  C   UNL     1      -1.259   4.412  25.050  0.00  0.00    +0.026 A 
ATOM     20  C   UNL     1      -3.483   5.570  26.910  0.00  0.00    +0.149 C 
ATOM     21  C   UNL     1      -0.901   2.570  23.506  0.00  0.00    +0.001 A 
ATOM     22  C   UNL     1      -0.440   3.712  24.159  0.00  0.00    +0.002 A 
ENDBRANCH  12  13
ENDBRANCH   3  12
TORSDOF 2
ENDMDL
MODEL 4
REMARK VINA RESULT:      -1.2     15.244     16.347
REMARK  Name = 75537103
REMARK  4 active torsions:
REMARK  status: ('A' for Active; 'I' for Inactive)
REMARK    1  A    between atoms: N_3  and  C_12
REMARK    2  A    between atoms: N_4  and  C_14
REMARK    3  A    between atoms: N_5  and  C_20
REMARK    4  A    between atoms: C_12  and  C_13
REMARK                            x       y       z     vdW  Elec       q    Type
REMARK                         _______ _______ _______ _____ _____    ______ ____
ROOT
ATOM      1  O   UNL     1       4.870   1.602  23.469  0.00  0.00    -0.252 OA
ATOM      2  N   UNL     1       2.708   0.719  23.214  0.00  0.00    -0.278 N 
ATOM      3  N   UNL     1      -0.064   0.414  23.586  0.00  0.00    -0.295 NA
ATOM      4  N   UNL     1       4.422  -0.713  23.441  0.00  0.00    -0.287 N 
ATOM      6  C   UNL     1       2.114  -0.588  23.029  0.00  0.00    +0.109 C 
ATOM      7  C   UNL     1       0.842  -0.718  23.866  0.00  0.00    +0.109 C 
ATOM      8  C   UNL     1       3.235  -1.553  23.412  0.00  0.00    +0.132 C 
ATOM      9  C   UNL     1       1.872   1.898  23.108  0.00  0.00    +0.125 C 
ATOM     10  C   UNL     1       0.585   1.701  23.912  0.00  0.00    +0.104 C 
ATOM     11  C   UNL     1       4.097   0.657  23.381  0.00  0.00    +0.305 C 
ATOM     14  C   UNL     1       5.742  -1.261  23.659  0.00  0.00    +0.133 C 
ENDROOT
BRANCH   3  12
ATOM     12  C   UNL     1      -1.310   0.268  24.337  0.00  0.00    +0.121 C 
BRANCH  12  13
ATOM      5  N   UNL     1      -2.165   3.768  25.083  0.00  0.00    -0.349 N 
ATOM     13  C   UNL     1      -1.928   1.602  24.664  0.00  0.00    -0.008 A 
ATOM     15  C   UNL     1      -3.306   1.859  24.908  0.00  0.00    +0.004 A 
ATOM     16  C   UNL     1      -1.252   2.795  24.778  0.00  0.00    +0.091 A 
ATOM     17  C   UNL     1      -3.428   3.226  25.169  0.00  0.00    +0.049 A 
ATOM     18  C   UNL     1      -4.466   1.059  24.933  0.00  0.00    +0.010 A 
ATOM     19  C   UNL     1      -4.655   3.835  25.453  0.00  0.00    +0.026 A 
ATOM     20  C   UNL     1      -1.834   5.162  25.283  0.00  0.00    +0.149 C 
ATOM     21  C   UNL     1      -5.700   1.654  25.217  0.00  0.00    +0.001 A 
ATOM     22  C   UNL     1      -5.791   3.021  25.472  0.00  0.00    +0.002 A 
ENDBRANCH  12  13
ENDBRANCH   3  12
TORSDOF 2
ENDMDL
MODEL 5
REMARK VINA RESULT:      -1.1     14.548     16.141
REMARK  Name = 75537103
REMARK  4 active torsions:
REMARK  status: ('A' for Active; 'I' for Inactive)
REMARK    1  A    between atoms: N_3  and  C_12
REMARK    2  A    between atoms: N_4  and  C_14
REMARK    3  A    between atoms: N_5  and  C_20
REMARK    4  A    between atoms: C_12  and  C_13
REMARK                            x       y       z     vdW  Elec       q    Type
REMARK                         _______ _______ _______ _____ _____    ______ ____
ROOT
ATOM      1  O   UNL     1       3.216  -1.703  23.481  0.00  0.00    -0.252 OA
ATOM      2  N   UNL     1       1.228  -0.551  23.973  0.00  0.00    -0.278 N 
ATOM      3  N   UNL     1      -1.532  -0.048  24.183  0.00  0.00    -0.295 NA
ATOM      4  N   UNL     1       2.890   0.576  22.968  0.00  0.00    -0.287 N 
ATOM      6  C   UNL     1       0.757   0.817  23.920  0.00  0.00    +0.109 C 
ATOM      7  C   UNL     1      -0.678   0.866  23.398  0.00  0.00    +0.109 C 
ATOM      8  C   UNL     1       1.786   1.520  23.036  0.00  0.00    +0.132 C 
ATOM      9  C   UNL     1       0.396  -1.562  24.594  0.00  0.00    +0.125 C 
ATOM     10  C   UNL     1      -1.043  -1.439  24.086  0.00  0.00    +0.104 C 
ATOM     11  C   UNL     1       2.532  -0.688  23.479  0.00  0.00    +0.305 C 
ATOM     14  C   UNL     1       4.134   0.899  22.307  0.00  0.00    +0.133 C 
ENDROOT
BRANCH   3  12
ATOM     12  C   UNL     1      -2.920   0.036  23.730  0.00  0.00    +0.121 C 
BRANCH  12  13
ATOM      5  N   UNL     1      -5.354   1.984  25.685  0.00  0.00    -0.349 N 
ATOM     13  C   UNL     1      -3.712   1.034  24.533  0.00  0.00    -0.008 A 
ATOM     15  C   UNL     1      -3.279   2.327  24.939  0.00  0.00    +0.004 A 
ATOM     16  C   UNL     1      -4.991   0.852  25.007  0.00  0.00    +0.091 A 
ATOM     17  C   UNL     1      -4.329   2.902  25.661  0.00  0.00    +0.049 A 
ATOM     18  C   UNL     1      -2.094   3.067  24.763  0.00  0.00    +0.010 A 
ATOM     19  C   UNL     1      -4.251   4.184  26.216  0.00  0.00    +0.026 A 
ATOM     20  C   UNL     1      -6.635   2.171  26.330  0.00  0.00    +0.149 C 
ATOM     21  C   UNL     1      -2.001   4.351  25.313  0.00  0.00    +0.001 A 
ATOM     22  C   UNL     1      -3.065   4.898  26.028  0.00  0.00    +0.002 A 
ENDBRANCH  12  13
ENDBRANCH   3  12
TORSDOF 2
ENDMDL
MODEL 6
REMARK VINA RESULT:      -1.1     14.187     16.208
REMARK  Name = 75537103
REMARK  4 active torsions:
REMARK  status: ('A' for Active; 'I' for Inactive)
REMARK    1  A    between atoms: N_3  and  C_12
REMARK    2  A    between atoms: N_4  and  C_14
REMARK    3  A    between atoms: N_5  and  C_20
REMARK    4  A    between atoms: C_12  and  C_13
REMARK                            x       y       z     vdW  Elec       q    Type
REMARK                         _______ _______ _______ _____ _____    ______ ____
ROOT
ATOM      1  O   UNL     1      -2.185   5.549  25.746  0.00  0.00    -0.252 OA
ATOM      2  N   UNL     1      -3.284   3.721  24.760  0.00  0.00    -0.278 N 
ATOM      3  N   UNL     1      -4.911   1.435  24.554  0.00  0.00    -0.295 NA
ATOM      4  N   UNL     1      -1.138   4.094  24.214  0.00  0.00    -0.287 N 
ATOM      6  C   UNL     1      -2.999   2.746  23.728  0.00  0.00    +0.109 C 
ATOM      7  C   UNL     1      -3.491   1.363  24.152  0.00  0.00    +0.109 C 
ATOM      8  C   UNL     1      -1.487   2.857  23.534  0.00  0.00    +0.132 C 
ATOM      9  C   UNL     1      -4.614   3.777  25.333  0.00  0.00    +0.125 C 
ATOM     10  C   UNL     1      -5.090   2.366  25.687  0.00  0.00    +0.104 C 
ATOM     11  C   UNL     1      -2.203   4.580  24.999  0.00  0.00    +0.305 C 
ATOM     14  C   UNL     1       0.202   4.635  24.178  0.00  0.00    +0.133 C 
ENDROOT
BRANCH   3  12
ATOM     12  C   UNL     1      -5.409   0.106  24.904  0.00  0.00    +0.121 C 
BRANCH  12  13
ATOM      5  N   UNL     1      -3.442  -2.816  23.839  0.00  0.00    -0.349 N 
ATOM     13  C   UNL     1      -4.392  -0.967  24.617  0.00  0.00    -0.008 A 
ATOM     15  C   UNL     1      -3.044  -0.999  25.071  0.00  0.00    +0.004 A 
ATOM     16  C   UNL     1      -4.607  -2.097  23.862  0.00  0.00    +0.091 A 
ATOM     17  C   UNL     1      -2.470  -2.169  24.569  0.00  0.00    +0.049 A 
ATOM     18  C   UNL     1      -2.254  -0.143  25.863  0.00  0.00    +0.010 A 
ATOM     19  C   UNL     1      -1.141  -2.527  24.820  0.00  0.00    +0.026 A 
ATOM     20  C   UNL     1      -3.273  -4.072  23.142  0.00  0.00    +0.149 C 
ATOM     21  C   UNL     1      -0.923  -0.488  26.124  0.00  0.00    +0.001 A 
ATOM     22  C   UNL     1      -0.377  -1.662  25.608  0.00  0.00    +0.002 A 
ENDBRANCH  12  13
ENDBRANCH   3  12
TORSDOF 2
ENDMDL
MODEL 7
REMARK VINA RESULT:      -0.9     15.005     16.204
REMARK  Name = 75537103
REMARK  4 active torsions:
REMARK  status: ('A' for Active; 'I' for Inactive)
REMARK    1  A    between atoms: N_3  and  C_12
REMARK    2  A    between atoms: N_4  and  C_14
REMARK    3  A    between atoms: N_5  and  C_20
REMARK    4  A    between atoms: C_12  and  C_13
REMARK                            x       y       z     vdW  Elec       q    Type
REMARK                         _______ _______ _______ _____ _____    ______ ____
ROOT
ATOM      1  O   UNL     1       3.798   2.065  22.913  0.00  0.00    -0.252 OA
ATOM      2  N   UNL     1       1.889   0.722  23.182  0.00  0.00    -0.278 N 
ATOM      3  N   UNL     1      -0.619  -0.114  24.144  0.00  0.00    -0.295 NA
ATOM      4  N   UNL     1       3.899  -0.279  23.155  0.00  0.00    -0.287 N 
ATOM      6  C   UNL     1       1.589  -0.694  23.225  0.00  0.00    +0.109 C 
ATOM      7  C   UNL     1       0.560  -0.987  24.315  0.00  0.00    +0.109 C 
ATOM      8  C   UNL     1       2.954  -1.347  23.437  0.00  0.00    +0.132 C 
ATOM      9  C   UNL     1       0.799   1.676  23.162  0.00  0.00    +0.125 C 
ATOM     10  C   UNL     1      -0.235   1.310  24.230  0.00  0.00    +0.104 C 
ATOM     11  C   UNL     1       3.262   0.974  23.060  0.00  0.00    +0.305 C 
ATOM     14  C   UNL     1       5.327  -0.506  23.135  0.00  0.00    +0.133 C 
ENDROOT
BRANCH   3  12
ATOM     12  C   UNL     1      -1.635  -0.428  25.147  0.00  0.00    +0.121 C 
BRANCH  12  13
ATOM      5  N   UNL     1      -4.816   1.405  24.896  0.00  0.00    -0.349 N 
ATOM     13  C   UNL     1      -2.779   0.551  25.112  0.00  0.00    -0.008 A 
ATOM     15  C   UNL     1      -2.704   1.949  25.369  0.00  0.00    +0.004 A 
ATOM     16  C   UNL     1      -4.090   0.247  24.824  0.00  0.00    +0.091 A 
ATOM     17  C   UNL     1      -3.997   2.461  25.227  0.00  0.00    +0.049 A 
ATOM     18  C   UNL     1      -1.660   2.831  25.710  0.00  0.00    +0.010 A 
ATOM     19  C   UNL     1      -4.297   3.815  25.409  0.00  0.00    +0.026 A 
ATOM     20  C   UNL     1      -6.240   1.490  24.656  0.00  0.00    +0.149 C 
ATOM     21  C   UNL     1      -1.946   4.188  25.895  0.00  0.00    +0.001 A 
ATOM     22  C   UNL     1      -3.245   4.670  25.747  0.00  0.00    +0.002 A 
ENDBRANCH  12  13
ENDBRANCH   3  12
TORSDOF 2
ENDMDL
MODEL 8
REMARK VINA RESULT:      -0.8     14.612     17.074
REMARK  Name = 75537103
REMARK  4 active torsions:
REMARK  status: ('A' for Active; 'I' for Inactive)
REMARK    1  A    between atoms: N_3  and  C_12
REMARK    2  A    between atoms: N_4  and  C_14
REMARK    3  A    between atoms: N_5  and  C_20
REMARK    4  A    between atoms: C_12  and  C_13
REMARK                            x       y       z     vdW  Elec       q    Type
REMARK                         _______ _______ _______ _____ _____    ______ ____
ROOT
ATOM      1  O   UNL     1      -6.501   2.315  26.888  0.00  0.00    -0.252 OA
ATOM      2  N   UNL     1      -5.152   1.368  25.213  0.00  0.00    -0.278 N 
ATOM      3  N   UNL     1      -3.202  -0.280  24.032  0.00  0.00    -0.295 NA
ATOM      4  N   UNL     1      -5.437   3.595  25.217  0.00  0.00    -0.287 N 
ATOM      6  C   UNL     1      -4.484   1.821  24.010  0.00  0.00    +0.109 C 
ATOM      7  C   UNL     1      -3.098   1.188  23.901  0.00  0.00    +0.109 C 
ATOM      8  C   UNL     1      -4.487   3.342  24.146  0.00  0.00    +0.132 C 
ATOM      9  C   UNL     1      -5.183  -0.049  25.515  0.00  0.00    +0.125 C 
ATOM     10  C   UNL     1      -3.787  -0.652  25.336  0.00  0.00    +0.104 C 
ATOM     11  C   UNL     1      -5.790   2.412  25.896  0.00  0.00    +0.305 C 
ATOM     14  C   UNL     1      -5.823   4.936  25.597  0.00  0.00    +0.133 C 
ENDROOT
BRANCH   3  12
ATOM     12  C   UNL     1      -1.887  -0.900  23.869  0.00  0.00    +0.121 C 
BRANCH  12  13
ATOM      5  N   UNL     1       0.417   1.718  25.043  0.00  0.00    -0.349 N 
ATOM     13  C   UNL     1      -0.771   0.073  24.144  0.00  0.00    -0.008 A 
ATOM     15  C   UNL     1       0.471   0.153  23.454  0.00  0.00    +0.004 A 
ATOM     16  C   UNL     1      -0.774   1.048  25.115  0.00  0.00    +0.091 A 
ATOM     17  C   UNL     1       1.198   1.194  24.038  0.00  0.00    +0.049 A 
ATOM     18  C   UNL     1       1.049  -0.560  22.385  0.00  0.00    +0.010 A 
ATOM     19  C   UNL     1       2.478   1.557  23.605  0.00  0.00    +0.026 A 
ATOM     20  C   UNL     1       0.787   2.817  25.908  0.00  0.00    +0.149 C 
ATOM     21  C   UNL     1       2.328  -0.208  21.942  0.00  0.00    +0.001 A 
ATOM     22  C   UNL     1       3.030   0.834  22.544  0.00  0.00    +0.002 A 
ENDBRANCH  12  13
ENDBRANCH   3  12
TORSDOF 2
ENDMDL
MODEL 9
REMARK VINA RESULT:      -0.6     14.061     15.737
REMARK  Name = 75537103
REMARK  4 active torsions:
REMARK  status: ('A' for Active; 'I' for Inactive)
REMARK    1  A    between atoms: N_3  and  C_12
REMARK    2  A    between atoms: N_4  and  C_14
REMARK    3  A    between atoms: N_5  and  C_20
REMARK    4  A    between atoms: C_12  and  C_13
REMARK                            x       y       z     vdW  Elec       q    Type
REMARK                         _______ _______ _______ _____ _____    ______ ____
ROOT
ATOM      1  O   UNL     1       1.327  -0.954  22.267  0.00  0.00    -0.252 OA
ATOM      2  N   UNL     1      -0.202  -0.743  24.039  0.00  0.00    -0.278 N 
ATOM      3  N   UNL     1      -2.654  -0.826  25.414  0.00  0.00    -0.295 NA
ATOM      4  N   UNL     1       1.286   0.907  23.715  0.00  0.00    -0.287 N 
ATOM      6  C   UNL     1      -0.414   0.159  25.151  0.00  0.00    +0.109 C 
ATOM      7  C   UNL     1      -1.905   0.444  25.327  0.00  0.00    +0.109 C 
ATOM      8  C   UNL     1       0.435   1.378  24.795  0.00  0.00    +0.132 C 
ATOM      9  C   UNL     1      -0.994  -1.953  23.947  0.00  0.00    +0.125 C 
ATOM     10  C   UNL     1      -2.471  -1.629  24.188  0.00  0.00    +0.104 C 
ATOM     11  C   UNL     1       0.864  -0.345  23.222  0.00  0.00    +0.305 C 
ATOM     14  C   UNL     1       2.332   1.729  23.150  0.00  0.00    +0.133 C 
ENDROOT
BRANCH   3  12
ATOM     12  C   UNL     1      -4.075  -0.564  25.643  0.00  0.00    +0.121 C 
BRANCH  12  13
ATOM      5  N   UNL     1      -5.386   2.860  25.328  0.00  0.00    -0.349 N 
ATOM     13  C   UNL     1      -4.450   0.848  25.277  0.00  0.00    -0.008 A 
ATOM     15  C   UNL     1      -3.988   1.581  24.149  0.00  0.00    +0.004 A 
ATOM     16  C   UNL     1      -5.308   1.660  25.983  0.00  0.00    +0.091 A 
ATOM     17  C   UNL     1      -4.590   2.841  24.205  0.00  0.00    +0.049 A 
ATOM     18  C   UNL     1      -3.113   1.296  23.083  0.00  0.00    +0.010 A 
ATOM     19  C   UNL     1      -4.360   3.832  23.244  0.00  0.00    +0.026 A 
ATOM     20  C   UNL     1      -6.193   3.977  25.768  0.00  0.00    +0.149 C 
ATOM     21  C   UNL     1      -2.873   2.277  22.114  0.00  0.00    +0.001 A 
ATOM     22  C   UNL     1      -3.487   3.525  22.196  0.00  0.00    +0.002 A 
ENDBRANCH  12  13
ENDBRANCH   3  12
TORSDOF 2
ENDMDL
MODEL 10
REMARK VINA RESULT:      -0.6     14.547     16.840
REMARK  Name = 75537103
REMARK  4 active torsions:
REMARK  status: ('A' for Active; 'I' for Inactive)
REMARK    1  A    between atoms: N_3  and  C_12
REMARK    2  A    between atoms: N_4  and  C_14
REMARK    3  A    between atoms: N_5  and  C_20
REMARK    4  A    between atoms: C_12  and  C_13
REMARK                            x       y       z     vdW  Elec       q    Type
REMARK                         _______ _______ _______ _____ _____    ______ ____
ROOT
ATOM      1  O   UNL     1      -6.140   2.377  26.877  0.00  0.00    -0.252 OA
ATOM      2  N   UNL     1      -4.958   1.056  25.335  0.00  0.00    -0.278 N 
ATOM      3  N   UNL     1      -3.176  -0.897  24.373  0.00  0.00    -0.295 NA
ATOM      4  N   UNL     1      -5.134   3.259  24.935  0.00  0.00    -0.287 N 
ATOM      6  C   UNL     1      -4.354   1.237  24.032  0.00  0.00    +0.109 C 
ATOM      7  C   UNL     1      -3.011   0.513  23.962  0.00  0.00    +0.109 C 
ATOM      8  C   UNL     1      -4.274   2.755  23.877  0.00  0.00    +0.132 C 
ATOM      9  C   UNL     1      -5.037  -0.275  25.900  0.00  0.00    +0.125 C 
ATOM     10  C   UNL     1      -3.688  -0.984  25.756  0.00  0.00    +0.104 C 
ATOM     11  C   UNL     1      -5.496   2.245  25.845  0.00  0.00    +0.305 C 
ATOM     14  C   UNL     1      -5.428   4.667  25.078  0.00  0.00    +0.133 C 
ENDROOT
BRANCH   3  12
ATOM     12  C   UNL     1      -1.908  -1.614  24.253  0.00  0.00    +0.121 C 
BRANCH  12  13
ATOM      5  N   UNL     1       1.125   0.192  23.214  0.00  0.00    -0.349 N 
ATOM     13  C   UNL     1      -0.754  -0.676  24.015  0.00  0.00    -0.008 A 
ATOM     15  C   UNL     1      -0.541   0.581  24.646  0.00  0.00    +0.004 A 
ATOM     16  C   UNL     1       0.287  -0.887  23.140  0.00  0.00    +0.091 A 
ATOM     17  C   UNL     1       0.645   1.105  24.126  0.00  0.00    +0.049 A 
ATOM     18  C   UNL     1      -1.244   1.327  25.613  0.00  0.00    +0.010 A 
ATOM     19  C   UNL     1       1.165   2.341  24.526  0.00  0.00    +0.026 A 
ATOM     20  C   UNL     1       2.338   0.337  22.438  0.00  0.00    +0.149 C 
ATOM     21  C   UNL     1      -0.736   2.564  26.023  0.00  0.00    +0.001 A 
ATOM     22  C   UNL     1       0.450   3.062  25.486  0.00  0.00    +0.002 A 
ENDBRANCH  12  13
ENDBRANCH   3  12
TORSDOF 2
ENDMDL
