MODEL 1
REMARK VINA RESULT:      -2.1      0.000      0.000
REMARK  Name = 71693177
REMARK  14 active torsions:
REMARK  status: ('A' for Active; 'I' for Inactive)
REMARK    1  A    between atoms: O_2  and  C_30
REMARK    2  A    between atoms: O_2  and  C_32
REMARK    3  A    between atoms: N_4  and  C_15
REMARK    4  A    between atoms: N_7  and  C_27
REMARK    5  A    between atoms: C_8  and  C_12
REMARK    6  A    between atoms: C_9  and  C_15
REMARK    7  A    between atoms: C_11  and  C_16
REMARK    8  A    between atoms: C_12  and  C_17
REMARK    9  A    between atoms: C_12  and  C_18
REMARK   10  A    between atoms: C_13  and  C_19
REMARK   11  A    between atoms: C_16  and  C_20
REMARK   12  A    between atoms: C_26  and  C_30
REMARK   13  A    between atoms: C_27  and  C_29
REMARK   14  A    between atoms: C_29  and  C_31
REMARK                            x       y       z     vdW  Elec       q    Type
REMARK                         _______ _______ _______ _____ _____    ______ ____
ROOT
ATOM      8  C   UNL     1      -4.307   3.153  25.385  0.00  0.00    +0.000 C 
ATOM      9  C   UNL     1      -3.953   3.574  23.937  0.00  0.00    +0.032 C 
ATOM     10  C   UNL     1      -3.846   4.225  26.384  0.00  0.00    +0.012 C 
ATOM     11  C   UNL     1      -2.329   4.480  26.306  0.00  0.00    +0.022 C 
ATOM     13  C   UNL     1      -1.858   4.641  24.875  0.00  0.00    -0.073 C 
ATOM     14  C   UNL     1      -2.603   4.243  23.828  0.00  0.00    -0.022 C 
ATOM     19  C   UNL     1      -0.527   5.312  24.672  0.00  0.00    +0.039 C 
ENDROOT
BRANCH   8  12
ATOM     12  C   UNL     1      -5.808   2.898  25.553  0.00  0.00    -0.013 C 
ATOM     17  C   UNL     1      -6.554   4.217  25.730  0.00  0.00    +0.007 C 
ATOM     18  C   UNL     1      -6.061   1.970  26.737  0.00  0.00    +0.007 C 
ENDBRANCH   8  12
BRANCH   9  15
ATOM     15  C   UNL     1      -4.008   2.377  22.982  0.00  0.00    +0.113 C 
BRANCH  15   4
ATOM      1  O   UNL     1      -5.295   0.113  24.226  0.00  0.00    -0.253 OA
ATOM      4  N   UNL     1      -3.372   1.236  23.562  0.00  0.00    -0.299 N 
ATOM      7  N   UNL     1      -3.204  -0.805  24.637  0.00  0.00    -0.299 N 
ATOM     21  C   UNL     1      -4.068   0.172  24.151  0.00  0.00    +0.300 C 
ATOM     33  H   UNL     1      -2.362   1.156  23.491  0.00  0.00    +0.150 HD
ATOM     35  H   UNL     1      -2.204  -0.665  24.536  0.00  0.00    +0.150 HD
BRANCH   7  27
ATOM     27  C   UNL     1      -3.668  -2.007  25.289  0.00  0.00    +0.105 C 
BRANCH  27  29
ATOM     29  C   UNL     1      -3.276  -3.269  24.529  0.00  0.00    +0.015 C 
ATOM     31  C   UNL     1      -1.914  -3.153  23.861  0.00  0.00    +0.005 C 
ENDBRANCH  27  29
ENDBRANCH   7  27
ENDBRANCH  15   4
ENDBRANCH   9  15
BRANCH  11  16
ATOM     16  C   UNL     1      -1.545   3.374  27.021  0.00  0.00    +0.082 C 
BRANCH  16  20
ATOM      5  N   UNL     1       0.348   2.854  25.472  0.00  0.00    -0.342 N 
ATOM      6  N   UNL     1      -1.235   1.301  25.625  0.00  0.00    -0.232 NA
ATOM     20  C   UNL     1      -0.838   2.483  26.042  0.00  0.00    +0.109 A 
ATOM     22  C   UNL     1       0.743   1.844  24.631  0.00  0.00    +0.067 A 
ATOM     23  C   UNL     1      -0.262   0.887  24.744  0.00  0.00    +0.089 A 
ATOM     24  C   UNL     1       1.858   1.692  23.807  0.00  0.00    +0.042 A 
ATOM     25  C   UNL     1      -0.165  -0.299  23.998  0.00  0.00    +0.030 A 
ATOM     26  C   UNL     1       1.939   0.505  23.071  0.00  0.00    +0.061 A 
ATOM     28  C   UNL     1       0.947  -0.474  23.163  0.00  0.00    +0.017 A 
ATOM     34  H   UNL     1       0.848   3.717  25.639  0.00  0.00    +0.167 HD
BRANCH  26  30
ATOM      3  O   UNL     1       3.002  -0.169  21.045  0.00  0.00    -0.245 OA
ATOM     30  C   UNL     1       3.078   0.288  22.193  0.00  0.00    +0.339 C 
BRANCH  30   2
ATOM      2  O   UNL     1       4.253   0.653  22.795  0.00  0.00    -0.464 OA
ATOM     32  C   UNL     1       4.950  -0.364  23.522  0.00  0.00    +0.280 C 
ENDBRANCH  30   2
ENDBRANCH  26  30
ENDBRANCH  16  20
ENDBRANCH  11  16
TORSDOF 9
ENDMDL
MODEL 2
REMARK VINA RESULT:      -0.8      1.970      4.347
REMARK  Name = 71693177
REMARK  14 active torsions:
REMARK  status: ('A' for Active; 'I' for Inactive)
REMARK    1  A    between atoms: O_2  and  C_30
REMARK    2  A    between atoms: O_2  and  C_32
REMARK    3  A    between atoms: N_4  and  C_15
REMARK    4  A    between atoms: N_7  and  C_27
REMARK    5  A    between atoms: C_8  and  C_12
REMARK    6  A    between atoms: C_9  and  C_15
REMARK    7  A    between atoms: C_11  and  C_16
REMARK    8  A    between atoms: C_12  and  C_17
REMARK    9  A    between atoms: C_12  and  C_18
REMARK   10  A    between atoms: C_13  and  C_19
REMARK   11  A    between atoms: C_16  and  C_20
REMARK   12  A    between atoms: C_26  and  C_30
REMARK   13  A    between atoms: C_27  and  C_29
REMARK   14  A    between atoms: C_29  and  C_31
REMARK                            x       y       z     vdW  Elec       q    Type
REMARK                         _______ _______ _______ _____ _____    ______ ____
ROOT
ATOM      8  C   UNL     1      -3.454   2.316  23.832  0.00  0.00    +0.000 C 
ATOM      9  C   UNL     1      -4.236   3.482  24.487  0.00  0.00    +0.032 C 
ATOM     10  C   UNL     1      -4.368   1.096  23.640  0.00  0.00    +0.012 C 
ATOM     11  C   UNL     1      -4.961   0.598  24.972  0.00  0.00    +0.022 C 
ATOM     13  C   UNL     1      -5.517   1.737  25.802  0.00  0.00    -0.073 C 
ATOM     14  C   UNL     1      -5.192   3.021  25.562  0.00  0.00    -0.022 C 
ATOM     19  C   UNL     1      -6.491   1.371  26.887  0.00  0.00    +0.039 C 
ENDROOT
BRANCH   8  12
ATOM     12  C   UNL     1      -2.846   2.725  22.486  0.00  0.00    -0.013 C 
ATOM     17  C   UNL     1      -3.866   3.500  21.656  0.00  0.00    +0.007 C 
ATOM     18  C   UNL     1      -2.355   1.496  21.728  0.00  0.00    +0.007 C 
ENDBRANCH   8  12
BRANCH   9  15
ATOM     15  C   UNL     1      -3.283   4.531  25.068  0.00  0.00    +0.113 C 
BRANCH  15   4
ATOM      1  O   UNL     1      -0.504   3.772  24.903  0.00  0.00    -0.253 OA
ATOM      4  N   UNL     1      -2.481   3.968  26.108  0.00  0.00    -0.299 N 
ATOM      7  N   UNL     1      -0.593   3.095  27.121  0.00  0.00    -0.299 N 
ATOM     21  C   UNL     1      -1.132   3.623  25.950  0.00  0.00    +0.300 C 
ATOM     33  H   UNL     1      -2.887   3.868  27.033  0.00  0.00    +0.150 HD
ATOM     35  H   UNL     1      -1.192   3.003  27.935  0.00  0.00    +0.150 HD
BRANCH   7  27
ATOM     27  C   UNL     1       0.780   2.661  27.224  0.00  0.00    +0.105 C 
BRANCH  27  29
ATOM     29  C   UNL     1       1.223   2.473  28.670  0.00  0.00    +0.015 C 
ATOM     31  C   UNL     1       2.668   2.889  28.902  0.00  0.00    +0.005 C 
ENDBRANCH  27  29
ENDBRANCH   7  27
ENDBRANCH  15   4
ENDBRANCH   9  15
BRANCH  11  16
ATOM     16  C   UNL     1      -3.929  -0.209  25.768  0.00  0.00    +0.082 C 
BRANCH  16  20
ATOM      5  N   UNL     1      -1.635   0.628  25.222  0.00  0.00    -0.342 N 
ATOM      6  N   UNL     1      -2.268  -1.226  24.171  0.00  0.00    -0.232 NA
ATOM     20  C   UNL     1      -2.622  -0.301  25.036  0.00  0.00    +0.109 A 
ATOM     22  C   UNL     1      -0.575   0.278  24.425  0.00  0.00    +0.067 A 
ATOM     23  C   UNL     1      -0.995  -0.882  23.779  0.00  0.00    +0.089 A 
ATOM     24  C   UNL     1       0.676   0.861  24.220  0.00  0.00    +0.042 A 
ATOM     25  C   UNL     1      -0.128  -1.512  22.872  0.00  0.00    +0.030 A 
ATOM     26  C   UNL     1       1.527   0.220  23.313  0.00  0.00    +0.061 A 
ATOM     28  C   UNL     1       1.134  -0.945  22.650  0.00  0.00    +0.017 A 
ATOM     34  H   UNL     1      -1.678   1.429  25.838  0.00  0.00    +0.167 HD
BRANCH  26  30
ATOM      3  O   UNL     1       3.088   1.990  22.972  0.00  0.00    -0.245 OA
ATOM     30  C   UNL     1       2.845   0.779  23.057  0.00  0.00    +0.339 C 
BRANCH  30   2
ATOM      2  O   UNL     1       3.790  -0.202  22.920  0.00  0.00    -0.464 OA
ATOM     32  C   UNL     1       5.112   0.107  23.371  0.00  0.00    +0.280 C 
ENDBRANCH  30   2
ENDBRANCH  26  30
ENDBRANCH  16  20
ENDBRANCH  11  16
TORSDOF 9
ENDMDL
MODEL 3
REMARK VINA RESULT:      -0.5      2.141      5.220
REMARK  Name = 71693177
REMARK  14 active torsions:
REMARK  status: ('A' for Active; 'I' for Inactive)
REMARK    1  A    between atoms: O_2  and  C_30
REMARK    2  A    between atoms: O_2  and  C_32
REMARK    3  A    between atoms: N_4  and  C_15
REMARK    4  A    between atoms: N_7  and  C_27
REMARK    5  A    between atoms: C_8  and  C_12
REMARK    6  A    between atoms: C_9  and  C_15
REMARK    7  A    between atoms: C_11  and  C_16
REMARK    8  A    between atoms: C_12  and  C_17
REMARK    9  A    between atoms: C_12  and  C_18
REMARK   10  A    between atoms: C_13  and  C_19
REMARK   11  A    between atoms: C_16  and  C_20
REMARK   12  A    between atoms: C_26  and  C_30
REMARK   13  A    between atoms: C_27  and  C_29
REMARK   14  A    between atoms: C_29  and  C_31
REMARK                            x       y       z     vdW  Elec       q    Type
REMARK                         _______ _______ _______ _____ _____    ______ ____
ROOT
ATOM      8  C   UNL     1      -2.749   2.737  23.704  0.00  0.00    +0.000 C 
ATOM      9  C   UNL     1      -1.487   3.061  24.543  0.00  0.00    +0.032 C 
ATOM     10  C   UNL     1      -3.788   3.861  23.842  0.00  0.00    +0.012 C 
ATOM     11  C   UNL     1      -4.217   4.081  25.306  0.00  0.00    +0.022 C 
ATOM     13  C   UNL     1      -3.025   4.143  26.239  0.00  0.00    -0.073 C 
ATOM     14  C   UNL     1      -1.809   3.695  25.875  0.00  0.00    -0.022 C 
ATOM     19  C   UNL     1      -3.251   4.773  27.585  0.00  0.00    +0.039 C 
ENDROOT
BRANCH   8  12
ATOM     12  C   UNL     1      -2.410   2.524  22.226  0.00  0.00    -0.013 C 
ATOM     17  C   UNL     1      -3.461   3.185  21.338  0.00  0.00    +0.007 C 
ATOM     18  C   UNL     1      -2.301   1.034  21.915  0.00  0.00    +0.007 C 
ENDBRANCH   8  12
BRANCH   9  15
ATOM     15  C   UNL     1      -0.635   1.808  24.766  0.00  0.00    +0.113 C 
BRANCH  15   4
ATOM      1  O   UNL     1       0.987  -0.052  23.270  0.00  0.00    -0.253 OA
ATOM      4  N   UNL     1       0.700   2.012  24.298  0.00  0.00    -0.299 N 
ATOM      7  N   UNL     1       2.699   1.514  23.247  0.00  0.00    -0.299 N 
ATOM     21  C   UNL     1       1.426   1.056  23.576  0.00  0.00    +0.300 C 
ATOM     33  H   UNL     1       1.130   2.921  24.440  0.00  0.00    +0.150 HD
ATOM     35  H   UNL     1       2.977   2.442  23.550  0.00  0.00    +0.150 HD
BRANCH   7  27
ATOM     27  C   UNL     1       3.648   0.721  22.502  0.00  0.00    +0.105 C 
BRANCH  27  29
ATOM     29  C   UNL     1       4.960   0.527  23.253  0.00  0.00    +0.015 C 
ATOM     31  C   UNL     1       5.048  -0.826  23.944  0.00  0.00    +0.005 C 
ENDBRANCH  27  29
ENDBRANCH   7  27
ENDBRANCH  15   4
ENDBRANCH   9  15
BRANCH  11  16
ATOM     16  C   UNL     1      -5.212   3.006  25.757  0.00  0.00    +0.082 C 
BRANCH  16  20
ATOM      5  N   UNL     1      -3.534   1.159  25.587  0.00  0.00    -0.342 N 
ATOM      6  N   UNL     1      -5.502   0.772  24.629  0.00  0.00    -0.232 NA
ATOM     20  C   UNL     1      -4.783   1.639  25.308  0.00  0.00    +0.109 A 
ATOM     22  C   UNL     1      -3.441  -0.101  25.054  0.00  0.00    +0.067 A 
ATOM     23  C   UNL     1      -4.682  -0.319  24.461  0.00  0.00    +0.089 A 
ATOM     24  C   UNL     1      -2.408  -1.040  25.039  0.00  0.00    +0.042 A 
ATOM     25  C   UNL     1      -4.925  -1.540  23.811  0.00  0.00    +0.030 A 
ATOM     26  C   UNL     1      -2.668  -2.250  24.387  0.00  0.00    +0.061 A 
ATOM     28  C   UNL     1      -3.903  -2.498  23.783  0.00  0.00    +0.017 A 
ATOM     34  H   UNL     1      -2.808   1.643  26.097  0.00  0.00    +0.167 HD
BRANCH  26  30
ATOM      3  O   UNL     1      -1.456  -4.046  23.390  0.00  0.00    -0.245 OA
ATOM     30  C   UNL     1      -1.630  -3.269  24.338  0.00  0.00    +0.339 C 
BRANCH  30   2
ATOM      2  O   UNL     1      -0.866  -3.262  25.473  0.00  0.00    -0.464 OA
ATOM     32  C   UNL     1       0.369  -2.541  25.417  0.00  0.00    +0.280 C 
ENDBRANCH  30   2
ENDBRANCH  26  30
ENDBRANCH  16  20
ENDBRANCH  11  16
TORSDOF 9
ENDMDL
MODEL 4
REMARK VINA RESULT:      -0.0      2.349      6.883
REMARK  Name = 71693177
REMARK  14 active torsions:
REMARK  status: ('A' for Active; 'I' for Inactive)
REMARK    1  A    between atoms: O_2  and  C_30
REMARK    2  A    between atoms: O_2  and  C_32
REMARK    3  A    between atoms: N_4  and  C_15
REMARK    4  A    between atoms: N_7  and  C_27
REMARK    5  A    between atoms: C_8  and  C_12
REMARK    6  A    between atoms: C_9  and  C_15
REMARK    7  A    between atoms: C_11  and  C_16
REMARK    8  A    between atoms: C_12  and  C_17
REMARK    9  A    between atoms: C_12  and  C_18
REMARK   10  A    between atoms: C_13  and  C_19
REMARK   11  A    between atoms: C_16  and  C_20
REMARK   12  A    between atoms: C_26  and  C_30
REMARK   13  A    between atoms: C_27  and  C_29
REMARK   14  A    between atoms: C_29  and  C_31
REMARK                            x       y       z     vdW  Elec       q    Type
REMARK                         _______ _______ _______ _____ _____    ______ ____
ROOT
ATOM      8  C   UNL     1      -1.860  -0.513  25.358  0.00  0.00    +0.000 C 
ATOM      9  C   UNL     1      -0.724  -1.138  24.510  0.00  0.00    +0.032 C 
ATOM     10  C   UNL     1      -2.732  -1.613  25.983  0.00  0.00    +0.012 C 
ATOM     11  C   UNL     1      -3.365  -2.529  24.919  0.00  0.00    +0.022 C 
ATOM     13  C   UNL     1      -2.351  -2.974  23.884  0.00  0.00    -0.073 C 
ATOM     14  C   UNL     1      -1.171  -2.349  23.725  0.00  0.00    -0.022 C 
ATOM     19  C   UNL     1      -2.707  -4.184  23.065  0.00  0.00    +0.039 C 
ENDROOT
BRANCH   8  12
ATOM     12  C   UNL     1      -1.311   0.401  26.458  0.00  0.00    -0.013 C 
ATOM     17  C   UNL     1      -0.542   1.568  25.845  0.00  0.00    +0.007 C 
ATOM     18  C   UNL     1      -0.422  -0.390  27.413  0.00  0.00    +0.007 C 
ENDBRANCH   8  12
BRANCH   9  15
ATOM     15  C   UNL     1      -0.114  -0.107  23.555  0.00  0.00    +0.113 C 
BRANCH  15   4
ATOM      1  O   UNL     1       2.120   1.714  23.410  0.00  0.00    -0.253 OA
ATOM      4  N   UNL     1       1.245  -0.434  23.256  0.00  0.00    -0.299 N 
ATOM      7  N   UNL     1       3.500  -0.078  22.889  0.00  0.00    -0.299 N 
ATOM     21  C   UNL     1       2.278   0.511  23.203  0.00  0.00    +0.300 C 
ATOM     33  H   UNL     1       1.493  -1.410  23.135  0.00  0.00    +0.150 HD
ATOM     35  H   UNL     1       3.532  -1.078  22.727  0.00  0.00    +0.150 HD
BRANCH   7  27
ATOM     27  C   UNL     1       4.726   0.678  22.774  0.00  0.00    +0.105 C 
BRANCH  27  29
ATOM     29  C   UNL     1       5.733   0.319  23.859  0.00  0.00    +0.015 C 
ATOM     31  C   UNL     1       5.561  -1.103  24.375  0.00  0.00    +0.005 C 
ENDBRANCH  27  29
ENDBRANCH   7  27
ENDBRANCH  15   4
ENDBRANCH   9  15
BRANCH  11  16
ATOM     16  C   UNL     1      -4.568  -1.852  24.253  0.00  0.00    +0.082 C 
BRANCH  16  20
ATOM      5  N   UNL     1      -3.728   0.453  23.766  0.00  0.00    -0.342 N 
ATOM      6  N   UNL     1      -5.293   0.302  25.337  0.00  0.00    -0.232 NA
ATOM     20  C   UNL     1      -4.557  -0.368  24.478  0.00  0.00    +0.109 A 
ATOM     22  C   UNL     1      -3.945   1.738  24.192  0.00  0.00    +0.067 A 
ATOM     23  C   UNL     1      -4.925   1.618  25.173  0.00  0.00    +0.089 A 
ATOM     24  C   UNL     1      -3.382   2.959  23.815  0.00  0.00    +0.042 A 
ATOM     25  C   UNL     1      -5.385   2.772  25.826  0.00  0.00    +0.030 A 
ATOM     26  C   UNL     1      -3.852   4.099  24.476  0.00  0.00    +0.061 A 
ATOM     28  C   UNL     1      -4.836   4.009  25.464  0.00  0.00    +0.017 A 
ATOM     34  H   UNL     1      -3.073   0.166  23.051  0.00  0.00    +0.167 HD
BRANCH  26  30
ATOM      3  O   UNL     1      -3.700   6.095  23.182  0.00  0.00    -0.245 OA
ATOM     30  C   UNL     1      -3.305   5.400  24.127  0.00  0.00    +0.339 C 
BRANCH  30   2
ATOM      2  O   UNL     1      -2.295   5.765  24.975  0.00  0.00    -0.464 OA
ATOM     32  C   UNL     1      -1.106   4.968  24.946  0.00  0.00    +0.280 C 
ENDBRANCH  30   2
ENDBRANCH  26  30
ENDBRANCH  16  20
ENDBRANCH  11  16
TORSDOF 9
ENDMDL
MODEL 5
REMARK VINA RESULT:       1.3      2.653      5.565
REMARK  Name = 71693177
REMARK  14 active torsions:
REMARK  status: ('A' for Active; 'I' for Inactive)
REMARK    1  A    between atoms: O_2  and  C_30
REMARK    2  A    between atoms: O_2  and  C_32
REMARK    3  A    between atoms: N_4  and  C_15
REMARK    4  A    between atoms: N_7  and  C_27
REMARK    5  A    between atoms: C_8  and  C_12
REMARK    6  A    between atoms: C_9  and  C_15
REMARK    7  A    between atoms: C_11  and  C_16
REMARK    8  A    between atoms: C_12  and  C_17
REMARK    9  A    between atoms: C_12  and  C_18
REMARK   10  A    between atoms: C_13  and  C_19
REMARK   11  A    between atoms: C_16  and  C_20
REMARK   12  A    between atoms: C_26  and  C_30
REMARK   13  A    between atoms: C_27  and  C_29
REMARK   14  A    between atoms: C_29  and  C_31
REMARK                            x       y       z     vdW  Elec       q    Type
REMARK                         _______ _______ _______ _____ _____    ______ ____
ROOT
ATOM      8  C   UNL     1      -3.255  -0.381  24.835  0.00  0.00    +0.000 C 
ATOM      9  C   UNL     1      -2.030  -0.600  23.912  0.00  0.00    +0.032 C 
ATOM     10  C   UNL     1      -4.461   0.109  24.019  0.00  0.00    +0.012 C 
ATOM     11  C   UNL     1      -4.166   1.427  23.277  0.00  0.00    +0.022 C 
ATOM     13  C   UNL     1      -2.834   1.381  22.556  0.00  0.00    -0.073 C 
ATOM     14  C   UNL     1      -1.897   0.459  22.844  0.00  0.00    -0.022 C 
ATOM     19  C   UNL     1      -2.620   2.392  21.464  0.00  0.00    +0.039 C 
ENDROOT
BRANCH   8  12
ATOM     12  C   UNL     1      -3.629  -1.656  25.598  0.00  0.00    -0.013 C 
ATOM     17  C   UNL     1      -2.863  -1.731  26.915  0.00  0.00    +0.007 C 
ATOM     18  C   UNL     1      -3.353  -2.888  24.741  0.00  0.00    +0.007 C 
ENDBRANCH   8  12
BRANCH   9  15
ATOM     15  C   UNL     1      -0.732  -0.673  24.724  0.00  0.00    +0.113 C 
BRANCH  15   4
ATOM      1  O   UNL     1       1.227   1.349  24.094  0.00  0.00    -0.253 OA
ATOM      4  N   UNL     1       0.399  -0.810  23.861  0.00  0.00    -0.299 N 
ATOM      7  N   UNL     1       2.314  -0.180  22.728  0.00  0.00    -0.299 N 
ATOM     21  C   UNL     1       1.309   0.224  23.603  0.00  0.00    +0.300 C 
ATOM     33  H   UNL     1       0.595  -1.721  23.459  0.00  0.00    +0.150 HD
ATOM     35  H   UNL     1       2.295  -1.128  22.367  0.00  0.00    +0.150 HD
BRANCH   7  27
ATOM     27  C   UNL     1       3.379   0.698  22.301  0.00  0.00    +0.105 C 
BRANCH  27  29
ATOM     29  C   UNL     1       4.563   0.683  23.260  0.00  0.00    +0.015 C 
ATOM     31  C   UNL     1       5.000  -0.726  23.633  0.00  0.00    +0.005 C 
ENDBRANCH  27  29
ENDBRANCH   7  27
ENDBRANCH  15   4
ENDBRANCH   9  15
BRANCH  11  16
ATOM     16  C   UNL     1      -4.233   2.624  24.231  0.00  0.00    +0.082 C 
BRANCH  16  20
ATOM      5  N   UNL     1      -2.491   2.170  25.967  0.00  0.00    -0.342 N 
ATOM      6  N   UNL     1      -2.012   3.779  24.510  0.00  0.00    -0.232 NA
ATOM     20  C   UNL     1      -2.904   2.885  24.878  0.00  0.00    +0.109 A 
ATOM     22  C   UNL     1      -1.250   2.633  26.326  0.00  0.00    +0.067 A 
ATOM     23  C   UNL     1      -0.974   3.637  25.402  0.00  0.00    +0.089 A 
ATOM     24  C   UNL     1      -0.374   2.270  27.350  0.00  0.00    +0.042 A 
ATOM     25  C   UNL     1       0.243   4.330  25.488  0.00  0.00    +0.030 A 
ATOM     26  C   UNL     1       0.835   2.972  27.421  0.00  0.00    +0.061 A 
ATOM     28  C   UNL     1       1.140   3.983  26.507  0.00  0.00    +0.017 A 
ATOM     34  H   UNL     1      -3.005   1.431  26.427  0.00  0.00    +0.167 HD
BRANCH  26  30
ATOM      3  O   UNL     1       2.990   2.943  28.441  0.00  0.00    -0.245 OA
ATOM     30  C   UNL     1       1.790   2.639  28.466  0.00  0.00    +0.339 C 
BRANCH  30   2
ATOM      2  O   UNL     1       1.198   1.945  29.486  0.00  0.00    -0.464 OA
ATOM     32  C   UNL     1       0.906   2.675  30.682  0.00  0.00    +0.280 C 
ENDBRANCH  30   2
ENDBRANCH  26  30
ENDBRANCH  16  20
ENDBRANCH  11  16
TORSDOF 9
ENDMDL
