MODEL 1
REMARK VINA RESULT:      14.0      0.000      0.000
REMARK  Name = 40586225
REMARK  7 active torsions:
REMARK  status: ('A' for Active; 'I' for Inactive)
REMARK    1  A    between atoms: O_4  and  C_32
REMARK    2  A    between atoms: O_4  and  C_35
REMARK    3  A    between atoms: O_5  and  C_33
REMARK    4  A    between atoms: O_5  and  C_36
REMARK    5  A    between atoms: N_8  and  C_20
REMARK    6  A    between atoms: N_9  and  C_29
REMARK    7  A    between atoms: C_22  and  C_28
REMARK                            x       y       z     vdW  Elec       q    Type
REMARK                         _______ _______ _______ _____ _____    ______ ____
ROOT
ATOM      1  O   UNL     1      -0.499  -1.248  21.928  0.00  0.00    -0.266 OA
ATOM      2  O   UNL     1      -4.337   1.615  23.644  0.00  0.00    -0.252 OA
ATOM      6  N   UNL     1      -1.774  -1.763  23.817  0.00  0.00    -0.310 N 
ATOM      7  N   UNL     1      -4.284  -0.266  24.987  0.00  0.00    -0.284 N 
ATOM      9  N   UNL     1      -3.280   1.743  25.706  0.00  0.00    -0.269 N 
ATOM     10  C   UNL     1      -4.257  -2.381  23.685  0.00  0.00    +0.027 C 
ATOM     11  C   UNL     1      -3.136  -2.272  25.876  0.00  0.00    +0.054 C 
ATOM     12  C   UNL     1      -3.982  -3.163  24.965  0.00  0.00    +0.018 C 
ATOM     13  C   UNL     1      -2.921  -2.128  22.973  0.00  0.00    +0.130 C 
ATOM     14  C   UNL     1      -5.004  -1.070  23.998  0.00  0.00    +0.114 C 
ATOM     15  C   UNL     1      -3.931  -0.998  26.216  0.00  0.00    +0.119 C 
ATOM     16  C   UNL     1      -1.825  -1.899  25.209  0.00  0.00    +0.027 A 
ATOM     17  C   UNL     1      -0.731  -1.662  25.952  0.00  0.00    +0.024 A 
ATOM     18  C   UNL     1      -0.598  -1.365  23.149  0.00  0.00    +0.273 A 
ATOM     19  C   UNL     1      -3.999   1.088  24.708  0.00  0.00    +0.306 C 
ATOM     20  C   UNL     1       0.591  -1.086  24.016  0.00  0.00    +0.099 A 
ATOM     21  C   UNL     1       0.500  -1.246  25.341  0.00  0.00    +0.030 A 
ATOM     38  H   UNL     1      -3.397   1.435  26.665  0.00  0.00    +0.156 HD
ENDROOT
BRANCH   9  29
ATOM     29  C   UNL     1      -2.366   2.814  25.546  0.00  0.00    +0.042 A 
ATOM     30  C   UNL     1      -2.780   3.999  24.938  0.00  0.00    +0.069 A 
ATOM     31  C   UNL     1      -1.052   2.683  25.996  0.00  0.00    +0.069 A 
ATOM     32  C   UNL     1      -0.153   3.737  25.839  0.00  0.00    +0.125 A 
ATOM     33  C   UNL     1      -1.881   5.053  24.780  0.00  0.00    +0.125 A 
ATOM     34  C   UNL     1      -0.566   4.922  25.230  0.00  0.00    +0.091 A 
BRANCH  32   4
ATOM      4  O   UNL     1       1.129   3.610  26.278  0.00  0.00    -0.495 OA
ATOM     35  C   UNL     1       1.338   2.839  27.460  0.00  0.00    +0.277 C 
ENDBRANCH  32   4
BRANCH  33   5
ATOM      5  O   UNL     1      -2.285   6.210  24.186  0.00  0.00    -0.495 OA
ATOM     36  C   UNL     1      -3.500   6.166  23.439  0.00  0.00    +0.277 C 
ENDBRANCH  33   5
ENDBRANCH   9  29
BRANCH  20   8
ATOM      3  O   UNL     1       1.552   1.610  23.808  0.00  0.00    -0.275 OA
ATOM      8  N   UNL     1       1.744  -0.680  23.410  0.00  0.00    -0.281 N 
ATOM     28  C   UNL     1       2.159   0.642  23.355  0.00  0.00    +0.220 C 
ATOM     37  H   UNL     1       2.193  -1.350  22.792  0.00  0.00    +0.155 HD
BRANCH  28  22
ATOM     22  C   UNL     1       3.462   0.801  22.629  0.00  0.00    +0.075 C 
ATOM     23  C   UNL     1       4.472   1.579  23.476  0.00  0.00    +0.013 C 
ATOM     24  C   UNL     1       3.990  -0.565  22.186  0.00  0.00    +0.013 C 
ATOM     25  C   UNL     1       5.091   0.748  24.599  0.00  0.00    +0.001 C 
ATOM     26  C   UNL     1       4.597  -1.373  23.332  0.00  0.00    +0.001 C 
ATOM     27  C   UNL     1       5.653  -0.573  24.086  0.00  0.00    +0.000 C 
ENDBRANCH  28  22
ENDBRANCH  20   8
TORSDOF 5
ENDMDL
MODEL 2
REMARK VINA RESULT:      14.0      0.013      2.175
REMARK  Name = 40586225
REMARK  7 active torsions:
REMARK  status: ('A' for Active; 'I' for Inactive)
REMARK    1  A    between atoms: O_4  and  C_32
REMARK    2  A    between atoms: O_4  and  C_35
REMARK    3  A    between atoms: O_5  and  C_33
REMARK    4  A    between atoms: O_5  and  C_36
REMARK    5  A    between atoms: N_8  and  C_20
REMARK    6  A    between atoms: N_9  and  C_29
REMARK    7  A    between atoms: C_22  and  C_28
REMARK                            x       y       z     vdW  Elec       q    Type
REMARK                         _______ _______ _______ _____ _____    ______ ____
ROOT
ATOM      1  O   UNL     1      -0.504  -1.252  21.933  0.00  0.00    -0.266 OA
ATOM      2  O   UNL     1      -4.344   1.616  23.636  0.00  0.00    -0.252 OA
ATOM      6  N   UNL     1      -1.781  -1.760  23.823  0.00  0.00    -0.310 N 
ATOM      7  N   UNL     1      -4.291  -0.260  24.985  0.00  0.00    -0.284 N 
ATOM      9  N   UNL     1      -3.288   1.751  25.699  0.00  0.00    -0.269 N 
ATOM     10  C   UNL     1      -4.263  -2.380  23.690  0.00  0.00    +0.027 C 
ATOM     11  C   UNL     1      -3.144  -2.263  25.881  0.00  0.00    +0.054 C 
ATOM     12  C   UNL     1      -3.989  -3.157  24.973  0.00  0.00    +0.018 C 
ATOM     13  C   UNL     1      -2.927  -2.129  22.978  0.00  0.00    +0.130 C 
ATOM     14  C   UNL     1      -5.010  -1.068  23.998  0.00  0.00    +0.114 C 
ATOM     15  C   UNL     1      -3.939  -0.988  26.217  0.00  0.00    +0.119 C 
ATOM     16  C   UNL     1      -1.832  -1.892  25.215  0.00  0.00    +0.027 A 
ATOM     17  C   UNL     1      -0.739  -1.653  25.958  0.00  0.00    +0.024 A 
ATOM     18  C   UNL     1      -0.603  -1.364  23.155  0.00  0.00    +0.273 A 
ATOM     19  C   UNL     1      -4.007   1.093  24.702  0.00  0.00    +0.306 C 
ATOM     20  C   UNL     1       0.585  -1.082  24.022  0.00  0.00    +0.099 A 
ATOM     21  C   UNL     1       0.492  -1.239  25.347  0.00  0.00    +0.030 A 
ATOM     38  H   UNL     1      -3.407   1.447  26.658  0.00  0.00    +0.156 HD
ENDROOT
BRANCH   9  29
ATOM     29  C   UNL     1      -2.375   2.822  25.535  0.00  0.00    +0.042 A 
ATOM     30  C   UNL     1      -1.061   2.693  25.987  0.00  0.00    +0.069 A 
ATOM     31  C   UNL     1      -2.789   4.005  24.922  0.00  0.00    +0.069 A 
ATOM     32  C   UNL     1      -1.890   5.058  24.760  0.00  0.00    +0.125 A 
ATOM     33  C   UNL     1      -0.162   3.747  25.826  0.00  0.00    +0.125 A 
ATOM     34  C   UNL     1      -0.576   4.930  25.213  0.00  0.00    +0.091 A 
BRANCH  32   4
ATOM      4  O   UNL     1      -2.292   6.212  24.162  0.00  0.00    -0.495 OA
ATOM     35  C   UNL     1      -3.518   6.173  23.433  0.00  0.00    +0.277 C 
ENDBRANCH  32   4
BRANCH  33   5
ATOM      5  O   UNL     1       1.120   3.622  26.268  0.00  0.00    -0.495 OA
ATOM     36  C   UNL     1       1.328   2.840  27.443  0.00  0.00    +0.277 C 
ENDBRANCH  33   5
ENDBRANCH   9  29
BRANCH  20   8
ATOM      3  O   UNL     1       1.547   1.613  23.807  0.00  0.00    -0.275 OA
ATOM      8  N   UNL     1       1.738  -0.678  23.415  0.00  0.00    -0.281 N 
ATOM     28  C   UNL     1       2.153   0.643  23.357  0.00  0.00    +0.220 C 
ATOM     37  H   UNL     1       2.187  -1.350  22.799  0.00  0.00    +0.155 HD
BRANCH  28  22
ATOM     22  C   UNL     1       3.457   0.801  22.632  0.00  0.00    +0.075 C 
ATOM     23  C   UNL     1       4.467   1.580  23.477  0.00  0.00    +0.013 C 
ATOM     24  C   UNL     1       3.985  -0.567  22.193  0.00  0.00    +0.013 C 
ATOM     25  C   UNL     1       5.085   0.752  24.603  0.00  0.00    +0.001 C 
ATOM     26  C   UNL     1       4.591  -1.372  23.341  0.00  0.00    +0.001 C 
ATOM     27  C   UNL     1       5.647  -0.570  24.094  0.00  0.00    +0.000 C 
ENDBRANCH  28  22
ENDBRANCH  20   8
TORSDOF 5
ENDMDL
MODEL 3
REMARK VINA RESULT:      15.2      2.027      5.822
REMARK  Name = 40586225
REMARK  7 active torsions:
REMARK  status: ('A' for Active; 'I' for Inactive)
REMARK    1  A    between atoms: O_4  and  C_32
REMARK    2  A    between atoms: O_4  and  C_35
REMARK    3  A    between atoms: O_5  and  C_33
REMARK    4  A    between atoms: O_5  and  C_36
REMARK    5  A    between atoms: N_8  and  C_20
REMARK    6  A    between atoms: N_9  and  C_29
REMARK    7  A    between atoms: C_22  and  C_28
REMARK                            x       y       z     vdW  Elec       q    Type
REMARK                         _______ _______ _______ _____ _____    ______ ____
ROOT
ATOM      1  O   UNL     1      -0.410   2.627  26.503  0.00  0.00    -0.266 OA
ATOM      2  O   UNL     1      -4.998   0.439  26.706  0.00  0.00    -0.252 OA
ATOM      6  N   UNL     1      -2.256   3.336  25.257  0.00  0.00    -0.310 N 
ATOM      7  N   UNL     1      -5.219   2.275  25.318  0.00  0.00    -0.284 N 
ATOM      9  N   UNL     1      -4.915   0.121  24.408  0.00  0.00    -0.269 N 
ATOM     10  C   UNL     1      -4.340   4.365  26.335  0.00  0.00    +0.027 C 
ATOM     11  C   UNL     1      -4.249   4.054  23.893  0.00  0.00    +0.054 C 
ATOM     12  C   UNL     1      -4.501   5.080  24.998  0.00  0.00    +0.018 C 
ATOM     13  C   UNL     1      -2.885   3.895  26.463  0.00  0.00    +0.130 C 
ATOM     14  C   UNL     1      -5.338   3.196  26.451  0.00  0.00    +0.114 C 
ATOM     15  C   UNL     1      -5.296   2.929  24.001  0.00  0.00    +0.119 C 
ATOM     16  C   UNL     1      -2.853   3.469  23.999  0.00  0.00    +0.027 A 
ATOM     17  C   UNL     1      -2.211   3.047  22.897  0.00  0.00    +0.024 A 
ATOM     18  C   UNL     1      -0.984   2.750  25.420  0.00  0.00    +0.273 A 
ATOM     19  C   UNL     1      -5.052   0.895  25.560  0.00  0.00    +0.306 C 
ATOM     20  C   UNL     1      -0.313   2.269  24.170  0.00  0.00    +0.099 A 
ATOM     21  C   UNL     1      -0.916   2.434  22.988  0.00  0.00    +0.030 A 
ATOM     38  H   UNL     1      -5.368   0.438  23.559  0.00  0.00    +0.156 HD
ENDROOT
BRANCH   9  29
ATOM     29  C   UNL     1      -4.189  -1.087  24.266  0.00  0.00    +0.042 A 
ATOM     30  C   UNL     1      -2.884  -1.179  24.752  0.00  0.00    +0.069 A 
ATOM     31  C   UNL     1      -4.779  -2.186  23.640  0.00  0.00    +0.069 A 
ATOM     32  C   UNL     1      -4.064  -3.375  23.500  0.00  0.00    +0.125 A 
ATOM     33  C   UNL     1      -2.170  -2.368  24.612  0.00  0.00    +0.125 A 
ATOM     34  C   UNL     1      -2.759  -3.467  23.985  0.00  0.00    +0.091 A 
BRANCH  32   4
ATOM      4  O   UNL     1      -4.639  -4.448  22.890  0.00  0.00    -0.495 OA
ATOM     35  C   UNL     1      -5.926  -4.251  22.307  0.00  0.00    +0.277 C 
ENDBRANCH  32   4
BRANCH  33   5
ATOM      5  O   UNL     1      -0.896  -2.457  25.085  0.00  0.00    -0.495 OA
ATOM     36  C   UNL     1      -0.416  -1.363  25.865  0.00  0.00    +0.277 C 
ENDBRANCH  33   5
ENDBRANCH   9  29
BRANCH  20   8
ATOM      3  O   UNL     1       0.541  -0.156  22.896  0.00  0.00    -0.275 OA
ATOM      8  N   UNL     1       0.911   1.679  24.287  0.00  0.00    -0.281 N 
ATOM     28  C   UNL     1       1.266   0.510  23.633  0.00  0.00    +0.220 C 
ATOM     37  H   UNL     1       1.498   1.997  25.054  0.00  0.00    +0.155 HD
BRANCH  28  22
ATOM     22  C   UNL     1       2.672   0.087  23.942  0.00  0.00    +0.075 C 
ATOM     23  C   UNL     1       3.120  -1.050  23.020  0.00  0.00    +0.013 C 
ATOM     24  C   UNL     1       3.610   1.294  23.888  0.00  0.00    +0.013 C 
ATOM     25  C   UNL     1       3.470  -0.586  21.607  0.00  0.00    +0.001 C 
ATOM     26  C   UNL     1       3.936   1.737  22.463  0.00  0.00    +0.001 C 
ATOM     27  C   UNL     1       4.453   0.579  21.618  0.00  0.00    +0.000 C 
ENDBRANCH  28  22
ENDBRANCH  20   8
TORSDOF 5
ENDMDL
MODEL 4
REMARK VINA RESULT:      15.2      2.027      5.579
REMARK  Name = 40586225
REMARK  7 active torsions:
REMARK  status: ('A' for Active; 'I' for Inactive)
REMARK    1  A    between atoms: O_4  and  C_32
REMARK    2  A    between atoms: O_4  and  C_35
REMARK    3  A    between atoms: O_5  and  C_33
REMARK    4  A    between atoms: O_5  and  C_36
REMARK    5  A    between atoms: N_8  and  C_20
REMARK    6  A    between atoms: N_9  and  C_29
REMARK    7  A    between atoms: C_22  and  C_28
REMARK                            x       y       z     vdW  Elec       q    Type
REMARK                         _______ _______ _______ _____ _____    ______ ____
ROOT
ATOM      1  O   UNL     1      -0.414   2.622  26.503  0.00  0.00    -0.266 OA
ATOM      2  O   UNL     1      -4.995   0.421  26.712  0.00  0.00    -0.252 OA
ATOM      6  N   UNL     1      -2.264   3.325  25.258  0.00  0.00    -0.310 N 
ATOM      7  N   UNL     1      -5.223   2.255  25.324  0.00  0.00    -0.284 N 
ATOM      9  N   UNL     1      -4.914   0.101  24.415  0.00  0.00    -0.269 N 
ATOM     10  C   UNL     1      -4.350   4.348  26.338  0.00  0.00    +0.027 C 
ATOM     11  C   UNL     1      -4.261   4.035  23.896  0.00  0.00    +0.054 C 
ATOM     12  C   UNL     1      -4.514   5.062  25.000  0.00  0.00    +0.018 C 
ATOM     13  C   UNL     1      -2.893   3.883  26.465  0.00  0.00    +0.130 C 
ATOM     14  C   UNL     1      -5.344   3.176  26.455  0.00  0.00    +0.114 C 
ATOM     15  C   UNL     1      -5.304   2.907  24.006  0.00  0.00    +0.119 C 
ATOM     16  C   UNL     1      -2.862   3.455  24.001  0.00  0.00    +0.027 A 
ATOM     17  C   UNL     1      -2.221   3.034  22.898  0.00  0.00    +0.024 A 
ATOM     18  C   UNL     1      -0.989   2.743  25.420  0.00  0.00    +0.273 A 
ATOM     19  C   UNL     1      -5.052   0.875  25.566  0.00  0.00    +0.306 C 
ATOM     20  C   UNL     1      -0.319   2.263  24.170  0.00  0.00    +0.099 A 
ATOM     21  C   UNL     1      -0.923   2.425  22.988  0.00  0.00    +0.030 A 
ATOM     38  H   UNL     1      -5.369   0.416  23.566  0.00  0.00    +0.156 HD
ENDROOT
BRANCH   9  29
ATOM     29  C   UNL     1      -4.184  -1.105  24.273  0.00  0.00    +0.042 A 
ATOM     30  C   UNL     1      -4.773  -2.207  23.654  0.00  0.00    +0.069 A 
ATOM     31  C   UNL     1      -2.876  -1.189  24.752  0.00  0.00    +0.069 A 
ATOM     32  C   UNL     1      -2.158  -2.376  24.611  0.00  0.00    +0.125 A 
ATOM     33  C   UNL     1      -4.054  -3.395  23.513  0.00  0.00    +0.125 A 
ATOM     34  C   UNL     1      -2.747  -3.480  23.993  0.00  0.00    +0.091 A 
BRANCH  32   4
ATOM      4  O   UNL     1      -0.882  -2.460  25.078  0.00  0.00    -0.495 OA
ATOM     35  C   UNL     1      -0.409  -1.375  25.874  0.00  0.00    +0.277 C 
ENDBRANCH  32   4
BRANCH  33   5
ATOM      5  O   UNL     1      -4.629  -4.471  22.910  0.00  0.00    -0.495 OA
ATOM     36  C   UNL     1      -5.895  -4.265  22.284  0.00  0.00    +0.277 C 
ENDBRANCH  33   5
ENDBRANCH   9  29
BRANCH  20   8
ATOM      3  O   UNL     1       0.541  -0.161  22.897  0.00  0.00    -0.275 OA
ATOM      8  N   UNL     1       0.907   1.676  24.286  0.00  0.00    -0.281 N 
ATOM     28  C   UNL     1       1.265   0.508  23.632  0.00  0.00    +0.220 C 
ATOM     37  H   UNL     1       1.494   1.997  25.053  0.00  0.00    +0.155 HD
BRANCH  28  22
ATOM     22  C   UNL     1       2.673   0.089  23.940  0.00  0.00    +0.075 C 
ATOM     23  C   UNL     1       3.120  -1.052  23.023  0.00  0.00    +0.013 C 
ATOM     24  C   UNL     1       3.608   1.298  23.878  0.00  0.00    +0.013 C 
ATOM     25  C   UNL     1       3.466  -0.594  21.607  0.00  0.00    +0.001 C 
ATOM     26  C   UNL     1       3.930   1.734  22.450  0.00  0.00    +0.001 C 
ATOM     27  C   UNL     1       4.447   0.572  21.610  0.00  0.00    +0.000 C 
ENDBRANCH  28  22
ENDBRANCH  20   8
TORSDOF 5
ENDMDL
MODEL 5
REMARK VINA RESULT:      15.3      1.724      6.173
REMARK  Name = 40586225
REMARK  7 active torsions:
REMARK  status: ('A' for Active; 'I' for Inactive)
REMARK    1  A    between atoms: O_4  and  C_32
REMARK    2  A    between atoms: O_4  and  C_35
REMARK    3  A    between atoms: O_5  and  C_33
REMARK    4  A    between atoms: O_5  and  C_36
REMARK    5  A    between atoms: N_8  and  C_20
REMARK    6  A    between atoms: N_9  and  C_29
REMARK    7  A    between atoms: C_22  and  C_28
REMARK                            x       y       z     vdW  Elec       q    Type
REMARK                         _______ _______ _______ _____ _____    ______ ____
ROOT
ATOM      1  O   UNL     1      -3.803   0.977  26.427  0.00  0.00    -0.266 OA
ATOM      2  O   UNL     1       0.240  -2.061  25.879  0.00  0.00    -0.252 OA
ATOM      6  N   UNL     1      -3.726  -0.853  24.976  0.00  0.00    -0.310 N 
ATOM      7  N   UNL     1      -1.434  -2.972  24.571  0.00  0.00    -0.284 N 
ATOM      9  N   UNL     1       0.231  -1.612  23.602  0.00  0.00    -0.269 N 
ATOM     10  C   UNL     1      -3.569  -3.271  25.806  0.00  0.00    +0.027 C 
ATOM     11  C   UNL     1      -3.603  -2.805  23.387  0.00  0.00    +0.054 C 
ATOM     12  C   UNL     1      -4.275  -3.613  24.497  0.00  0.00    +0.018 C 
ATOM     13  C   UNL     1      -3.803  -1.785  26.110  0.00  0.00    +0.130 C 
ATOM     14  C   UNL     1      -2.070  -3.617  25.721  0.00  0.00    +0.114 C 
ATOM     15  C   UNL     1      -2.121  -3.213  23.290  0.00  0.00    +0.119 C 
ATOM     16  C   UNL     1      -3.711  -1.315  23.655  0.00  0.00    +0.027 A 
ATOM     17  C   UNL     1      -3.750  -0.445  22.633  0.00  0.00    +0.024 A 
ATOM     18  C   UNL     1      -3.769   0.523  25.283  0.00  0.00    +0.273 A 
ATOM     19  C   UNL     1      -0.264  -2.207  24.762  0.00  0.00    +0.306 C 
ATOM     20  C   UNL     1      -3.786   1.460  24.116  0.00  0.00    +0.099 A 
ATOM     21  C   UNL     1      -3.787   0.971  22.871  0.00  0.00    +0.030 A 
ATOM     38  H   UNL     1       0.064  -2.074  22.716  0.00  0.00    +0.156 HD
ENDROOT
BRANCH   9  29
ATOM     29  C   UNL     1       0.953  -0.398  23.500  0.00  0.00    +0.042 A 
ATOM     30  C   UNL     1       2.237  -0.392  22.956  0.00  0.00    +0.069 A 
ATOM     31  C   UNL     1       0.379   0.795  23.944  0.00  0.00    +0.069 A 
ATOM     32  C   UNL     1       1.089   1.990  23.843  0.00  0.00    +0.125 A 
ATOM     33  C   UNL     1       2.948   0.803  22.855  0.00  0.00    +0.125 A 
ATOM     34  C   UNL     1       2.374   1.995  23.300  0.00  0.00    +0.091 A 
BRANCH  32   4
ATOM      4  O   UNL     1       0.530   3.153  24.276  0.00  0.00    -0.495 OA
ATOM     35  C   UNL     1       0.094   3.199  25.633  0.00  0.00    +0.277 C 
ENDBRANCH  32   4
BRANCH  33   5
ATOM      5  O   UNL     1       4.201   0.808  22.324  0.00  0.00    -0.495 OA
ATOM     36  C   UNL     1       5.250   0.274  23.132  0.00  0.00    +0.277 C 
ENDBRANCH  33   5
ENDBRANCH   9  29
BRANCH  20   8
ATOM      3  O   UNL     1      -5.965   2.946  25.247  0.00  0.00    -0.275 OA
ATOM      8  N   UNL     1      -3.809   2.800  24.371  0.00  0.00    -0.281 N 
ATOM     28  C   UNL     1      -4.892   3.457  24.932  0.00  0.00    +0.220 C 
ATOM     37  H   UNL     1      -3.085   3.360  23.927  0.00  0.00    +0.155 HD
BRANCH  28  22
ATOM     22  C   UNL     1      -4.644   4.927  25.102  0.00  0.00    +0.075 C 
ATOM     23  C   UNL     1      -3.916   5.214  26.417  0.00  0.00    +0.013 C 
ATOM     24  C   UNL     1      -3.902   5.480  23.883  0.00  0.00    +0.013 C 
ATOM     25  C   UNL     1      -2.428   4.871  26.377  0.00  0.00    +0.001 C 
ATOM     26  C   UNL     1      -2.418   5.116  23.869  0.00  0.00    +0.001 C 
ATOM     27  C   UNL     1      -1.732   5.500  25.175  0.00  0.00    +0.000 C 
ENDBRANCH  28  22
ENDBRANCH  20   8
TORSDOF 5
ENDMDL
MODEL 6
REMARK VINA RESULT:      15.3      1.724      5.958
REMARK  Name = 40586225
REMARK  7 active torsions:
REMARK  status: ('A' for Active; 'I' for Inactive)
REMARK    1  A    between atoms: O_4  and  C_32
REMARK    2  A    between atoms: O_4  and  C_35
REMARK    3  A    between atoms: O_5  and  C_33
REMARK    4  A    between atoms: O_5  and  C_36
REMARK    5  A    between atoms: N_8  and  C_20
REMARK    6  A    between atoms: N_9  and  C_29
REMARK    7  A    between atoms: C_22  and  C_28
REMARK                            x       y       z     vdW  Elec       q    Type
REMARK                         _______ _______ _______ _____ _____    ______ ____
ROOT
ATOM      1  O   UNL     1      -3.790   0.992  26.435  0.00  0.00    -0.266 OA
ATOM      2  O   UNL     1       0.246  -2.053  25.876  0.00  0.00    -0.252 OA
ATOM      6  N   UNL     1      -3.720  -0.838  24.983  0.00  0.00    -0.310 N 
ATOM      7  N   UNL     1      -1.433  -2.960  24.572  0.00  0.00    -0.284 N 
ATOM      9  N   UNL     1       0.232  -1.604  23.599  0.00  0.00    -0.269 N 
ATOM     10  C   UNL     1      -3.565  -3.257  25.812  0.00  0.00    +0.027 C 
ATOM     11  C   UNL     1      -3.605  -2.789  23.393  0.00  0.00    +0.054 C 
ATOM     12  C   UNL     1      -4.275  -3.597  24.505  0.00  0.00    +0.018 C 
ATOM     13  C   UNL     1      -3.795  -1.770  26.117  0.00  0.00    +0.130 C 
ATOM     14  C   UNL     1      -2.066  -3.605  25.724  0.00  0.00    +0.114 C 
ATOM     15  C   UNL     1      -2.123  -3.201  23.293  0.00  0.00    +0.119 C 
ATOM     16  C   UNL     1      -3.709  -1.300  23.662  0.00  0.00    +0.027 A 
ATOM     17  C   UNL     1      -3.749  -0.429  22.640  0.00  0.00    +0.024 A 
ATOM     18  C   UNL     1      -3.760   0.538  25.290  0.00  0.00    +0.273 A 
ATOM     19  C   UNL     1      -0.261  -2.198  24.760  0.00  0.00    +0.306 C 
ATOM     20  C   UNL     1      -3.778   1.476  24.123  0.00  0.00    +0.099 A 
ATOM     21  C   UNL     1      -3.783   0.986  22.878  0.00  0.00    +0.030 A 
ATOM     38  H   UNL     1       0.063  -2.065  22.713  0.00  0.00    +0.156 HD
ENDROOT
BRANCH   9  29
ATOM     29  C   UNL     1       0.956  -0.390  23.495  0.00  0.00    +0.042 A 
ATOM     30  C   UNL     1       0.386   0.803  23.940  0.00  0.00    +0.069 A 
ATOM     31  C   UNL     1       2.240  -0.388  22.949  0.00  0.00    +0.069 A 
ATOM     32  C   UNL     1       2.953   0.806  22.847  0.00  0.00    +0.125 A 
ATOM     33  C   UNL     1       1.099   1.997  23.839  0.00  0.00    +0.125 A 
ATOM     34  C   UNL     1       2.382   1.999  23.291  0.00  0.00    +0.091 A 
BRANCH  32   4
ATOM      4  O   UNL     1       4.205   0.809  22.314  0.00  0.00    -0.495 OA
ATOM     35  C   UNL     1       5.253   0.261  23.113  0.00  0.00    +0.277 C 
ENDBRANCH  32   4
BRANCH  33   5
ATOM      5  O   UNL     1       0.542   3.161  24.272  0.00  0.00    -0.495 OA
ATOM     36  C   UNL     1       0.073   3.195  25.620  0.00  0.00    +0.277 C 
ENDBRANCH  33   5
ENDBRANCH   9  29
BRANCH  20   8
ATOM      3  O   UNL     1      -5.957   2.968  25.247  0.00  0.00    -0.275 OA
ATOM      8  N   UNL     1      -3.798   2.816  24.378  0.00  0.00    -0.281 N 
ATOM     28  C   UNL     1      -4.882   3.476  24.936  0.00  0.00    +0.220 C 
ATOM     37  H   UNL     1      -3.071   3.373  23.937  0.00  0.00    +0.155 HD
BRANCH  28  22
ATOM     22  C   UNL     1      -4.629   4.945  25.107  0.00  0.00    +0.075 C 
ATOM     23  C   UNL     1      -3.895   5.228  26.419  0.00  0.00    +0.013 C 
ATOM     24  C   UNL     1      -3.892   5.498  23.886  0.00  0.00    +0.013 C 
ATOM     25  C   UNL     1      -2.407   4.882  26.371  0.00  0.00    +0.001 C 
ATOM     26  C   UNL     1      -2.410   5.131  23.863  0.00  0.00    +0.001 C 
ATOM     27  C   UNL     1      -1.716   5.512  25.167  0.00  0.00    +0.000 C 
ENDBRANCH  28  22
ENDBRANCH  20   8
TORSDOF 5
ENDMDL
MODEL 7
REMARK VINA RESULT:      17.1      1.109      1.208
REMARK  Name = 40586225
REMARK  7 active torsions:
REMARK  status: ('A' for Active; 'I' for Inactive)
REMARK    1  A    between atoms: O_4  and  C_32
REMARK    2  A    between atoms: O_4  and  C_35
REMARK    3  A    between atoms: O_5  and  C_33
REMARK    4  A    between atoms: O_5  and  C_36
REMARK    5  A    between atoms: N_8  and  C_20
REMARK    6  A    between atoms: N_9  and  C_29
REMARK    7  A    between atoms: C_22  and  C_28
REMARK                            x       y       z     vdW  Elec       q    Type
REMARK                         _______ _______ _______ _____ _____    ______ ____
ROOT
ATOM      1  O   UNL     1      -0.296  -1.073  22.107  0.00  0.00    -0.266 OA
ATOM      2  O   UNL     1      -4.862   0.826  23.298  0.00  0.00    -0.252 OA
ATOM      6  N   UNL     1      -1.510  -1.677  24.010  0.00  0.00    -0.310 N 
ATOM      7  N   UNL     1      -4.399  -0.788  24.887  0.00  0.00    -0.284 N 
ATOM      9  N   UNL     1      -4.015   1.491  25.354  0.00  0.00    -0.269 N 
ATOM     10  C   UNL     1      -3.724  -2.961  23.888  0.00  0.00    +0.027 C 
ATOM     11  C   UNL     1      -2.820  -2.280  26.076  0.00  0.00    +0.054 C 
ATOM     12  C   UNL     1      -3.336  -3.473  25.272  0.00  0.00    +0.018 C 
ATOM     13  C   UNL     1      -2.460  -2.443  23.189  0.00  0.00    +0.130 C 
ATOM     14  C   UNL     1      -4.812  -1.874  23.996  0.00  0.00    +0.114 C 
ATOM     15  C   UNL     1      -3.946  -1.238  26.214  0.00  0.00    +0.119 C 
ATOM     16  C   UNL     1      -1.614  -1.649  25.404  0.00  0.00    +0.027 A 
ATOM     17  C   UNL     1      -0.675  -1.033  26.141  0.00  0.00    +0.024 A 
ATOM     18  C   UNL     1      -0.440  -1.060  23.329  0.00  0.00    +0.273 A 
ATOM     19  C   UNL     1      -4.467   0.546  24.433  0.00  0.00    +0.306 C 
ATOM     20  C   UNL     1       0.572  -0.362  24.185  0.00  0.00    +0.099 A 
ATOM     21  C   UNL     1       0.439  -0.377  25.516  0.00  0.00    +0.030 A 
ATOM     38  H   UNL     1      -4.110   1.284  26.342  0.00  0.00    +0.156 HD
ENDROOT
BRANCH   9  29
ATOM     29  C   UNL     1      -3.411   2.742  25.076  0.00  0.00    +0.042 A 
ATOM     30  C   UNL     1      -4.155   3.759  24.478  0.00  0.00    +0.069 A 
ATOM     31  C   UNL     1      -2.071   2.956  25.400  0.00  0.00    +0.069 A 
ATOM     32  C   UNL     1      -1.476   4.188  25.127  0.00  0.00    +0.125 A 
ATOM     33  C   UNL     1      -3.561   4.990  24.205  0.00  0.00    +0.125 A 
ATOM     34  C   UNL     1      -2.220   5.205  24.528  0.00  0.00    +0.091 A 
BRANCH  32   4
ATOM      4  O   UNL     1      -0.169   4.398  25.443  0.00  0.00    -0.495 OA
ATOM     35  C   UNL     1       0.553   3.296  25.990  0.00  0.00    +0.277 C 
ENDBRANCH  32   4
BRANCH  33   5
ATOM      5  O   UNL     1      -4.287   5.983  23.621  0.00  0.00    -0.495 OA
ATOM     36  C   UNL     1      -3.583   6.889  22.772  0.00  0.00    +0.277 C 
ENDBRANCH  33   5
ENDBRANCH   9  29
BRANCH  20   8
ATOM      3  O   UNL     1       3.109  -1.524  23.515  0.00  0.00    -0.275 OA
ATOM      8  N   UNL     1       1.612   0.264  23.564  0.00  0.00    -0.281 N 
ATOM     28  C   UNL     1       2.812  -0.359  23.257  0.00  0.00    +0.220 C 
ATOM     37  H   UNL     1       1.577   1.280  23.530  0.00  0.00    +0.155 HD
BRANCH  28  22
ATOM     22  C   UNL     1       3.778   0.565  22.576  0.00  0.00    +0.075 C 
ATOM     23  C   UNL     1       4.390   1.552  23.572  0.00  0.00    +0.013 C 
ATOM     24  C   UNL     1       4.834  -0.242  21.818  0.00  0.00    +0.013 C 
ATOM     25  C   UNL     1       5.466   0.929  24.461  0.00  0.00    +0.001 C 
ATOM     26  C   UNL     1       5.891  -0.855  22.734  0.00  0.00    +0.001 C 
ATOM     27  C   UNL     1       6.522   0.192  23.645  0.00  0.00    +0.000 C 
ENDBRANCH  28  22
ENDBRANCH  20   8
TORSDOF 5
ENDMDL
MODEL 8
REMARK VINA RESULT:      17.1      1.107      2.408
REMARK  Name = 40586225
REMARK  7 active torsions:
REMARK  status: ('A' for Active; 'I' for Inactive)
REMARK    1  A    between atoms: O_4  and  C_32
REMARK    2  A    between atoms: O_4  and  C_35
REMARK    3  A    between atoms: O_5  and  C_33
REMARK    4  A    between atoms: O_5  and  C_36
REMARK    5  A    between atoms: N_8  and  C_20
REMARK    6  A    between atoms: N_9  and  C_29
REMARK    7  A    between atoms: C_22  and  C_28
REMARK                            x       y       z     vdW  Elec       q    Type
REMARK                         _______ _______ _______ _____ _____    ______ ____
ROOT
ATOM      1  O   UNL     1      -0.294  -1.090  22.087  0.00  0.00    -0.266 OA
ATOM      2  O   UNL     1      -4.861   0.798  23.292  0.00  0.00    -0.252 OA
ATOM      6  N   UNL     1      -1.506  -1.706  23.987  0.00  0.00    -0.310 N 
ATOM      7  N   UNL     1      -4.395  -0.824  24.872  0.00  0.00    -0.284 N 
ATOM      9  N   UNL     1      -4.013   1.453  25.351  0.00  0.00    -0.269 N 
ATOM     10  C   UNL     1      -3.719  -2.990  23.861  0.00  0.00    +0.027 C 
ATOM     11  C   UNL     1      -2.814  -2.321  26.052  0.00  0.00    +0.054 C 
ATOM     12  C   UNL     1      -3.330  -3.510  25.241  0.00  0.00    +0.018 C 
ATOM     13  C   UNL     1      -2.456  -2.468  23.163  0.00  0.00    +0.130 C 
ATOM     14  C   UNL     1      -4.808  -1.905  23.975  0.00  0.00    +0.114 C 
ATOM     15  C   UNL     1      -3.941  -1.281  26.196  0.00  0.00    +0.119 C 
ATOM     16  C   UNL     1      -1.610  -1.685  25.382  0.00  0.00    +0.027 A 
ATOM     17  C   UNL     1      -0.670  -1.073  26.122  0.00  0.00    +0.024 A 
ATOM     18  C   UNL     1      -0.437  -1.084  23.310  0.00  0.00    +0.273 A 
ATOM     19  C   UNL     1      -4.465   0.513  24.426  0.00  0.00    +0.306 C 
ATOM     20  C   UNL     1       0.574  -0.390  24.169  0.00  0.00    +0.099 A 
ATOM     21  C   UNL     1       0.443  -0.412  25.500  0.00  0.00    +0.030 A 
ATOM     38  H   UNL     1      -4.107   1.240  26.338  0.00  0.00    +0.156 HD
ENDROOT
BRANCH   9  29
ATOM     29  C   UNL     1      -3.410   2.706  25.080  0.00  0.00    +0.042 A 
ATOM     30  C   UNL     1      -2.073   2.923  25.412  0.00  0.00    +0.069 A 
ATOM     31  C   UNL     1      -4.154   3.722  24.478  0.00  0.00    +0.069 A 
ATOM     32  C   UNL     1      -3.560   4.955  24.210  0.00  0.00    +0.125 A 
ATOM     33  C   UNL     1      -1.479   4.156  25.144  0.00  0.00    +0.125 A 
ATOM     34  C   UNL     1      -2.223   5.173  24.544  0.00  0.00    +0.091 A 
BRANCH  32   4
ATOM      4  O   UNL     1      -4.284   5.947  23.623  0.00  0.00    -0.495 OA
ATOM     35  C   UNL     1      -3.572   6.878  22.810  0.00  0.00    +0.277 C 
ENDBRANCH  32   4
BRANCH  33   5
ATOM      5  O   UNL     1      -0.175   4.369  25.470  0.00  0.00    -0.495 OA
ATOM     36  C   UNL     1       0.531   3.282  26.067  0.00  0.00    +0.277 C 
ENDBRANCH  33   5
ENDBRANCH   9  29
BRANCH  20   8
ATOM      3  O   UNL     1       3.116  -1.543  23.499  0.00  0.00    -0.275 OA
ATOM      8  N   UNL     1       1.614   0.240  23.550  0.00  0.00    -0.281 N 
ATOM     28  C   UNL     1       2.815  -0.379  23.243  0.00  0.00    +0.220 C 
ATOM     37  H   UNL     1       1.576   1.256  23.518  0.00  0.00    +0.155 HD
BRANCH  28  22
ATOM     22  C   UNL     1       3.780   0.549  22.565  0.00  0.00    +0.075 C 
ATOM     23  C   UNL     1       4.364   1.557  23.558  0.00  0.00    +0.013 C 
ATOM     24  C   UNL     1       4.858  -0.252  21.834  0.00  0.00    +0.013 C 
ATOM     25  C   UNL     1       5.434   0.960  24.472  0.00  0.00    +0.001 C 
ATOM     26  C   UNL     1       5.909  -0.840  22.774  0.00  0.00    +0.001 C 
ATOM     27  C   UNL     1       6.511   0.227  23.681  0.00  0.00    +0.000 C 
ENDBRANCH  28  22
ENDBRANCH  20   8
TORSDOF 5
ENDMDL
