MODEL 1
REMARK VINA RESULT:      22.2      0.000      0.000
REMARK  Name = 71694355
REMARK  6 active torsions:
REMARK  status: ('A' for Active; 'I' for Inactive)
REMARK    1  A    between atoms: O_2  and  C_22
REMARK    2  A    between atoms: O_2  and  C_29
REMARK    3  A    between atoms: N_8  and  C_31
REMARK    4  A    between atoms: C_10  and  C_13
REMARK    5  A    between atoms: C_13  and  C_19
REMARK    6  A    between atoms: C_16  and  C_22
REMARK                            x       y       z     vdW  Elec       q    Type
REMARK                         _______ _______ _______ _____ _____    ______ ____
ROOT
ATOM      3  O   UNL     1      -2.148  -3.873  23.902  0.00  0.00    -0.274 OA
ATOM      4  O   UNL     1      -0.309   1.039  24.701  0.00  0.00    -0.488 OA
ATOM      6  N   UNL     1      -3.300  -2.123  24.882  0.00  0.00    -0.300 N 
ATOM      7  N   UNL     1      -0.211  -1.747  25.532  0.00  0.00    -0.304 NA
ATOM     10  C   UNL     1      -4.391   0.349  23.788  0.00  0.00    +0.008 C 
ATOM     11  C   UNL     1      -3.235   0.311  24.831  0.00  0.00    +0.032 C 
ATOM     12  C   UNL     1      -4.413  -0.986  23.006  0.00  0.00    +0.023 C 
ATOM     14  C   UNL     1      -3.356  -0.931  25.736  0.00  0.00    +0.115 C 
ATOM     15  C   UNL     1      -4.407  -2.209  23.926  0.00  0.00    +0.108 C 
ATOM     21  C   UNL     1      -3.098   1.570  25.646  0.00  0.00    -0.023 C 
ATOM     23  C   UNL     1      -2.217  -2.994  24.769  0.00  0.00    +0.229 C 
ATOM     24  C   UNL     1      -2.045   2.399  25.744  0.00  0.00    +0.010 C 
ATOM     25  C   UNL     1      -1.088  -2.889  25.777  0.00  0.00    +0.178 C 
ATOM     26  C   UNL     1      -0.663   2.344  25.145  0.00  0.00    +0.256 C 
ATOM     27  C   UNL     1       0.336  -1.665  24.178  0.00  0.00    +0.120 C 
ATOM     28  C   UNL     1       1.334  -0.529  24.041  0.00  0.00    +0.010 A 
ATOM     30  C   UNL     1       0.984   0.818  24.296  0.00  0.00    +0.125 A 
ATOM     31  C   UNL     1       3.585   0.189  23.461  0.00  0.00    +0.030 A 
ATOM     34  C   UNL     1       2.642  -0.825  23.622  0.00  0.00    +0.031 A 
ATOM     37  C   UNL     1       1.938   1.826  24.124  0.00  0.00    +0.048 A 
ATOM     38  C   UNL     1       3.233   1.511  23.710  0.00  0.00    +0.027 A 
ATOM     39  H   UNL     1       0.555  -1.778  26.205  0.00  0.00    +0.123 HD
ENDROOT
BRANCH  31   8
ATOM      8  N   UNL     1       4.884  -0.124  23.044  0.00  0.00    -0.327 N 
ATOM      9  N   UNL     1       7.542  -0.536  22.087  0.00  0.00    -0.313 NA
ATOM     32  C   UNL     1       5.134  -0.263  21.603  0.00  0.00    +0.120 C 
ATOM     33  C   UNL     1       6.031   0.310  23.849  0.00  0.00    +0.120 C 
ATOM     35  C   UNL     1       6.400  -1.084  21.357  0.00  0.00    +0.100 C 
ATOM     36  C   UNL     1       7.265  -0.530  23.522  0.00  0.00    +0.100 C 
ATOM     40  H   UNL     1       8.364  -1.111  21.906  0.00  0.00    +0.122 HD
ENDBRANCH  31   8
BRANCH  10  13
ATOM     13  C   UNL     1      -5.775   0.650  24.378  0.00  0.00    +0.100 C 
BRANCH  13  19
ATOM      1  O   UNL     1      -6.221   1.967  26.310  0.00  0.00    -0.276 OA
ATOM      5  N   UNL     1      -5.087   2.992  24.572  0.00  0.00    -0.296 N 
ATOM     16  C   UNL     1      -5.033   4.327  25.174  0.00  0.00    +0.102 C 
ATOM     17  C   UNL     1      -4.657   5.238  24.003  0.00  0.00    +0.026 C 
ATOM     18  C   UNL     1      -4.484   2.986  23.243  0.00  0.00    +0.108 C 
ATOM     19  C   UNL     1      -5.722   1.924  25.184  0.00  0.00    +0.216 C 
ATOM     20  C   UNL     1      -3.801   4.339  23.118  0.00  0.00    +0.021 C 
BRANCH  16  22
ATOM     22  C   UNL     1      -4.009   4.388  26.305  0.00  0.00    +0.181 C 
BRANCH  22   2
ATOM      2  O   UNL     1      -3.231   5.559  26.144  0.00  0.00    -0.381 OA
ATOM     29  C   UNL     1      -1.977   5.279  25.529  0.00  0.00    +0.194 C 
ENDBRANCH  22   2
ENDBRANCH  16  22
ENDBRANCH  13  19
ENDBRANCH  10  13
TORSDOF 5
ENDMDL
MODEL 2
REMARK VINA RESULT:      25.2      1.373      2.021
REMARK  Name = 71694355
REMARK  6 active torsions:
REMARK  status: ('A' for Active; 'I' for Inactive)
REMARK    1  A    between atoms: O_2  and  C_22
REMARK    2  A    between atoms: O_2  and  C_29
REMARK    3  A    between atoms: N_8  and  C_31
REMARK    4  A    between atoms: C_10  and  C_13
REMARK    5  A    between atoms: C_13  and  C_19
REMARK    6  A    between atoms: C_16  and  C_22
REMARK                            x       y       z     vdW  Elec       q    Type
REMARK                         _______ _______ _______ _____ _____    ______ ____
ROOT
ATOM      3  O   UNL     1      -1.456  -3.662  24.456  0.00  0.00    -0.274 OA
ATOM      4  O   UNL     1       0.358   1.291  23.887  0.00  0.00    -0.488 OA
ATOM      6  N   UNL     1      -2.658  -1.716  24.806  0.00  0.00    -0.300 N 
ATOM      7  N   UNL     1       0.387  -1.127  25.504  0.00  0.00    -0.304 NA
ATOM     10  C   UNL     1      -3.663   0.312  22.969  0.00  0.00    +0.008 C 
ATOM     11  C   UNL     1      -2.575   0.597  24.046  0.00  0.00    +0.032 C 
ATOM     12  C   UNL     1      -3.644  -1.194  22.614  0.00  0.00    +0.023 C 
ATOM     14  C   UNL     1      -2.759  -0.326  25.266  0.00  0.00    +0.115 C 
ATOM     15  C   UNL     1      -3.703  -2.093  23.851  0.00  0.00    +0.108 C 
ATOM     21  C   UNL     1      -2.482   2.041  24.462  0.00  0.00    -0.023 C 
ATOM     23  C   UNL     1      -1.575  -2.568  25.020  0.00  0.00    +0.229 C 
ATOM     24  C   UNL     1      -1.432   2.875  24.377  0.00  0.00    +0.010 C 
ATOM     25  C   UNL     1      -0.509  -2.157  26.019  0.00  0.00    +0.178 C 
ATOM     26  C   UNL     1      -0.016   2.665  23.906  0.00  0.00    +0.256 C 
ATOM     27  C   UNL     1       1.018  -1.439  24.222  0.00  0.00    +0.120 C 
ATOM     28  C   UNL     1       2.030  -0.380  23.819  0.00  0.00    +0.010 A 
ATOM     30  C   UNL     1       1.672   0.977  23.645  0.00  0.00    +0.125 A 
ATOM     31  C   UNL     1       4.317   0.164  23.193  0.00  0.00    +0.030 A 
ATOM     34  C   UNL     1       3.359  -0.770  23.586  0.00  0.00    +0.031 A 
ATOM     37  C   UNL     1       2.641   1.903  23.243  0.00  0.00    +0.048 A 
ATOM     38  C   UNL     1       3.957   1.496  23.020  0.00  0.00    +0.027 A 
ATOM     39  H   UNL     1       1.110  -0.949  26.202  0.00  0.00    +0.123 HD
ENDROOT
BRANCH  31   8
ATOM      8  N   UNL     1       5.637  -0.241  22.967  0.00  0.00    -0.327 N 
ATOM      9  N   UNL     1       8.339  -1.137  22.745  0.00  0.00    -0.313 NA
ATOM     32  C   UNL     1       6.710   0.477  23.667  0.00  0.00    +0.120 C 
ATOM     33  C   UNL     1       5.922  -1.641  22.631  0.00  0.00    +0.120 C 
ATOM     35  C   UNL     1       8.044   0.280  22.946  0.00  0.00    +0.100 C 
ATOM     36  C   UNL     1       7.284  -1.762  21.949  0.00  0.00    +0.100 C 
ATOM     40  H   UNL     1       9.228  -1.230  22.257  0.00  0.00    +0.122 HD
ENDBRANCH  31   8
BRANCH  10  13
ATOM     13  C   UNL     1      -5.079   0.756  23.358  0.00  0.00    +0.100 C 
BRANCH  13  19
ATOM      1  O   UNL     1      -4.535   3.069  23.493  0.00  0.00    -0.276 OA
ATOM      5  N   UNL     1      -5.554   2.115  25.339  0.00  0.00    -0.296 N 
ATOM     16  C   UNL     1      -5.494   3.302  26.195  0.00  0.00    +0.102 C 
ATOM     17  C   UNL     1      -5.774   2.755  27.596  0.00  0.00    +0.026 C 
ATOM     18  C   UNL     1      -6.142   0.981  26.047  0.00  0.00    +0.108 C 
ATOM     19  C   UNL     1      -5.025   2.090  24.059  0.00  0.00    +0.216 C 
ATOM     20  C   UNL     1      -6.698   1.571  27.333  0.00  0.00    +0.021 C 
BRANCH  16  22
ATOM     22  C   UNL     1      -6.520   4.350  25.768  0.00  0.00    +0.181 C 
BRANCH  22   2
ATOM      2  O   UNL     1      -5.828   5.477  25.265  0.00  0.00    -0.381 OA
ATOM     29  C   UNL     1      -4.417   5.316  25.360  0.00  0.00    +0.194 C 
ENDBRANCH  22   2
ENDBRANCH  16  22
ENDBRANCH  13  19
ENDBRANCH  10  13
TORSDOF 5
ENDMDL
