MODEL 1
REMARK VINA RESULT:      12.8      0.000      0.000
REMARK  Name = 11913101
REMARK  7 active torsions:
REMARK  status: ('A' for Active; 'I' for Inactive)
REMARK    1  A    between atoms: O_3  and  C_15
REMARK    2  A    between atoms: O_3  and  C_19
REMARK    3  A    between atoms: O_7  and  C_34
REMARK    4  A    between atoms: O_7  and  C_36
REMARK    5  A    between atoms: N_8  and  C_14
REMARK    6  A    between atoms: N_11  and  C_23
REMARK    7  A    between atoms: C_20  and  C_24
REMARK                            x       y       z     vdW  Elec       q    Type
REMARK                         _______ _______ _______ _____ _____    ______ ____
ROOT
ATOM      1  O   UNL     1      -2.784   0.247  25.106  0.00  0.00    -0.368 OA
ATOM      2  O   UNL     1      -4.554  -1.607  23.421  0.00  0.00    -0.368 OA
ATOM     12  C   UNL     1      -4.866  -0.431  24.196  0.00  0.00    +0.173 C 
ATOM     13  C   UNL     1      -3.985  -0.472  25.429  0.00  0.00    +0.192 C 
ATOM     14  C   UNL     1      -4.410   0.808  23.463  0.00  0.00    +0.130 C 
ATOM     15  C   UNL     1      -3.725  -1.949  25.597  0.00  0.00    +0.235 C 
ATOM     16  C   UNL     1      -2.937   0.875  23.823  0.00  0.00    +0.185 C 
ATOM     17  C   UNL     1      -3.634  -2.422  24.163  0.00  0.00    +0.207 C 
ENDROOT
BRANCH  14   8
ATOM      8  N   UNL     1      -5.105   1.974  23.966  0.00  0.00    -0.306 N 
ATOM      9  N   UNL     1      -3.298   2.601  25.283  0.00  0.00    -0.214 NA
ATOM     10  N   UNL     1      -5.325   3.902  25.242  0.00  0.00    -0.223 NA
ATOM     18  C   UNL     1      -4.552   2.865  24.869  0.00  0.00    +0.216 A 
ATOM     20  C   UNL     1      -2.790   3.488  26.164  0.00  0.00    +0.076 A 
ATOM     21  C   UNL     1      -4.755   4.750  26.123  0.00  0.00    +0.116 A 
ATOM     22  C   UNL     1      -3.479   4.592  26.623  0.00  0.00    +0.048 A 
ATOM     42  H   UNL     1      -6.028   2.194  23.611  0.00  0.00    +0.149 HD
BRANCH  20  24
ATOM      5  O   UNL     1       0.569   2.670  29.628  0.00  0.00    -0.453 OA
ATOM      6  O   UNL     1       2.334   2.423  28.005  0.00  0.00    -0.453 OA
ATOM     24  C   UNL     1      -1.446   3.210  26.608  0.00  0.00    +0.004 A 
ATOM     27  C   UNL     1      -1.178   3.086  27.974  0.00  0.00    +0.059 A 
ATOM     28  C   UNL     1      -0.415   3.066  25.662  0.00  0.00    +0.014 A 
ATOM     29  C   UNL     1       0.123   2.821  28.350  0.00  0.00    +0.167 A 
ATOM     30  C   UNL     1       0.893   2.796  26.070  0.00  0.00    +0.050 A 
ATOM     31  C   UNL     1       1.130   2.680  27.425  0.00  0.00    +0.166 A 
ATOM     35  C   UNL     1       1.971   2.417  29.401  0.00  0.00    +0.466 C 
ENDBRANCH  20  24
ENDBRANCH  14   8
BRANCH  15   3
ATOM      3  O   UNL     1      -2.552  -2.235  26.324  0.00  0.00    -0.442 OA
BRANCH   3  19
ATOM      4  O   UNL     1      -1.007  -0.649  26.897  0.00  0.00    -0.226 OA
ATOM     11  N   UNL     1      -0.981  -1.689  24.800  0.00  0.00    -0.251 N 
ATOM     19  C   UNL     1      -1.453  -1.439  26.074  0.00  0.00    +0.405 C 
ATOM     43  H   UNL     1      -1.487  -2.388  24.262  0.00  0.00    +0.158 HD
BRANCH  11  23
ATOM     23  C   UNL     1       0.123  -1.093  24.149  0.00  0.00    +0.037 A 
ATOM     25  C   UNL     1       1.366  -1.726  24.161  0.00  0.00    +0.027 A 
ATOM     26  C   UNL     1      -0.030   0.130  23.495  0.00  0.00    +0.027 A 
ATOM     32  C   UNL     1       2.455  -1.137  23.521  0.00  0.00    +0.048 A 
ATOM     33  C   UNL     1       1.060   0.720  22.855  0.00  0.00    +0.048 A 
ATOM     34  C   UNL     1       2.302   0.086  22.868  0.00  0.00    +0.129 A 
BRANCH  34   7
ATOM      7  O   UNL     1       3.366   0.662  22.244  0.00  0.00    -0.456 OA
BRANCH   7  36
ATOM     36  C   UNL     1       4.628   0.411  22.759  0.00  0.00    +0.128 A 
ATOM     37  C   UNL     1       5.520  -0.398  22.054  0.00  0.00    +0.046 A 
ATOM     38  C   UNL     1       5.005   0.966  23.981  0.00  0.00    +0.046 A 
ATOM     39  C   UNL     1       6.790  -0.651  22.574  0.00  0.00    +0.004 A 
ATOM     40  C   UNL     1       6.274   0.712  24.500  0.00  0.00    +0.004 A 
ATOM     41  C   UNL     1       7.167  -0.096  23.796  0.00  0.00    +0.000 A 
ENDBRANCH   7  36
ENDBRANCH  34   7
ENDBRANCH  11  23
ENDBRANCH   3  19
ENDBRANCH  15   3
TORSDOF 7
ENDMDL
MODEL 2
REMARK VINA RESULT:      12.9      2.381      4.827
REMARK  Name = 11913101
REMARK  7 active torsions:
REMARK  status: ('A' for Active; 'I' for Inactive)
REMARK    1  A    between atoms: O_3  and  C_15
REMARK    2  A    between atoms: O_3  and  C_19
REMARK    3  A    between atoms: O_7  and  C_34
REMARK    4  A    between atoms: O_7  and  C_36
REMARK    5  A    between atoms: N_8  and  C_14
REMARK    6  A    between atoms: N_11  and  C_23
REMARK    7  A    between atoms: C_20  and  C_24
REMARK                            x       y       z     vdW  Elec       q    Type
REMARK                         _______ _______ _______ _____ _____    ______ ____
ROOT
ATOM      1  O   UNL     1      -2.751   4.290  24.098  0.00  0.00    -0.368 OA
ATOM      2  O   UNL     1      -5.094   3.198  25.750  0.00  0.00    -0.368 OA
ATOM     12  C   UNL     1      -3.668   3.136  25.956  0.00  0.00    +0.173 C 
ATOM     13  C   UNL     1      -3.034   2.970  24.589  0.00  0.00    +0.192 C 
ATOM     14  C   UNL     1      -3.156   4.475  26.435  0.00  0.00    +0.130 C 
ATOM     15  C   UNL     1      -4.132   2.303  23.797  0.00  0.00    +0.235 C 
ATOM     16  C   UNL     1      -3.006   5.248  25.138  0.00  0.00    +0.185 C 
ATOM     17  C   UNL     1      -5.374   2.955  24.363  0.00  0.00    +0.207 C 
ENDROOT
BRANCH  14   8
ATOM      8  N   UNL     1      -1.869   4.318  27.079  0.00  0.00    -0.306 N 
ATOM      9  N   UNL     1      -1.698   2.100  26.413  0.00  0.00    -0.214 NA
ATOM     10  N   UNL     1       0.038   3.152  27.711  0.00  0.00    -0.223 NA
ATOM     18  C   UNL     1      -1.145   3.139  27.067  0.00  0.00    +0.216 A 
ATOM     20  C   UNL     1      -0.966   0.967  26.421  0.00  0.00    +0.076 A 
ATOM     21  C   UNL     1       0.717   1.987  27.680  0.00  0.00    +0.116 A 
ATOM     22  C   UNL     1       0.260   0.851  27.044  0.00  0.00    +0.048 A 
ATOM     42  H   UNL     1      -1.436   5.118  27.525  0.00  0.00    +0.149 HD
BRANCH  20  24
ATOM      5  O   UNL     1      -4.713  -1.346  24.286  0.00  0.00    -0.453 OA
ATOM      6  O   UNL     1      -3.351  -3.255  23.727  0.00  0.00    -0.453 OA
ATOM     24  C   UNL     1      -1.554  -0.148  25.720  0.00  0.00    +0.004 A 
ATOM     27  C   UNL     1      -2.907  -0.114  25.371  0.00  0.00    +0.059 A 
ATOM     28  C   UNL     1      -0.760  -1.263  25.393  0.00  0.00    +0.014 A 
ATOM     29  C   UNL     1      -3.424  -1.203  24.702  0.00  0.00    +0.167 A 
ATOM     30  C   UNL     1      -1.310  -2.353  24.715  0.00  0.00    +0.050 A 
ATOM     31  C   UNL     1      -2.648  -2.293  24.383  0.00  0.00    +0.166 A 
ATOM     35  C   UNL     1      -4.659  -2.649  23.668  0.00  0.00    +0.466 C 
ENDBRANCH  20  24
ENDBRANCH  14   8
BRANCH  15   3
ATOM      3  O   UNL     1      -4.020   2.495  22.406  0.00  0.00    -0.442 OA
BRANCH   3  19
ATOM      4  O   UNL     1      -2.591   2.297  20.632  0.00  0.00    -0.226 OA
ATOM     11  N   UNL     1      -2.051   1.449  22.746  0.00  0.00    -0.251 N 
ATOM     19  C   UNL     1      -2.842   2.090  21.813  0.00  0.00    +0.405 C 
ATOM     43  H   UNL     1      -2.434   1.375  23.685  0.00  0.00    +0.158 HD
BRANCH  11  23
ATOM     23  C   UNL     1      -0.769   0.883  22.558  0.00  0.00    +0.037 A 
ATOM     25  C   UNL     1      -0.570  -0.082  21.570  0.00  0.00    +0.027 A 
ATOM     26  C   UNL     1       0.297   1.289  23.362  0.00  0.00    +0.027 A 
ATOM     32  C   UNL     1       0.695  -0.641  21.387  0.00  0.00    +0.048 A 
ATOM     33  C   UNL     1       1.561   0.728  23.179  0.00  0.00    +0.048 A 
ATOM     34  C   UNL     1       1.759  -0.236  22.191  0.00  0.00    +0.129 A 
BRANCH  34   7
ATOM      7  O   UNL     1       2.993  -0.784  22.013  0.00  0.00    -0.456 OA
BRANCH   7  36
ATOM     36  C   UNL     1       4.003  -0.392  22.876  0.00  0.00    +0.128 A 
ATOM     37  C   UNL     1       4.561  -1.314  23.761  0.00  0.00    +0.046 A 
ATOM     38  C   UNL     1       4.460   0.926  22.860  0.00  0.00    +0.046 A 
ATOM     39  C   UNL     1       5.577  -0.918  24.631  0.00  0.00    +0.004 A 
ATOM     40  C   UNL     1       5.476   1.322  23.730  0.00  0.00    +0.004 A 
ATOM     41  C   UNL     1       6.035   0.399  24.615  0.00  0.00    +0.000 A 
ENDBRANCH   7  36
ENDBRANCH  34   7
ENDBRANCH  11  23
ENDBRANCH   3  19
ENDBRANCH  15   3
TORSDOF 7
ENDMDL
MODEL 3
REMARK VINA RESULT:      13.4      2.189      4.748
REMARK  Name = 11913101
REMARK  7 active torsions:
REMARK  status: ('A' for Active; 'I' for Inactive)
REMARK    1  A    between atoms: O_3  and  C_15
REMARK    2  A    between atoms: O_3  and  C_19
REMARK    3  A    between atoms: O_7  and  C_34
REMARK    4  A    between atoms: O_7  and  C_36
REMARK    5  A    between atoms: N_8  and  C_14
REMARK    6  A    between atoms: N_11  and  C_23
REMARK    7  A    between atoms: C_20  and  C_24
REMARK                            x       y       z     vdW  Elec       q    Type
REMARK                         _______ _______ _______ _____ _____    ______ ____
ROOT
ATOM      1  O   UNL     1      -1.896   2.318  25.339  0.00  0.00    -0.368 OA
ATOM      2  O   UNL     1      -0.668   4.978  24.431  0.00  0.00    -0.368 OA
ATOM     12  C   UNL     1      -2.040   4.549  24.548  0.00  0.00    +0.173 C 
ATOM     13  C   UNL     1      -2.079   3.090  24.141  0.00  0.00    +0.192 C 
ATOM     14  C   UNL     1      -2.455   4.534  26.001  0.00  0.00    +0.130 C 
ATOM     15  C   UNL     1      -0.892   2.975  23.216  0.00  0.00    +0.235 C 
ATOM     16  C   UNL     1      -1.922   3.195  26.477  0.00  0.00    +0.185 C 
ATOM     17  C   UNL     1       0.106   3.912  23.860  0.00  0.00    +0.207 C 
ENDROOT
BRANCH  14   8
ATOM      8  N   UNL     1      -3.898   4.568  26.110  0.00  0.00    -0.306 N 
ATOM      9  N   UNL     1      -4.092   2.330  25.525  0.00  0.00    -0.214 NA
ATOM     10  N   UNL     1      -6.036   3.665  26.020  0.00  0.00    -0.223 NA
ATOM     18  C   UNL     1      -4.711   3.473  25.875  0.00  0.00    +0.216 A 
ATOM     20  C   UNL     1      -4.914   1.283  25.302  0.00  0.00    +0.076 A 
ATOM     21  C   UNL     1      -6.798   2.577  25.783  0.00  0.00    +0.116 A 
ATOM     22  C   UNL     1      -6.288   1.349  25.418  0.00  0.00    +0.048 A 
ATOM     42  H   UNL     1      -4.353   5.418  26.425  0.00  0.00    +0.149 HD
BRANCH  20  24
ATOM      5  O   UNL     1      -1.080  -1.758  25.244  0.00  0.00    -0.453 OA
ATOM      6  O   UNL     1      -2.265  -3.394  23.929  0.00  0.00    -0.453 OA
ATOM     24  C   UNL     1      -4.255   0.055  24.928  0.00  0.00    +0.004 A 
ATOM     27  C   UNL     1      -2.936  -0.176  25.330  0.00  0.00    +0.059 A 
ATOM     28  C   UNL     1      -4.946  -0.900  24.161  0.00  0.00    +0.014 A 
ATOM     29  C   UNL     1      -2.349  -1.364  24.948  0.00  0.00    +0.167 A 
ATOM     30  C   UNL     1      -4.327  -2.095  23.787  0.00  0.00    +0.050 A 
ATOM     31  C   UNL     1      -3.024  -2.298  24.197  0.00  0.00    +0.166 A 
ATOM     35  C   UNL     1      -1.034  -3.046  24.595  0.00  0.00    +0.466 C 
ENDBRANCH  20  24
ENDBRANCH  14   8
BRANCH  15   3
ATOM      3  O   UNL     1      -0.390   1.663  23.103  0.00  0.00    -0.442 OA
BRANCH   3  19
ATOM      4  O   UNL     1       1.075   1.777  24.856  0.00  0.00    -0.226 OA
ATOM     11  N   UNL     1       1.627   0.683  22.861  0.00  0.00    -0.251 N 
ATOM     19  C   UNL     1       0.818   1.402  23.718  0.00  0.00    +0.405 C 
ATOM     43  H   UNL     1       1.234   0.462  21.950  0.00  0.00    +0.158 HD
BRANCH  11  23
ATOM     23  C   UNL     1       2.939   0.211  23.095  0.00  0.00    +0.037 A 
ATOM     25  C   UNL     1       3.140  -1.068  23.612  0.00  0.00    +0.027 A 
ATOM     26  C   UNL     1       4.035   1.028  22.810  0.00  0.00    +0.027 A 
ATOM     32  C   UNL     1       4.434  -1.532  23.845  0.00  0.00    +0.048 A 
ATOM     33  C   UNL     1       5.329   0.564  23.043  0.00  0.00    +0.048 A 
ATOM     34  C   UNL     1       5.529  -0.716  23.560  0.00  0.00    +0.129 A 
BRANCH  34   7
ATOM      7  O   UNL     1       6.792  -1.168  23.789  0.00  0.00    -0.456 OA
BRANCH   7  36
ATOM     36  C   UNL     1       7.841  -0.292  23.564  0.00  0.00    +0.128 A 
ATOM     37  C   UNL     1       8.921  -0.685  22.775  0.00  0.00    +0.046 A 
ATOM     38  C   UNL     1       7.816   0.983  24.128  0.00  0.00    +0.046 A 
ATOM     39  C   UNL     1       9.978   0.197  22.550  0.00  0.00    +0.004 A 
ATOM     40  C   UNL     1       8.873   1.866  23.903  0.00  0.00    +0.004 A 
ATOM     41  C   UNL     1       9.954   1.472  23.114  0.00  0.00    +0.000 A 
ENDBRANCH   7  36
ENDBRANCH  34   7
ENDBRANCH  11  23
ENDBRANCH   3  19
ENDBRANCH  15   3
TORSDOF 7
ENDMDL
MODEL 4
REMARK VINA RESULT:      13.7      1.928      5.871
REMARK  Name = 11913101
REMARK  7 active torsions:
REMARK  status: ('A' for Active; 'I' for Inactive)
REMARK    1  A    between atoms: O_3  and  C_15
REMARK    2  A    between atoms: O_3  and  C_19
REMARK    3  A    between atoms: O_7  and  C_34
REMARK    4  A    between atoms: O_7  and  C_36
REMARK    5  A    between atoms: N_8  and  C_14
REMARK    6  A    between atoms: N_11  and  C_23
REMARK    7  A    between atoms: C_20  and  C_24
REMARK                            x       y       z     vdW  Elec       q    Type
REMARK                         _______ _______ _______ _____ _____    ______ ____
ROOT
ATOM      1  O   UNL     1      -3.546   1.278  24.327  0.00  0.00    -0.368 OA
ATOM      2  O   UNL     1      -6.024   1.836  26.046  0.00  0.00    -0.368 OA
ATOM     12  C   UNL     1      -5.637   0.681  25.273  0.00  0.00    +0.173 C 
ATOM     13  C   UNL     1      -4.948   1.199  24.027  0.00  0.00    +0.192 C 
ATOM     14  C   UNL     1      -4.554  -0.085  25.996  0.00  0.00    +0.130 C 
ATOM     15  C   UNL     1      -5.562   2.568  23.857  0.00  0.00    +0.235 C 
ATOM     16  C   UNL     1      -3.301   0.681  25.611  0.00  0.00    +0.185 C 
ATOM     17  C   UNL     1      -5.729   3.021  25.291  0.00  0.00    +0.207 C 
ENDROOT
BRANCH  14   8
ATOM      8  N   UNL     1      -4.485  -1.444  25.502  0.00  0.00    -0.306 N 
ATOM      9  N   UNL     1      -2.359  -1.119  24.626  0.00  0.00    -0.214 NA
ATOM     10  N   UNL     1      -3.481  -3.241  24.427  0.00  0.00    -0.223 NA
ATOM     18  C   UNL     1      -3.394  -1.957  24.822  0.00  0.00    +0.216 A 
ATOM     20  C   UNL     1      -1.313  -1.651  23.960  0.00  0.00    +0.076 A 
ATOM     21  C   UNL     1      -2.402  -3.709  23.767  0.00  0.00    +0.116 A 
ATOM     22  C   UNL     1      -1.278  -2.953  23.503  0.00  0.00    +0.048 A 
ATOM     42  H   UNL     1      -5.246  -2.083  25.698  0.00  0.00    +0.149 HD
BRANCH  20  24
ATOM      5  O   UNL     1       3.360  -0.698  22.866  0.00  0.00    -0.453 OA
ATOM      6  O   UNL     1       3.045   1.678  23.125  0.00  0.00    -0.453 OA
ATOM     24  C   UNL     1      -0.201  -0.757  23.750  0.00  0.00    +0.004 A 
ATOM     27  C   UNL     1       1.049  -1.274  23.398  0.00  0.00    +0.059 A 
ATOM     28  C   UNL     1      -0.384   0.630  23.901  0.00  0.00    +0.014 A 
ATOM     29  C   UNL     1       2.082  -0.379  23.208  0.00  0.00    +0.167 A 
ATOM     30  C   UNL     1       0.679   1.513  23.702  0.00  0.00    +0.050 A 
ATOM     31  C   UNL     1       1.903   0.976  23.356  0.00  0.00    +0.166 A 
ATOM     35  C   UNL     1       3.965   0.611  22.814  0.00  0.00    +0.466 C 
ENDBRANCH  20  24
ENDBRANCH  14   8
BRANCH  15   3
ATOM      3  O   UNL     1      -4.761   3.456  23.112  0.00  0.00    -0.442 OA
BRANCH   3  19
ATOM      4  O   UNL     1      -2.602   3.191  22.404  0.00  0.00    -0.226 OA
ATOM     11  N   UNL     1      -3.120   3.572  24.655  0.00  0.00    -0.251 N 
ATOM     19  C   UNL     1      -3.398   3.388  23.315  0.00  0.00    +0.405 C 
ATOM     43  H   UNL     1      -3.920   3.725  25.263  0.00  0.00    +0.158 HD
BRANCH  11  23
ATOM     23  C   UNL     1      -1.856   3.578  25.288  0.00  0.00    +0.037 A 
ATOM     25  C   UNL     1      -1.571   2.647  26.287  0.00  0.00    +0.027 A 
ATOM     26  C   UNL     1      -0.893   4.517  24.915  0.00  0.00    +0.027 A 
ATOM     32  C   UNL     1      -0.325   2.655  26.913  0.00  0.00    +0.048 A 
ATOM     33  C   UNL     1       0.353   4.525  25.542  0.00  0.00    +0.048 A 
ATOM     34  C   UNL     1       0.636   3.594  26.541  0.00  0.00    +0.129 A 
BRANCH  34   7
ATOM      7  O   UNL     1       1.852   3.602  27.153  0.00  0.00    -0.456 OA
BRANCH   7  36
ATOM     36  C   UNL     1       1.955   2.985  28.389  0.00  0.00    +0.128 A 
ATOM     37  C   UNL     1       3.132   2.327  28.745  0.00  0.00    +0.046 A 
ATOM     38  C   UNL     1       0.880   3.021  29.277  0.00  0.00    +0.046 A 
ATOM     39  C   UNL     1       3.235   1.705  29.989  0.00  0.00    +0.004 A 
ATOM     40  C   UNL     1       0.983   2.398  30.521  0.00  0.00    +0.004 A 
ATOM     41  C   UNL     1       2.161   1.740  30.877  0.00  0.00    +0.000 A 
ENDBRANCH   7  36
ENDBRANCH  34   7
ENDBRANCH  11  23
ENDBRANCH   3  19
ENDBRANCH  15   3
TORSDOF 7
ENDMDL
MODEL 5
REMARK VINA RESULT:      14.2      2.113      3.969
REMARK  Name = 11913101
REMARK  7 active torsions:
REMARK  status: ('A' for Active; 'I' for Inactive)
REMARK    1  A    between atoms: O_3  and  C_15
REMARK    2  A    between atoms: O_3  and  C_19
REMARK    3  A    between atoms: O_7  and  C_34
REMARK    4  A    between atoms: O_7  and  C_36
REMARK    5  A    between atoms: N_8  and  C_14
REMARK    6  A    between atoms: N_11  and  C_23
REMARK    7  A    between atoms: C_20  and  C_24
REMARK                            x       y       z     vdW  Elec       q    Type
REMARK                         _______ _______ _______ _____ _____    ______ ____
ROOT
ATOM      1  O   UNL     1      -3.860   2.229  25.775  0.00  0.00    -0.368 OA
ATOM      2  O   UNL     1      -6.404   3.606  24.754  0.00  0.00    -0.368 OA
ATOM     12  C   UNL     1      -5.680   2.456  24.271  0.00  0.00    +0.173 C 
ATOM     13  C   UNL     1      -4.207   2.747  24.480  0.00  0.00    +0.192 C 
ATOM     14  C   UNL     1      -5.946   1.265  25.162  0.00  0.00    +0.130 C 
ATOM     15  C   UNL     1      -4.162   4.255  24.451  0.00  0.00    +0.235 C 
ATOM     16  C   UNL     1      -4.972   1.488  26.303  0.00  0.00    +0.185 C 
ATOM     17  C   UNL     1      -5.464   4.625  25.126  0.00  0.00    +0.207 C 
ENDROOT
BRANCH  14   8
ATOM      8  N   UNL     1      -5.632   0.037  24.463  0.00  0.00    -0.306 N 
ATOM      9  N   UNL     1      -3.526  -0.088  25.434  0.00  0.00    -0.214 NA
ATOM     10  N   UNL     1      -4.289  -1.767  23.884  0.00  0.00    -0.223 NA
ATOM     18  C   UNL     1      -4.430  -0.636  24.600  0.00  0.00    +0.216 A 
ATOM     20  C   UNL     1      -2.365  -0.768  25.542  0.00  0.00    +0.076 A 
ATOM     21  C   UNL     1      -3.106  -2.396  24.040  0.00  0.00    +0.116 A 
ATOM     22  C   UNL     1      -2.097  -1.939  24.863  0.00  0.00    +0.048 A 
ATOM     42  H   UNL     1      -6.336  -0.397  23.878  0.00  0.00    +0.149 HD
BRANCH  20  24
ATOM      5  O   UNL     1       0.557   2.866  27.025  0.00  0.00    -0.453 OA
ATOM      6  O   UNL     1       1.369   1.589  28.901  0.00  0.00    -0.453 OA
ATOM     24  C   UNL     1      -1.394  -0.185  26.436  0.00  0.00    +0.004 A 
ATOM     27  C   UNL     1      -0.932   1.114  26.208  0.00  0.00    +0.059 A 
ATOM     28  C   UNL     1      -0.921  -0.930  27.531  0.00  0.00    +0.014 A 
ATOM     29  C   UNL     1      -0.004   1.628  27.089  0.00  0.00    +0.167 A 
ATOM     30  C   UNL     1       0.020  -0.386  28.408  0.00  0.00    +0.050 A 
ATOM     31  C   UNL     1       0.460   0.899  28.160  0.00  0.00    +0.166 A 
ATOM     35  C   UNL     1       1.426   2.835  28.177  0.00  0.00    +0.466 C 
ENDBRANCH  20  24
ENDBRANCH  14   8
BRANCH  15   3
ATOM      3  O   UNL     1      -3.046   4.799  25.117  0.00  0.00    -0.442 OA
BRANCH   3  19
ATOM      4  O   UNL     1      -0.767   4.914  24.971  0.00  0.00    -0.226 OA
ATOM     11  N   UNL     1      -1.957   3.052  24.196  0.00  0.00    -0.251 N 
ATOM     19  C   UNL     1      -1.808   4.299  24.771  0.00  0.00    +0.405 C 
ATOM     43  H   UNL     1      -2.909   2.704  24.117  0.00  0.00    +0.158 HD
BRANCH  11  23
ATOM     23  C   UNL     1      -0.946   2.196  23.703  0.00  0.00    +0.037 A 
ATOM     25  C   UNL     1       0.396   2.482  23.953  0.00  0.00    +0.027 A 
ATOM     26  C   UNL     1      -1.292   1.064  22.963  0.00  0.00    +0.027 A 
ATOM     32  C   UNL     1       1.392   1.637  23.465  0.00  0.00    +0.048 A 
ATOM     33  C   UNL     1      -0.294   0.220  22.474  0.00  0.00    +0.048 A 
ATOM     34  C   UNL     1       1.047   0.507  22.725  0.00  0.00    +0.129 A 
BRANCH  34   7
ATOM      7  O   UNL     1       2.020  -0.316  22.247  0.00  0.00    -0.456 OA
BRANCH   7  36
ATOM     36  C   UNL     1       3.262  -0.270  22.860  0.00  0.00    +0.128 A 
ATOM     37  C   UNL     1       4.042   0.883  22.767  0.00  0.00    +0.046 A 
ATOM     38  C   UNL     1       3.731  -1.376  23.568  0.00  0.00    +0.046 A 
ATOM     39  C   UNL     1       5.293   0.928  23.382  0.00  0.00    +0.004 A 
ATOM     40  C   UNL     1       4.982  -1.330  24.183  0.00  0.00    +0.004 A 
ATOM     41  C   UNL     1       5.763  -0.177  24.090  0.00  0.00    +0.000 A 
ENDBRANCH   7  36
ENDBRANCH  34   7
ENDBRANCH  11  23
ENDBRANCH   3  19
ENDBRANCH  15   3
TORSDOF 7
ENDMDL
MODEL 6
REMARK VINA RESULT:      15.0      5.210      8.940
REMARK  Name = 11913101
REMARK  7 active torsions:
REMARK  status: ('A' for Active; 'I' for Inactive)
REMARK    1  A    between atoms: O_3  and  C_15
REMARK    2  A    between atoms: O_3  and  C_19
REMARK    3  A    between atoms: O_7  and  C_34
REMARK    4  A    between atoms: O_7  and  C_36
REMARK    5  A    between atoms: N_8  and  C_14
REMARK    6  A    between atoms: N_11  and  C_23
REMARK    7  A    between atoms: C_20  and  C_24
REMARK                            x       y       z     vdW  Elec       q    Type
REMARK                         _______ _______ _______ _____ _____    ______ ____
ROOT
ATOM      1  O   UNL     1       4.700   0.455  21.813  0.00  0.00    -0.368 OA
ATOM      2  O   UNL     1       4.223  -1.511  24.119  0.00  0.00    -0.368 OA
ATOM     12  C   UNL     1       4.072  -0.079  24.036  0.00  0.00    +0.173 C 
ATOM     13  C   UNL     1       5.198   0.431  23.160  0.00  0.00    +0.192 C 
ATOM     14  C   UNL     1       2.822   0.265  23.260  0.00  0.00    +0.130 C 
ATOM     15  C   UNL     1       6.261  -0.625  23.345  0.00  0.00    +0.235 C 
ATOM     16  C   UNL     1       3.294   0.161  21.822  0.00  0.00    +0.185 C 
ATOM     17  C   UNL     1       5.438  -1.889  23.455  0.00  0.00    +0.207 C 
ENDROOT
BRANCH  14   8
ATOM      8  N   UNL     1       2.405   1.620  23.556  0.00  0.00    -0.306 N 
ATOM      9  N   UNL     1       0.194   0.975  23.855  0.00  0.00    -0.214 NA
ATOM     10  N   UNL     1       0.870   3.274  24.107  0.00  0.00    -0.223 NA
ATOM     18  C   UNL     1       1.100   1.972  23.852  0.00  0.00    +0.216 A 
ATOM     20  C   UNL     1      -1.068   1.353  24.147  0.00  0.00    +0.076 A 
ATOM     21  C   UNL     1      -0.412   3.582  24.391  0.00  0.00    +0.116 A 
ATOM     22  C   UNL     1      -1.433   2.655  24.427  0.00  0.00    +0.048 A 
ATOM     42  H   UNL     1       3.100   2.355  23.603  0.00  0.00    +0.149 HD
BRANCH  20  24
ATOM      5  O   UNL     1      -2.362  -3.362  24.356  0.00  0.00    -0.453 OA
ATOM      6  O   UNL     1      -4.707  -2.834  24.178  0.00  0.00    -0.453 OA
ATOM     24  C   UNL     1      -2.041   0.288  24.153  0.00  0.00    +0.004 A 
ATOM     27  C   UNL     1      -1.618  -1.039  24.261  0.00  0.00    +0.059 A 
ATOM     28  C   UNL     1      -3.410   0.596  24.049  0.00  0.00    +0.014 A 
ATOM     29  C   UNL     1      -2.585  -2.022  24.261  0.00  0.00    +0.167 A 
ATOM     30  C   UNL     1      -4.369  -0.420  24.052  0.00  0.00    +0.050 A 
ATOM     31  C   UNL     1      -3.924  -1.722  24.159  0.00  0.00    +0.166 A 
ATOM     35  C   UNL     1      -3.711  -3.870  24.303  0.00  0.00    +0.466 C 
ENDBRANCH  20  24
ENDBRANCH  14   8
BRANCH  15   3
ATOM      3  O   UNL     1       7.186  -0.686  22.284  0.00  0.00    -0.442 OA
BRANCH   3  19
ATOM      4  O   UNL     1       9.017  -0.109  23.526  0.00  0.00    -0.226 OA
ATOM     11  N   UNL     1       9.149  -1.686  21.802  0.00  0.00    -0.251 N 
ATOM     19  C   UNL     1       8.520  -0.770  22.622  0.00  0.00    +0.405 C 
ATOM     43  H   UNL     1       8.565  -2.140  21.104  0.00  0.00    +0.158 HD
BRANCH  11  23
ATOM     23  C   UNL     1      10.509  -2.073  21.811  0.00  0.00    +0.037 A 
ATOM     25  C   UNL     1      11.499  -1.138  22.110  0.00  0.00    +0.027 A 
ATOM     26  C   UNL     1      10.860  -3.392  21.520  0.00  0.00    +0.027 A 
ATOM     32  C   UNL     1      12.840  -1.520  22.117  0.00  0.00    +0.048 A 
ATOM     33  C   UNL     1      12.201  -3.774  21.527  0.00  0.00    +0.048 A 
ATOM     34  C   UNL     1      13.191  -2.838  21.825  0.00  0.00    +0.129 A 
BRANCH  34   7
ATOM      7  O   UNL     1      14.500  -3.210  21.831  0.00  0.00    -0.456 OA
BRANCH   7  36
ATOM     36  C   UNL     1      15.340  -2.601  22.749  0.00  0.00    +0.128 A 
ATOM     37  C   UNL     1      15.390  -3.065  24.063  0.00  0.00    +0.046 A 
ATOM     38  C   UNL     1      16.133  -1.523  22.359  0.00  0.00    +0.046 A 
ATOM     39  C   UNL     1      16.234  -2.450  24.988  0.00  0.00    +0.004 A 
ATOM     40  C   UNL     1      16.978  -0.908  23.283  0.00  0.00    +0.004 A 
ATOM     41  C   UNL     1      17.028  -1.372  24.598  0.00  0.00    +0.000 A 
ENDBRANCH   7  36
ENDBRANCH  34   7
ENDBRANCH  11  23
ENDBRANCH   3  19
ENDBRANCH  15   3
TORSDOF 7
ENDMDL
MODEL 7
REMARK VINA RESULT:      16.6      2.443      4.959
REMARK  Name = 11913101
REMARK  7 active torsions:
REMARK  status: ('A' for Active; 'I' for Inactive)
REMARK    1  A    between atoms: O_3  and  C_15
REMARK    2  A    between atoms: O_3  and  C_19
REMARK    3  A    between atoms: O_7  and  C_34
REMARK    4  A    between atoms: O_7  and  C_36
REMARK    5  A    between atoms: N_8  and  C_14
REMARK    6  A    between atoms: N_11  and  C_23
REMARK    7  A    between atoms: C_20  and  C_24
REMARK                            x       y       z     vdW  Elec       q    Type
REMARK                         _______ _______ _______ _____ _____    ______ ____
ROOT
ATOM      1  O   UNL     1      -3.044   3.537  24.693  0.00  0.00    -0.368 OA
ATOM      2  O   UNL     1      -3.625   5.559  26.925  0.00  0.00    -0.368 OA
ATOM     12  C   UNL     1      -4.489   4.929  25.958  0.00  0.00    +0.173 C 
ATOM     13  C   UNL     1      -3.697   4.816  24.670  0.00  0.00    +0.192 C 
ATOM     14  C   UNL     1      -4.748   3.494  26.353  0.00  0.00    +0.130 C 
ATOM     15  C   UNL     1      -2.709   5.951  24.793  0.00  0.00    +0.235 C 
ATOM     16  C   UNL     1      -3.517   2.783  25.821  0.00  0.00    +0.185 C 
ATOM     17  C   UNL     1      -2.406   5.950  26.275  0.00  0.00    +0.207 C 
ENDROOT
BRANCH  14   8
ATOM      8  N   UNL     1      -5.938   2.999  25.694  0.00  0.00    -0.306 N 
ATOM      9  N   UNL     1      -4.921   0.980  25.162  0.00  0.00    -0.214 NA
ATOM     10  N   UNL     1      -7.201   1.435  24.532  0.00  0.00    -0.223 NA
ATOM     18  C   UNL     1      -6.024   1.750  25.104  0.00  0.00    +0.216 A 
ATOM     20  C   UNL     1      -5.039  -0.229  24.576  0.00  0.00    +0.076 A 
ATOM     21  C   UNL     1      -7.250   0.211  23.966  0.00  0.00    +0.116 A 
ATOM     22  C   UNL     1      -6.191  -0.672  23.958  0.00  0.00    +0.048 A 
ATOM     42  H   UNL     1      -6.780   3.563  25.700  0.00  0.00    +0.149 HD
BRANCH  20  24
ATOM      5  O   UNL     1      -0.464  -1.190  26.022  0.00  0.00    -0.453 OA
ATOM      6  O   UNL     1      -0.441  -3.318  24.889  0.00  0.00    -0.453 OA
ATOM     24  C   UNL     1      -3.860  -1.058  24.638  0.00  0.00    +0.004 A 
ATOM     27  C   UNL     1      -2.741  -0.621  25.352  0.00  0.00    +0.059 A 
ATOM     28  C   UNL     1      -3.846  -2.300  23.977  0.00  0.00    +0.014 A 
ATOM     29  C   UNL     1      -1.637  -1.448  25.381  0.00  0.00    +0.167 A 
ATOM     30  C   UNL     1      -2.715  -3.118  24.024  0.00  0.00    +0.050 A 
ATOM     31  C   UNL     1      -1.623  -2.662  24.735  0.00  0.00    +0.166 A 
ATOM     35  C   UNL     1       0.289  -2.380  25.706  0.00  0.00    +0.466 C 
ENDBRANCH  20  24
ENDBRANCH  14   8
BRANCH  15   3
ATOM      3  O   UNL     1      -1.547   5.773  24.015  0.00  0.00    -0.442 OA
BRANCH   3  19
ATOM      4  O   UNL     1      -0.112   4.717  25.449  0.00  0.00    -0.226 OA
ATOM     11  N   UNL     1      -0.666   3.800  23.368  0.00  0.00    -0.251 N 
ATOM     19  C   UNL     1      -0.706   4.741  24.378  0.00  0.00    +0.405 C 
ATOM     43  H   UNL     1      -1.234   3.996  22.548  0.00  0.00    +0.158 HD
BRANCH  11  23
ATOM     23  C   UNL     1       0.068   2.592  23.333  0.00  0.00    +0.037 A 
ATOM     25  C   UNL     1       1.453   2.612  23.499  0.00  0.00    +0.027 A 
ATOM     26  C   UNL     1      -0.593   1.380  23.131  0.00  0.00    +0.027 A 
ATOM     32  C   UNL     1       2.177   1.420  23.462  0.00  0.00    +0.048 A 
ATOM     33  C   UNL     1       0.131   0.189  23.093  0.00  0.00    +0.048 A 
ATOM     34  C   UNL     1       1.516   0.209  23.259  0.00  0.00    +0.129 A 
BRANCH  34   7
ATOM      7  O   UNL     1       2.223  -0.953  23.221  0.00  0.00    -0.456 OA
BRANCH   7  36
ATOM     36  C   UNL     1       3.595  -0.879  23.397  0.00  0.00    +0.128 A 
ATOM     37  C   UNL     1       4.287   0.267  23.007  0.00  0.00    +0.046 A 
ATOM     38  C   UNL     1       4.283  -1.952  23.963  0.00  0.00    +0.046 A 
ATOM     39  C   UNL     1       5.669   0.341  23.183  0.00  0.00    +0.004 A 
ATOM     40  C   UNL     1       5.665  -1.878  24.139  0.00  0.00    +0.004 A 
ATOM     41  C   UNL     1       6.358  -0.731  23.749  0.00  0.00    +0.000 A 
ENDBRANCH   7  36
ENDBRANCH  34   7
ENDBRANCH  11  23
ENDBRANCH   3  19
ENDBRANCH  15   3
TORSDOF 7
ENDMDL
