MODEL 1
REMARK VINA RESULT:       7.7      0.000      0.000
REMARK  Name = 7144217
REMARK  6 active torsions:
REMARK  status: ('A' for Active; 'I' for Inactive)
REMARK    1  A    between atoms: S_1  and  C_25
REMARK    2  A    between atoms: S_1  and  C_29
REMARK    3  A    between atoms: O_4  and  C_20
REMARK    4  A    between atoms: O_4  and  C_26
REMARK    5  A    between atoms: C_14  and  C_19
REMARK    6  A    between atoms: C_16  and  C_20
REMARK                            x       y       z     vdW  Elec       q    Type
REMARK                         _______ _______ _______ _____ _____    ______ ____
ROOT
ATOM      2  O   UNL     1      -2.916   5.728  25.793  0.00  0.00    -0.268 OA
ATOM      3  O   UNL     1      -5.475   1.137  26.124  0.00  0.00    -0.272 OA
ATOM      5  N   UNL     1      -4.107   1.138  24.246  0.00  0.00    -0.298 N 
ATOM      6  N   UNL     1      -2.546   3.909  24.365  0.00  0.00    -0.311 N 
ATOM      7  C   UNL     1      -4.348   3.100  22.731  0.00  0.00    +0.027 C 
ATOM      8  C   UNL     1      -2.193   1.925  22.862  0.00  0.00    +0.054 C 
ATOM      9  C   UNL     1      -3.171   2.603  21.905  0.00  0.00    +0.018 C 
ATOM     10  C   UNL     1      -5.043   1.931  23.449  0.00  0.00    +0.113 C 
ATOM     11  C   UNL     1      -3.841   4.154  23.715  0.00  0.00    +0.130 C 
ATOM     12  C   UNL     1      -2.887   0.725  23.539  0.00  0.00    +0.117 C 
ATOM     13  C   UNL     1      -1.670   2.899  23.921  0.00  0.00    +0.034 A 
ATOM     14  C   UNL     1      -0.422   2.806  24.451  0.00  0.00    +0.002 A 
ATOM     15  C   UNL     1      -2.195   4.820  25.377  0.00  0.00    +0.252 A 
ATOM     16  C   UNL     1      -4.444   0.776  25.550  0.00  0.00    +0.253 C 
ATOM     17  C   UNL     1      -0.026   3.727  25.498  0.00  0.00    +0.015 A 
ATOM     18  C   UNL     1      -0.843   4.672  25.961  0.00  0.00    +0.071 A 
ENDROOT
BRANCH  14  19
ATOM     19  C   UNL     1       0.540   1.774  24.002  0.00  0.00    -0.016 A 
ATOM     21  C   UNL     1       0.189   0.429  24.063  0.00  0.00    +0.009 A 
ATOM     22  C   UNL     1       1.790   2.157  23.523  0.00  0.00    +0.009 A 
ATOM     23  C   UNL     1       1.097  -0.543  23.642  0.00  0.00    +0.015 A 
ATOM     24  C   UNL     1       2.696   1.185  23.102  0.00  0.00    +0.015 A 
ATOM     25  C   UNL     1       2.350  -0.165  23.161  0.00  0.00    +0.008 A 
BRANCH  25   1
ATOM      1  S   UNL     1       3.509  -1.407  22.623  0.00  0.00    -0.129 S 
ATOM     29  C   UNL     1       4.838  -1.227  23.845  0.00  0.00    +0.090 C 
ENDBRANCH  25   1
ENDBRANCH  14  19
BRANCH  16  20
ATOM     20  C   UNL     1      -3.462  -0.102  26.283  0.00  0.00    +0.324 C 
BRANCH  20   4
ATOM      4  O   UNL     1      -3.911  -1.426  26.127  0.00  0.00    -0.483 OA
BRANCH   4  26
ATOM     26  C   UNL     1      -3.292  -2.195  25.166  0.00  0.00    +0.121 A 
ATOM     27  C   UNL     1      -1.908  -2.232  25.111  0.00  0.00    +0.045 A 
ATOM     28  C   UNL     1      -4.065  -2.919  24.271  0.00  0.00    +0.045 A 
ATOM     30  C   UNL     1      -1.280  -3.009  24.138  0.00  0.00    +0.004 A 
ATOM     31  C   UNL     1      -3.439  -3.696  23.297  0.00  0.00    +0.004 A 
ATOM     32  C   UNL     1      -2.046  -3.742  23.230  0.00  0.00    +0.000 A 
ENDBRANCH   4  26
ENDBRANCH  20   4
ENDBRANCH  16  20
TORSDOF 5
ENDMDL
MODEL 2
REMARK VINA RESULT:       8.3      1.536      1.821
REMARK  Name = 7144217
REMARK  6 active torsions:
REMARK  status: ('A' for Active; 'I' for Inactive)
REMARK    1  A    between atoms: S_1  and  C_25
REMARK    2  A    between atoms: S_1  and  C_29
REMARK    3  A    between atoms: O_4  and  C_20
REMARK    4  A    between atoms: O_4  and  C_26
REMARK    5  A    between atoms: C_14  and  C_19
REMARK    6  A    between atoms: C_16  and  C_20
REMARK                            x       y       z     vdW  Elec       q    Type
REMARK                         _______ _______ _______ _____ _____    ______ ____
ROOT
ATOM      2  O   UNL     1      -3.192   4.451  28.309  0.00  0.00    -0.268 OA
ATOM      3  O   UNL     1      -6.471   1.142  25.851  0.00  0.00    -0.272 OA
ATOM      5  N   UNL     1      -4.926   1.985  24.334  0.00  0.00    -0.298 N 
ATOM      6  N   UNL     1      -2.965   3.792  26.073  0.00  0.00    -0.311 N 
ATOM      7  C   UNL     1      -4.687   4.464  24.296  0.00  0.00    +0.027 C 
ATOM      8  C   UNL     1      -2.773   3.050  23.679  0.00  0.00    +0.054 C 
ATOM      9  C   UNL     1      -3.522   4.334  23.327  0.00  0.00    +0.018 C 
ATOM     10  C   UNL     1      -5.632   3.257  24.178  0.00  0.00    +0.113 C 
ATOM     11  C   UNL     1      -4.127   4.616  25.711  0.00  0.00    +0.130 C 
ATOM     12  C   UNL     1      -3.718   1.843  23.509  0.00  0.00    +0.117 C 
ATOM     13  C   UNL     1      -2.218   3.092  25.105  0.00  0.00    +0.034 A 
ATOM     14  C   UNL     1      -1.066   2.467  25.462  0.00  0.00    +0.002 A 
ATOM     15  C   UNL     1      -2.584   3.845  27.426  0.00  0.00    +0.252 A 
ATOM     16  C   UNL     1      -5.454   0.998  25.166  0.00  0.00    +0.253 C 
ATOM     17  C   UNL     1      -0.643   2.499  26.849  0.00  0.00    +0.015 A 
ATOM     18  C   UNL     1      -1.344   3.125  27.793  0.00  0.00    +0.071 A 
ENDROOT
BRANCH  14  19
ATOM     19  C   UNL     1      -0.238   1.737  24.476  0.00  0.00    -0.016 A 
ATOM     21  C   UNL     1      -0.837   0.830  23.608  0.00  0.00    +0.009 A 
ATOM     22  C   UNL     1       1.135   1.961  24.426  0.00  0.00    +0.009 A 
ATOM     23  C   UNL     1      -0.056   0.140  22.681  0.00  0.00    +0.015 A 
ATOM     24  C   UNL     1       1.915   1.271  23.499  0.00  0.00    +0.015 A 
ATOM     25  C   UNL     1       1.320   0.360  22.626  0.00  0.00    +0.008 A 
BRANCH  25   1
ATOM      1  S   UNL     1       2.317  -0.521  21.440  0.00  0.00    -0.129 S 
ATOM     29  C   UNL     1       3.961   0.187  21.742  0.00  0.00    +0.090 C 
ENDBRANCH  25   1
ENDBRANCH  14  19
BRANCH  16  20
ATOM     20  C   UNL     1      -4.709  -0.311  25.219  0.00  0.00    +0.324 C 
BRANCH  20   4
ATOM      4  O   UNL     1      -3.451  -0.036  25.784  0.00  0.00    -0.483 OA
BRANCH   4  26
ATOM     26  C   UNL     1      -2.437  -0.936  25.540  0.00  0.00    +0.121 A 
ATOM     27  C   UNL     1      -1.259  -0.848  26.265  0.00  0.00    +0.045 A 
ATOM     28  C   UNL     1      -2.612  -1.912  24.571  0.00  0.00    +0.045 A 
ATOM     30  C   UNL     1      -0.232  -1.758  26.018  0.00  0.00    +0.004 A 
ATOM     31  C   UNL     1      -1.584  -2.822  24.322  0.00  0.00    +0.004 A 
ATOM     32  C   UNL     1      -0.394  -2.746  25.046  0.00  0.00    +0.000 A 
ENDBRANCH   4  26
ENDBRANCH  20   4
ENDBRANCH  16  20
TORSDOF 5
ENDMDL
MODEL 3
REMARK VINA RESULT:       9.6      2.838      5.234
REMARK  Name = 7144217
REMARK  6 active torsions:
REMARK  status: ('A' for Active; 'I' for Inactive)
REMARK    1  A    between atoms: S_1  and  C_25
REMARK    2  A    between atoms: S_1  and  C_29
REMARK    3  A    between atoms: O_4  and  C_20
REMARK    4  A    between atoms: O_4  and  C_26
REMARK    5  A    between atoms: C_14  and  C_19
REMARK    6  A    between atoms: C_16  and  C_20
REMARK                            x       y       z     vdW  Elec       q    Type
REMARK                         _______ _______ _______ _____ _____    ______ ____
ROOT
ATOM      2  O   UNL     1      -2.941   1.569  20.858  0.00  0.00    -0.268 OA
ATOM      3  O   UNL     1      -6.721   1.268  24.513  0.00  0.00    -0.272 OA
ATOM      5  N   UNL     1      -4.821   0.158  25.257  0.00  0.00    -0.298 N 
ATOM      6  N   UNL     1      -2.644   0.633  22.984  0.00  0.00    -0.311 N 
ATOM      7  C   UNL     1      -3.856  -1.515  23.684  0.00  0.00    +0.027 C 
ATOM      8  C   UNL     1      -2.385  -0.360  25.279  0.00  0.00    +0.054 C 
ATOM      9  C   UNL     1      -2.671  -1.707  24.618  0.00  0.00    +0.018 C 
ATOM     10  C   UNL     1      -5.094  -1.040  24.463  0.00  0.00    +0.113 C 
ATOM     11  C   UNL     1      -3.456  -0.526  22.588  0.00  0.00    +0.130 C 
ATOM     12  C   UNL     1      -3.617   0.082  26.096  0.00  0.00    +0.117 C 
ATOM     13  C   UNL     1      -2.024   0.711  24.246  0.00  0.00    +0.034 A 
ATOM     14  C   UNL     1      -1.161   1.726  24.514  0.00  0.00    +0.002 A 
ATOM     15  C   UNL     1      -2.435   1.595  21.980  0.00  0.00    +0.252 A 
ATOM     16  C   UNL     1      -5.716   1.226  25.228  0.00  0.00    +0.253 C 
ATOM     17  C   UNL     1      -0.923   2.739  23.503  0.00  0.00    +0.015 A 
ATOM     18  C   UNL     1      -1.519   2.709  22.312  0.00  0.00    +0.071 A 
ENDROOT
BRANCH  14  19
ATOM     19  C   UNL     1      -0.471   1.839  25.818  0.00  0.00    -0.016 A 
ATOM     21  C   UNL     1      -0.624   0.835  26.770  0.00  0.00    +0.009 A 
ATOM     22  C   UNL     1       0.325   2.950  26.085  0.00  0.00    +0.009 A 
ATOM     23  C   UNL     1       0.025   0.943  28.000  0.00  0.00    +0.015 A 
ATOM     24  C   UNL     1       0.973   3.056  27.315  0.00  0.00    +0.015 A 
ATOM     25  C   UNL     1       0.824   2.053  28.273  0.00  0.00    +0.008 A 
BRANCH  25   1
ATOM      1  S   UNL     1       1.653   2.190  29.844  0.00  0.00    -0.129 S 
ATOM     29  C   UNL     1       3.158   3.097  29.390  0.00  0.00    +0.090 C 
ENDBRANCH  25   1
ENDBRANCH  14  19
BRANCH  16  20
ATOM     20  C   UNL     1      -5.404   2.395  26.128  0.00  0.00    +0.324 C 
BRANCH  20   4
ATOM      4  O   UNL     1      -5.348   3.534  25.305  0.00  0.00    -0.483 OA
BRANCH   4  26
ATOM     26  C   UNL     1      -4.147   4.205  25.234  0.00  0.00    +0.121 A 
ATOM     27  C   UNL     1      -3.825   4.906  24.082  0.00  0.00    +0.045 A 
ATOM     28  C   UNL     1      -3.280   4.166  26.315  0.00  0.00    +0.045 A 
ATOM     30  C   UNL     1      -2.609   5.584  24.009  0.00  0.00    +0.004 A 
ATOM     31  C   UNL     1      -2.063   4.843  26.243  0.00  0.00    +0.004 A 
ATOM     32  C   UNL     1      -1.727   5.553  25.089  0.00  0.00    +0.000 A 
ENDBRANCH   4  26
ENDBRANCH  20   4
ENDBRANCH  16  20
TORSDOF 5
ENDMDL
MODEL 4
REMARK VINA RESULT:      10.1      1.875      4.457
REMARK  Name = 7144217
REMARK  6 active torsions:
REMARK  status: ('A' for Active; 'I' for Inactive)
REMARK    1  A    between atoms: S_1  and  C_25
REMARK    2  A    between atoms: S_1  and  C_29
REMARK    3  A    between atoms: O_4  and  C_20
REMARK    4  A    between atoms: O_4  and  C_26
REMARK    5  A    between atoms: C_14  and  C_19
REMARK    6  A    between atoms: C_16  and  C_20
REMARK                            x       y       z     vdW  Elec       q    Type
REMARK                         _______ _______ _______ _____ _____    ______ ____
ROOT
ATOM      2  O   UNL     1      -5.109   1.071  23.444  0.00  0.00    -0.268 OA
ATOM      3  O   UNL     1      -3.256  -1.144  27.850  0.00  0.00    -0.272 OA
ATOM      5  N   UNL     1      -2.065  -1.930  26.016  0.00  0.00    -0.298 N 
ATOM      6  N   UNL     1      -3.231  -0.327  23.526  0.00  0.00    -0.311 N 
ATOM      7  C   UNL     1      -3.434  -2.810  24.130  0.00  0.00    +0.027 C 
ATOM      8  C   UNL     1      -1.225  -1.833  23.674  0.00  0.00    +0.054 C 
ATOM      9  C   UNL     1      -2.174  -2.967  23.293  0.00  0.00    +0.018 C 
ATOM     10  C   UNL     1      -3.105  -2.884  25.630  0.00  0.00    +0.113 C 
ATOM     11  C   UNL     1      -4.103  -1.487  23.757  0.00  0.00    +0.130 C 
ATOM     12  C   UNL     1      -0.864  -1.948  25.170  0.00  0.00    +0.117 C 
ATOM     13  C   UNL     1      -1.837  -0.461  23.381  0.00  0.00    +0.034 A 
ATOM     14  C   UNL     1      -1.088   0.614  23.019  0.00  0.00    +0.002 A 
ATOM     15  C   UNL     1      -3.894   0.901  23.344  0.00  0.00    +0.252 A 
ATOM     16  C   UNL     1      -2.237  -1.143  27.154  0.00  0.00    +0.253 C 
ATOM     17  C   UNL     1      -1.737   1.897  22.825  0.00  0.00    +0.015 A 
ATOM     18  C   UNL     1      -3.049   2.061  22.985  0.00  0.00    +0.071 A 
ENDROOT
BRANCH  14  19
ATOM     19  C   UNL     1       0.377   0.516  22.837  0.00  0.00    -0.016 A 
ATOM     21  C   UNL     1       0.898  -0.342  21.873  0.00  0.00    +0.009 A 
ATOM     22  C   UNL     1       1.225   1.283  23.631  0.00  0.00    +0.009 A 
ATOM     23  C   UNL     1       2.279  -0.436  21.703  0.00  0.00    +0.015 A 
ATOM     24  C   UNL     1       2.606   1.190  23.460  0.00  0.00    +0.015 A 
ATOM     25  C   UNL     1       3.133   0.331  22.496  0.00  0.00    +0.008 A 
BRANCH  25   1
ATOM      1  S   UNL     1       4.898   0.212  22.277  0.00  0.00    -0.129 S 
ATOM     29  C   UNL     1       5.447  -0.245  23.946  0.00  0.00    +0.090 C 
ENDBRANCH  25   1
ENDBRANCH  14  19
BRANCH  16  20
ATOM     20  C   UNL     1      -1.092  -0.237  27.528  0.00  0.00    +0.324 C 
BRANCH  20   4
ATOM      4  O   UNL     1      -0.661   0.379  26.339  0.00  0.00    -0.483 OA
BRANCH   4  26
ATOM     26  C   UNL     1      -1.039   1.687  26.130  0.00  0.00    +0.121 A 
ATOM     27  C   UNL     1      -0.069   2.643  25.870  0.00  0.00    +0.045 A 
ATOM     28  C   UNL     1      -2.382   2.024  26.187  0.00  0.00    +0.045 A 
ATOM     30  C   UNL     1      -0.452   3.968  25.660  0.00  0.00    +0.004 A 
ATOM     31  C   UNL     1      -2.765   3.349  25.977  0.00  0.00    +0.004 A 
ATOM     32  C   UNL     1      -1.800   4.321  25.714  0.00  0.00    +0.000 A 
ENDBRANCH   4  26
ENDBRANCH  20   4
ENDBRANCH  16  20
TORSDOF 5
ENDMDL
