MODEL 1
REMARK VINA RESULT:       3.2      0.000      0.000
REMARK  Name = 7663579
REMARK  8 active torsions:
REMARK  status: ('A' for Active; 'I' for Inactive)
REMARK    1  A    between atoms: O_4  and  C_27
REMARK    2  A    between atoms: O_4  and  C_32
REMARK    3  A    between atoms: N_7  and  C_11
REMARK    4  A    between atoms: N_9  and  C_24
REMARK    5  A    between atoms: C_17  and  C_22
REMARK    6  A    between atoms: C_23  and  C_25
REMARK    7  A    between atoms: C_24  and  C_26
REMARK    8  A    between atoms: C_24  and  C_27
REMARK                            x       y       z     vdW  Elec       q    Type
REMARK                         _______ _______ _______ _____ _____    ______ ____
ROOT
ATOM      1  O   UNL     1      -3.019  -1.212  26.227  0.00  0.00    -0.253 OA
ATOM      3  O   UNL     1       2.045   0.142  21.090  0.00  0.00    -0.270 OA
ATOM      6  N   UNL     1      -1.737  -0.398  24.466  0.00  0.00    -0.271 N 
ATOM      7  N   UNL     1      -3.937   0.383  24.851  0.00  0.00    -0.296 N 
ATOM      8  N   UNL     1       0.786  -0.303  23.008  0.00  0.00    -0.294 N 
ATOM     17  C   UNL     1      -1.616   0.349  23.206  0.00  0.00    +0.181 C 
ATOM     18  C   UNL     1      -0.493  -0.174  22.308  0.00  0.00    +0.140 C 
ATOM     19  C   UNL     1      -0.608  -1.259  24.831  0.00  0.00    +0.129 C 
ATOM     20  C   UNL     1       0.732  -0.655  24.433  0.00  0.00    +0.127 C 
ATOM     21  C   UNL     1      -2.908  -0.464  25.252  0.00  0.00    +0.303 C 
ATOM     23  C   UNL     1       1.973  -0.152  22.282  0.00  0.00    +0.248 C 
ATOM     33  H   UNL     1      -3.772   1.068  24.124  0.00  0.00    +0.151 HD
ENDROOT
BRANCH  23  25
ATOM     10  N   UNL     1       4.721  -1.844  24.186  0.00  0.00    -0.263 NA
ATOM     25  C   UNL     1       3.248  -0.358  22.988  0.00  0.00    +0.055 A 
ATOM     28  C   UNL     1       4.156   0.681  23.131  0.00  0.00    +0.016 A 
ATOM     29  C   UNL     1       3.569  -1.589  23.526  0.00  0.00    +0.123 A 
ATOM     30  C   UNL     1       5.353   0.457  23.803  0.00  0.00    +0.020 A 
ATOM     31  C   UNL     1       5.585  -0.812  24.308  0.00  0.00    +0.111 A 
ENDBRANCH  23  25
BRANCH   7  11
ATOM     11  C   UNL     1      -5.201   0.441  25.551  0.00  0.00    +0.074 C 
ATOM     12  C   UNL     1      -6.345   0.790  24.594  0.00  0.00    +0.022 C 
ATOM     13  C   UNL     1      -5.136   1.427  26.722  0.00  0.00    +0.022 C 
ATOM     14  C   UNL     1      -6.301   2.247  24.135  0.00  0.00    +0.002 C 
ATOM     15  C   UNL     1      -5.093   2.883  26.260  0.00  0.00    +0.002 C 
ATOM     16  C   UNL     1      -6.249   3.209  25.318  0.00  0.00    +0.000 C 
ENDBRANCH   7  11
BRANCH  17  22
ATOM      2  O   UNL     1      -1.584   2.695  22.752  0.00  0.00    -0.274 OA
ATOM      9  N   UNL     1      -0.849   1.940  24.828  0.00  0.00    -0.301 N 
ATOM     22  C   UNL     1      -1.363   1.789  23.552  0.00  0.00    +0.236 C 
ATOM     34  H   UNL     1      -0.778   1.124  25.430  0.00  0.00    +0.150 HD
BRANCH   9  24
ATOM     24  C   UNL     1      -0.499   3.223  25.392  0.00  0.00    +0.179 C 
ATOM     26  C   UNL     1       0.430   3.041  26.583  0.00  0.00    +0.040 C 
BRANCH  24  27
ATOM      5  O   UNL     1      -2.488   3.654  26.692  0.00  0.00    -0.249 OA
ATOM     27  C   UNL     1      -1.730   4.018  25.799  0.00  0.00    +0.327 C 
BRANCH  27   4
ATOM      4  O   UNL     1      -1.872   5.160  25.068  0.00  0.00    -0.467 OA
ATOM     32  C   UNL     1      -0.670   5.683  24.490  0.00  0.00    +0.280 C 
ENDBRANCH  27   4
ENDBRANCH  24  27
ENDBRANCH   9  24
ENDBRANCH  17  22
TORSDOF 6
ENDMDL
