MODEL 1
REMARK VINA RESULT:      -0.8      0.000      0.000
REMARK  Name = 51137045
REMARK  3 active torsions:
REMARK  status: ('A' for Active; 'I' for Inactive)
REMARK    1  A    between atoms: N_3  and  C_6
REMARK    2  A    between atoms: N_4  and  C_16
REMARK    3  A    between atoms: C_7  and  C_15
REMARK                            x       y       z     vdW  Elec       q    Type
REMARK                         _______ _______ _______ _____ _____    ______ ____
ROOT
ATOM      3  N   UNL     1      -2.891   0.068  24.708  0.00  0.00    -0.299 NA
ATOM      7  C   UNL     1      -0.964  -0.800  23.691  0.00  0.00    +0.090 C 
ATOM      8  C   UNL     1      -1.728   0.510  23.935  0.00  0.00    +0.097 C 
ATOM      9  C   UNL     1      -2.359  -0.888  25.678  0.00  0.00    +0.085 C 
ATOM     10  C   UNL     1      -1.403  -1.726  24.840  0.00  0.00    +0.029 C 
ENDROOT
BRANCH   7  15
ATOM      1 CL   UNL     1       6.616  -0.504  23.376  0.00  0.00    -0.083 Cl
ATOM      2  O   UNL     1       0.928   0.613  23.092  0.00  0.00    -0.439 OA
ATOM      5  N   UNL     1       1.494  -1.437  23.872  0.00  0.00    -0.213 NA
ATOM     15  C   UNL     1       0.528  -0.597  23.572  0.00  0.00    +0.201 A 
ATOM     17  C   UNL     1       2.633  -0.732  23.568  0.00  0.00    +0.111 A 
ATOM     18  C   UNL     1       2.291   0.525  23.091  0.00  0.00    +0.155 A 
ATOM     19  C   UNL     1       3.990  -1.074  23.665  0.00  0.00    +0.051 A 
ATOM     20  C   UNL     1       3.201   1.495  22.691  0.00  0.00    +0.050 A 
ATOM     21  C   UNL     1       4.939  -0.120  23.270  0.00  0.00    +0.043 A 
ATOM     22  C   UNL     1       4.550   1.138  22.793  0.00  0.00    +0.024 A 
ENDBRANCH   7  15
BRANCH   3   6
ATOM      4  N   UNL     1      -5.184   3.624  25.118  0.00  0.00    -0.305 NA
ATOM      6  C   UNL     1      -3.589   1.181  25.349  0.00  0.00    +0.059 C 
ATOM     11  C   UNL     1      -2.974   2.523  24.938  0.00  0.00    +0.034 C 
ATOM     12  C   UNL     1      -5.076   1.155  24.984  0.00  0.00    +0.034 C 
ATOM     13  C   UNL     1      -3.773   3.692  25.520  0.00  0.00    +0.085 C 
ATOM     14  C   UNL     1      -5.805   2.369  25.565  0.00  0.00    +0.085 C 
ATOM     16  C   UNL     1      -5.921   4.774  25.640  0.00  0.00    +0.104 C 
ENDBRANCH   3   6
TORSDOF 2
ENDMDL
MODEL 2
REMARK VINA RESULT:       0.9      1.069      1.545
REMARK  Name = 51137045
REMARK  3 active torsions:
REMARK  status: ('A' for Active; 'I' for Inactive)
REMARK    1  A    between atoms: N_3  and  C_6
REMARK    2  A    between atoms: N_4  and  C_16
REMARK    3  A    between atoms: C_7  and  C_15
REMARK                            x       y       z     vdW  Elec       q    Type
REMARK                         _______ _______ _______ _____ _____    ______ ____
ROOT
ATOM      3  N   UNL     1      -2.320   0.471  23.972  0.00  0.00    -0.299 NA
ATOM      7  C   UNL     1      -0.320  -0.296  23.019  0.00  0.00    +0.090 C 
ATOM      8  C   UNL     1      -1.030   0.977  23.499  0.00  0.00    +0.097 C 
ATOM      9  C   UNL     1      -1.999  -0.747  24.716  0.00  0.00    +0.085 C 
ATOM     10  C   UNL     1      -0.980  -1.435  23.816  0.00  0.00    +0.029 C 
ENDROOT
BRANCH   7  15
ATOM      1 CL   UNL     1       7.177   0.839  23.425  0.00  0.00    -0.083 Cl
ATOM      2  O   UNL     1       1.803  -1.346  23.594  0.00  0.00    -0.439 OA
ATOM      5  N   UNL     1       1.974   0.802  22.893  0.00  0.00    -0.213 NA
ATOM     15  C   UNL     1       1.184  -0.217  23.151  0.00  0.00    +0.201 A 
ATOM     17  C   UNL     1       3.224   0.315  23.188  0.00  0.00    +0.111 A 
ATOM     18  C   UNL     1       3.124  -1.000  23.617  0.00  0.00    +0.155 A 
ATOM     19  C   UNL     1       4.492   0.911  23.121  0.00  0.00    +0.051 A 
ATOM     20  C   UNL     1       4.200  -1.795  23.995  0.00  0.00    +0.050 A 
ATOM     21  C   UNL     1       5.603   0.141  23.496  0.00  0.00    +0.043 A 
ATOM     22  C   UNL     1       5.457  -1.185  23.923  0.00  0.00    +0.024 A 
ENDBRANCH   7  15
BRANCH   3   6
ATOM      4  N   UNL     1      -5.039   3.572  24.999  0.00  0.00    -0.305 NA
ATOM      6  C   UNL     1      -3.037   1.448  24.789  0.00  0.00    +0.059 C 
ATOM     11  C   UNL     1      -2.771   2.874  24.296  0.00  0.00    +0.034 C 
ATOM     12  C   UNL     1      -4.541   1.159  24.764  0.00  0.00    +0.034 C 
ATOM     13  C   UNL     1      -3.607   3.889  25.079  0.00  0.00    +0.085 C 
ATOM     14  C   UNL     1      -5.318   2.230  25.532  0.00  0.00    +0.085 C 
ATOM     16  C   UNL     1      -5.827   4.579  25.710  0.00  0.00    +0.104 C 
ENDBRANCH   3   6
TORSDOF 2
ENDMDL
MODEL 3
REMARK VINA RESULT:       1.7      3.363      8.302
REMARK  Name = 51137045
REMARK  3 active torsions:
REMARK  status: ('A' for Active; 'I' for Inactive)
REMARK    1  A    between atoms: N_3  and  C_6
REMARK    2  A    between atoms: N_4  and  C_16
REMARK    3  A    between atoms: C_7  and  C_15
REMARK                            x       y       z     vdW  Elec       q    Type
REMARK                         _______ _______ _______ _____ _____    ______ ____
ROOT
ATOM      3  N   UNL     1       1.542  -0.741  23.268  0.00  0.00    -0.299 NA
ATOM      7  C   UNL     1      -0.787  -0.536  23.454  0.00  0.00    +0.090 C 
ATOM      8  C   UNL     1       0.517  -0.379  24.249  0.00  0.00    +0.097 C 
ATOM      9  C   UNL     1       1.128  -0.083  22.029  0.00  0.00    +0.085 C 
ATOM     10  C   UNL     1      -0.370  -0.357  21.983  0.00  0.00    +0.029 C 
ENDROOT
BRANCH   7  15
ATOM      1 CL   UNL     1      -5.797   4.742  25.620  0.00  0.00    -0.083 Cl
ATOM      2  O   UNL     1      -3.009  -0.198  24.395  0.00  0.00    -0.439 OA
ATOM      5  N   UNL     1      -1.881   1.712  23.935  0.00  0.00    -0.213 NA
ATOM     15  C   UNL     1      -1.879   0.397  23.923  0.00  0.00    +0.201 A 
ATOM     17  C   UNL     1      -3.113   2.021  24.458  0.00  0.00    +0.111 A 
ATOM     18  C   UNL     1      -3.807   0.854  24.742  0.00  0.00    +0.155 A 
ATOM     19  C   UNL     1      -3.723   3.255  24.728  0.00  0.00    +0.051 A 
ATOM     20  C   UNL     1      -5.086   0.804  25.283  0.00  0.00    +0.050 A 
ATOM     21  C   UNL     1      -5.016   3.245  25.274  0.00  0.00    +0.043 A 
ATOM     22  C   UNL     1      -5.680   2.043  25.545  0.00  0.00    +0.024 A 
ENDBRANCH   7  15
BRANCH   3   6
ATOM      4  N   UNL     1       5.756  -0.199  23.154  0.00  0.00    -0.305 NA
ATOM      6  C   UNL     1       2.882  -0.340  23.690  0.00  0.00    +0.059 C 
ATOM     11  C   UNL     1       3.800  -1.559  23.827  0.00  0.00    +0.034 C 
ATOM     12  C   UNL     1       3.479   0.652  22.687  0.00  0.00    +0.034 C 
ATOM     13  C   UNL     1       5.232  -1.131  24.161  0.00  0.00    +0.085 C 
ATOM     14  C   UNL     1       4.921   1.007  23.059  0.00  0.00    +0.085 C 
ATOM     16  C   UNL     1       7.140   0.160  23.460  0.00  0.00    +0.104 C 
ENDBRANCH   3   6
TORSDOF 2
ENDMDL
MODEL 4
REMARK VINA RESULT:       2.5      3.479      8.064
REMARK  Name = 51137045
REMARK  3 active torsions:
REMARK  status: ('A' for Active; 'I' for Inactive)
REMARK    1  A    between atoms: N_3  and  C_6
REMARK    2  A    between atoms: N_4  and  C_16
REMARK    3  A    between atoms: C_7  and  C_15
REMARK                            x       y       z     vdW  Elec       q    Type
REMARK                         _______ _______ _______ _____ _____    ______ ____
ROOT
ATOM      3  N   UNL     1       0.297  -1.247  24.197  0.00  0.00    -0.299 NA
ATOM      7  C   UNL     1      -1.715  -0.608  25.218  0.00  0.00    +0.090 C 
ATOM      8  C   UNL     1      -0.307  -0.100  24.877  0.00  0.00    +0.097 C 
ATOM      9  C   UNL     1      -0.747  -1.750  23.305  0.00  0.00    +0.085 C 
ATOM     10  C   UNL     1      -1.991  -1.714  24.184  0.00  0.00    +0.029 C 
ENDROOT
BRANCH   7  15
ATOM      1 CL   UNL     1      -6.298   5.441  25.451  0.00  0.00    -0.083 Cl
ATOM      2  O   UNL     1      -4.048   0.096  25.235  0.00  0.00    -0.439 OA
ATOM      5  N   UNL     1      -2.550   1.795  25.314  0.00  0.00    -0.213 NA
ATOM     15  C   UNL     1      -2.746   0.496  25.259  0.00  0.00    +0.201 A 
ATOM     17  C   UNL     1      -3.826   2.306  25.330  0.00  0.00    +0.111 A 
ATOM     18  C   UNL     1      -4.746   1.269  25.281  0.00  0.00    +0.155 A 
ATOM     19  C   UNL     1      -4.296   3.626  25.383  0.00  0.00    +0.051 A 
ATOM     20  C   UNL     1      -6.126   1.433  25.282  0.00  0.00    +0.050 A 
ATOM     21  C   UNL     1      -5.684   3.832  25.385  0.00  0.00    +0.043 A 
ATOM     22  C   UNL     1      -6.578   2.756  25.336  0.00  0.00    +0.024 A 
ENDBRANCH   7  15
BRANCH   3   6
ATOM      4  N   UNL     1       4.185   0.314  23.484  0.00  0.00    -0.305 NA
ATOM      6  C   UNL     1       1.518  -0.888  23.478  0.00  0.00    +0.059 C 
ATOM     11  C   UNL     1       1.730   0.629  23.482  0.00  0.00    +0.034 C 
ATOM     12  C   UNL     1       2.727  -1.586  24.106  0.00  0.00    +0.034 C 
ATOM     13  C   UNL     1       3.064   0.997  22.825  0.00  0.00    +0.085 C 
ATOM     14  C   UNL     1       4.027  -1.146  23.429  0.00  0.00    +0.085 C 
ATOM     16  C   UNL     1       5.455   0.715  22.879  0.00  0.00    +0.104 C 
ENDBRANCH   3   6
TORSDOF 2
ENDMDL
