MODEL 1
REMARK VINA RESULT:      16.2      0.000      0.000
REMARK  Name = 11879507
REMARK  10 active torsions:
REMARK  status: ('A' for Active; 'I' for Inactive)
REMARK    1  A    between atoms: O_4  and  C_17
REMARK    2  A    between atoms: O_5  and  C_22
REMARK    3  A    between atoms: N_9  and  C_28
REMARK    4  A    between atoms: C_12  and  C_20
REMARK    5  A    between atoms: C_14  and  C_22
REMARK    6  A    between atoms: C_14  and  C_23
REMARK    7  A    between atoms: C_15  and  C_25
REMARK    8  A    between atoms: C_25  and  C_26
REMARK    9  A    between atoms: C_28  and  C_30
REMARK   10  A    between atoms: C_29  and  C_31
REMARK                            x       y       z     vdW  Elec       q    Type
REMARK                         _______ _______ _______ _____ _____    ______ ____
ROOT
ATOM      1  S   UNL     1       0.355   1.973  26.081  0.00  0.00    -0.057 S 
ATOM      7  O   UNL     1       2.219   0.505  22.075  0.00  0.00    -0.270 OA
ATOM      8  N   UNL     1      -0.062   1.683  23.545  0.00  0.00    -0.229 NA
ATOM     10  N   UNL     1       2.083   0.972  24.381  0.00  0.00    -0.261 N 
ATOM     12  C   UNL     1      -3.699   2.814  24.145  0.00  0.00    -0.019 C 
ATOM     13  C   UNL     1      -3.289   3.751  25.365  0.00  0.00    +0.011 C 
ATOM     14  C   UNL     1      -4.462   4.448  26.157  0.00  0.00    +0.021 C 
ATOM     15  C   UNL     1      -2.400   2.582  23.244  0.00  0.00    +0.054 C 
ATOM     16  C   UNL     1      -4.771   3.530  23.283  0.00  0.00    +0.010 C 
ATOM     17  C   UNL     1      -5.464   5.071  25.145  0.00  0.00    +0.123 C 
ATOM     18  C   UNL     1      -2.235   3.063  26.281  0.00  0.00    +0.049 C 
ATOM     19  C   UNL     1      -5.939   4.084  24.085  0.00  0.00    +0.032 C 
ATOM     20  C   UNL     1      -4.261   1.444  24.602  0.00  0.00    +0.012 C 
ATOM     21  C   UNL     1      -1.206   2.230  24.095  0.00  0.00    +0.058 A 
ATOM     23  C   UNL     1      -3.877   5.614  27.005  0.00  0.00    +0.016 C 
ATOM     24  C   UNL     1      -1.147   2.473  25.451  0.00  0.00    +0.015 A 
ATOM     27  C   UNL     1       0.824   1.498  24.498  0.00  0.00    +0.165 A 
ATOM     29  C   UNL     1       2.697   0.514  23.204  0.00  0.00    +0.255 C 
ATOM     44  H   UNL     1       2.605   0.940  25.253  0.00  0.00    +0.157 HD
ENDROOT
BRANCH  29  31
ATOM      2  F   UNL     1       4.959   2.132  22.718  0.00  0.00    -0.205 F 
ATOM      3  F   UNL     1       3.291  -2.121  24.019  0.00  0.00    -0.205 F 
ATOM     31  C   UNL     1       4.090   0.018  23.364  0.00  0.00    +0.107 A 
ATOM     34  C   UNL     1       5.167   0.866  23.109  0.00  0.00    +0.138 A 
ATOM     35  C   UNL     1       4.318  -1.297  23.770  0.00  0.00    +0.138 A 
ATOM     37  C   UNL     1       6.473   0.401  23.259  0.00  0.00    +0.039 A 
ATOM     38  C   UNL     1       5.625  -1.762  23.921  0.00  0.00    +0.039 A 
ATOM     40  C   UNL     1       6.701  -0.914  23.665  0.00  0.00    +0.006 A 
ENDBRANCH  29  31
BRANCH  17   4
ATOM      4  O   UNL     1      -6.604   5.598  25.825  0.00  0.00    -0.391 OA
ATOM     41  H   UNL     1      -7.353   5.574  25.206  0.00  0.00    +0.210 HD
ENDBRANCH  17   4
BRANCH  14  22
ATOM     22  C   UNL     1      -5.191   3.530  27.161  0.00  0.00    +0.165 C 
BRANCH  22   5
ATOM      5  O   UNL     1      -6.249   2.896  26.477  0.00  0.00    -0.394 OA
ATOM     42  H   UNL     1      -6.986   3.528  26.434  0.00  0.00    +0.209 HD
ENDBRANCH  22   5
ENDBRANCH  14  22
BRANCH  15  25
ATOM     25  C   UNL     1      -2.590   1.576  22.100  0.00  0.00    +0.106 C 
BRANCH  25  26
ATOM      6  O   UNL     1      -3.616  -0.526  22.720  0.00  0.00    -0.276 OA
ATOM      9  N   UNL     1      -1.311  -0.280  22.891  0.00  0.00    -0.311 N 
ATOM     26  C   UNL     1      -2.597   0.149  22.596  0.00  0.00    +0.214 C 
ATOM     43  H   UNL     1      -0.531   0.355  22.747  0.00  0.00    +0.149 HD
BRANCH   9  28
ATOM     28  C   UNL     1      -1.016  -1.604  23.389  0.00  0.00    +0.141 C 
BRANCH  28  30
ATOM     11  N   UNL     1      -3.462  -3.420  25.628  0.00  0.00    -0.263 NA
ATOM     30  C   UNL     1      -1.847  -1.951  24.589  0.00  0.00    -0.012 A 
ATOM     32  C   UNL     1      -1.800  -1.176  25.743  0.00  0.00    +0.008 A 
ATOM     33  C   UNL     1      -2.687  -3.053  24.583  0.00  0.00    +0.115 A 
ATOM     36  C   UNL     1      -2.583  -1.521  26.839  0.00  0.00    +0.020 A 
ATOM     39  C   UNL     1      -3.390  -2.643  26.732  0.00  0.00    +0.111 A 
ENDBRANCH  28  30
ENDBRANCH   9  28
ENDBRANCH  25  26
ENDBRANCH  15  25
TORSDOF 8
ENDMDL
MODEL 2
REMARK VINA RESULT:      18.5      2.553      4.059
REMARK  Name = 11879507
REMARK  10 active torsions:
REMARK  status: ('A' for Active; 'I' for Inactive)
REMARK    1  A    between atoms: O_4  and  C_17
REMARK    2  A    between atoms: O_5  and  C_22
REMARK    3  A    between atoms: N_9  and  C_28
REMARK    4  A    between atoms: C_12  and  C_20
REMARK    5  A    between atoms: C_14  and  C_22
REMARK    6  A    between atoms: C_14  and  C_23
REMARK    7  A    between atoms: C_15  and  C_25
REMARK    8  A    between atoms: C_25  and  C_26
REMARK    9  A    between atoms: C_28  and  C_30
REMARK   10  A    between atoms: C_29  and  C_31
REMARK                            x       y       z     vdW  Elec       q    Type
REMARK                         _______ _______ _______ _____ _____    ______ ____
ROOT
ATOM      1  S   UNL     1      -0.928  -0.964  24.239  0.00  0.00    -0.057 S 
ATOM      7  O   UNL     1       2.833   1.747  23.803  0.00  0.00    -0.270 OA
ATOM      8  N   UNL     1      -0.069   1.475  24.316  0.00  0.00    -0.229 NA
ATOM     10  N   UNL     1       1.561  -0.237  23.844  0.00  0.00    -0.261 N 
ATOM     12  C   UNL     1      -3.731   2.618  24.701  0.00  0.00    -0.019 C 
ATOM     13  C   UNL     1      -4.146   1.288  25.474  0.00  0.00    +0.011 C 
ATOM     14  C   UNL     1      -5.675   1.111  25.820  0.00  0.00    +0.021 C 
ATOM     15  C   UNL     1      -2.150   2.798  24.846  0.00  0.00    +0.054 C 
ATOM     16  C   UNL     1      -4.425   3.837  25.362  0.00  0.00    +0.010 C 
ATOM     17  C   UNL     1      -6.220   2.434  26.428  0.00  0.00    +0.123 C 
ATOM     18  C   UNL     1      -3.498   0.029  24.829  0.00  0.00    +0.049 C 
ATOM     19  C   UNL     1      -5.922   3.657  25.568  0.00  0.00    +0.032 C 
ATOM     20  C   UNL     1      -4.110   2.582  23.199  0.00  0.00    +0.012 C 
ATOM     21  C   UNL     1      -1.428   1.505  24.562  0.00  0.00    +0.058 A 
ATOM     23  C   UNL     1      -5.823   0.008  26.907  0.00  0.00    +0.016 C 
ATOM     24  C   UNL     1      -2.049   0.273  24.578  0.00  0.00    +0.015 A 
ATOM     27  C   UNL     1       0.304   0.229  24.124  0.00  0.00    +0.165 A 
ATOM     29  C   UNL     1       2.729   0.530  23.702  0.00  0.00    +0.255 C 
ATOM     44  H   UNL     1       1.621  -1.248  23.753  0.00  0.00    +0.157 HD
ENDROOT
BRANCH  29  31
ATOM      2  F   UNL     1       4.972   1.650  22.406  0.00  0.00    -0.205 F 
ATOM      3  F   UNL     1       3.027  -2.179  24.434  0.00  0.00    -0.205 F 
ATOM     31  C   UNL     1       3.968  -0.245  23.427  0.00  0.00    +0.107 A 
ATOM     34  C   UNL     1       5.044   0.365  22.782  0.00  0.00    +0.138 A 
ATOM     35  C   UNL     1       4.054  -1.582  23.814  0.00  0.00    +0.138 A 
ATOM     37  C   UNL     1       6.206  -0.361  22.525  0.00  0.00    +0.039 A 
ATOM     38  C   UNL     1       5.217  -2.309  23.557  0.00  0.00    +0.039 A 
ATOM     40  C   UNL     1       6.292  -1.699  22.912  0.00  0.00    +0.006 A 
ENDBRANCH  29  31
BRANCH  17   4
ATOM      4  O   UNL     1      -7.630   2.350  26.633  0.00  0.00    -0.391 OA
ATOM     41  H   UNL     1      -7.835   2.810  27.464  0.00  0.00    +0.210 HD
ENDBRANCH  17   4
BRANCH  14  22
ATOM     22  C   UNL     1      -6.550   0.646  24.636  0.00  0.00    +0.165 C 
BRANCH  22   5
ATOM      5  O   UNL     1      -7.413   1.707  24.295  0.00  0.00    -0.394 OA
ATOM     42  H   UNL     1      -7.996   1.864  25.058  0.00  0.00    +0.209 HD
ENDBRANCH  22   5
ENDBRANCH  14  22
BRANCH  15  25
ATOM     25  C   UNL     1      -1.564   3.959  24.031  0.00  0.00    +0.106 C 
BRANCH  25  26
ATOM      6  O   UNL     1      -0.125   5.817  24.612  0.00  0.00    -0.276 OA
ATOM      9  N   UNL     1       0.254   3.730  25.565  0.00  0.00    -0.311 N 
ATOM     26  C   UNL     1      -0.415   4.631  24.749  0.00  0.00    +0.214 C 
ATOM     43  H   UNL     1      -0.070   2.769  25.613  0.00  0.00    +0.149 HD
BRANCH   9  28
ATOM     28  C   UNL     1       1.398   4.095  26.369  0.00  0.00    +0.141 C 
BRANCH  28  30
ATOM     11  N   UNL     1       2.731   2.603  29.577  0.00  0.00    -0.263 NA
ATOM     30  C   UNL     1       1.459   3.310  27.647  0.00  0.00    -0.012 A 
ATOM     32  C   UNL     1       0.362   2.582  28.095  0.00  0.00    +0.008 A 
ATOM     33  C   UNL     1       2.610   3.289  28.419  0.00  0.00    +0.115 A 
ATOM     36  C   UNL     1       0.448   1.863  29.283  0.00  0.00    +0.020 A 
ATOM     39  C   UNL     1       1.645   1.907  29.980  0.00  0.00    +0.111 A 
ENDBRANCH  28  30
ENDBRANCH   9  28
ENDBRANCH  25  26
ENDBRANCH  15  25
TORSDOF 8
ENDMDL
