MODEL 1
REMARK VINA RESULT:      -1.1      0.000      0.000
REMARK  Name = 45783684
REMARK  6 active torsions:
REMARK  status: ('A' for Active; 'I' for Inactive)
REMARK    1  A    between atoms: O_3  and  C_26
REMARK    2  A    between atoms: O_3  and  C_27
REMARK    3  A    between atoms: N_4  and  C_9
REMARK    4  A    between atoms: C_10  and  C_18
REMARK    5  A    between atoms: C_19  and  C_20
REMARK    6  A    between atoms: C_21  and  C_22
REMARK                            x       y       z     vdW  Elec       q    Type
REMARK                         _______ _______ _______ _____ _____    ______ ____
ROOT
ATOM      4  N   UNL     1      -3.219  -0.696  23.665  0.00  0.00    -0.288 NA
ATOM     10  C   UNL     1      -2.053  -1.014  24.512  0.00  0.00    +0.146 C 
ATOM     11  C   UNL     1      -4.294  -1.594  24.088  0.00  0.00    +0.085 C 
ATOM     12  C   UNL     1      -2.233  -2.497  24.886  0.00  0.00    +0.030 C 
ATOM     15  C   UNL     1      -3.557  -2.907  24.256  0.00  0.00    +0.017 C 
ENDROOT
BRANCH   4   9
ATOM      2  O   UNL     1      -1.798   5.061  25.296  0.00  0.00    -0.276 OA
ATOM      5  N   UNL     1      -3.317   3.352  24.879  0.00  0.00    -0.302 N 
ATOM      9  C   UNL     1      -3.617   0.709  23.736  0.00  0.00    +0.060 C 
ATOM     13  C   UNL     1      -2.429   1.610  23.377  0.00  0.00    +0.038 C 
ATOM     14  C   UNL     1      -4.134   1.039  25.142  0.00  0.00    +0.038 C 
ATOM     16  C   UNL     1      -2.795   3.085  23.537  0.00  0.00    +0.109 C 
ATOM     17  C   UNL     1      -4.467   2.526  25.268  0.00  0.00    +0.109 C 
ATOM     19  C   UNL     1      -2.743   4.354  25.659  0.00  0.00    +0.212 C 
ATOM     20  C   UNL     1      -3.334   4.565  27.031  0.00  0.00    +0.109 C 
ENDBRANCH   4   9
BRANCH  10  18
ATOM      1  O   UNL     1      -0.793  -0.534  22.474  0.00  0.00    -0.336 OA
ATOM      6  N   UNL     1       0.472  -0.678  24.317  0.00  0.00    -0.190 NA
ATOM      7  N   UNL     1       0.526  -0.308  22.060  0.00  0.00    -0.056 NA
ATOM     18  C   UNL     1      -0.736  -0.743  23.815  0.00  0.00    +0.245 A 
ATOM     21  C   UNL     1       1.212  -0.409  23.202  0.00  0.00    +0.204 A 
BRANCH  21  22
ATOM      8  N   UNL     1       4.797  -1.165  23.843  0.00  0.00    -0.221 NA
ATOM     22  C   UNL     1       2.635  -0.246  23.265  0.00  0.00    +0.041 A 
ATOM     23  C   UNL     1       3.242   0.929  22.837  0.00  0.00    +0.018 A 
ATOM     24  C   UNL     1       3.450  -1.255  23.756  0.00  0.00    +0.126 A 
ATOM     25  C   UNL     1       4.624   1.060  22.911  0.00  0.00    +0.068 A 
ATOM     26  C   UNL     1       5.350  -0.007  23.418  0.00  0.00    +0.214 A 
BRANCH  26   3
ATOM      3  O   UNL     1       6.714   0.097  23.500  0.00  0.00    -0.480 OA
ATOM     27  C   UNL     1       7.473  -0.815  22.716  0.00  0.00    +0.279 C 
ENDBRANCH  26   3
ENDBRANCH  21  22
ENDBRANCH  10  18
TORSDOF 4
ENDMDL
MODEL 2
REMARK VINA RESULT:      -0.3      1.645      4.094
REMARK  Name = 45783684
REMARK  6 active torsions:
REMARK  status: ('A' for Active; 'I' for Inactive)
REMARK    1  A    between atoms: O_3  and  C_26
REMARK    2  A    between atoms: O_3  and  C_27
REMARK    3  A    between atoms: N_4  and  C_9
REMARK    4  A    between atoms: C_10  and  C_18
REMARK    5  A    between atoms: C_19  and  C_20
REMARK    6  A    between atoms: C_21  and  C_22
REMARK                            x       y       z     vdW  Elec       q    Type
REMARK                         _______ _______ _______ _____ _____    ______ ____
ROOT
ATOM      4  N   UNL     1      -1.621   2.445  25.391  0.00  0.00    -0.288 NA
ATOM     10  C   UNL     1      -1.244   2.547  23.967  0.00  0.00    +0.146 C 
ATOM     11  C   UNL     1      -2.124   3.762  25.781  0.00  0.00    +0.085 C 
ATOM     12  C   UNL     1      -0.870   4.027  23.766  0.00  0.00    +0.030 C 
ATOM     15  C   UNL     1      -1.127   4.688  25.113  0.00  0.00    +0.017 C 
ENDROOT
BRANCH   4   9
ATOM      2  O   UNL     1      -3.221  -3.457  24.744  0.00  0.00    -0.276 OA
ATOM      5  N   UNL     1      -3.720  -1.205  25.025  0.00  0.00    -0.302 N 
ATOM      9  C   UNL     1      -2.592   1.386  25.655  0.00  0.00    +0.060 C 
ATOM     13  C   UNL     1      -1.866   0.084  26.014  0.00  0.00    +0.038 C 
ATOM     14  C   UNL     1      -3.491   1.177  24.429  0.00  0.00    +0.038 C 
ATOM     16  C   UNL     1      -2.859  -1.062  26.201  0.00  0.00    +0.109 C 
ATOM     17  C   UNL     1      -4.453   0.009  24.646  0.00  0.00    +0.109 C 
ATOM     19  C   UNL     1      -3.820  -2.440  24.386  0.00  0.00    +0.212 C 
ATOM     20  C   UNL     1      -4.724  -2.506  23.180  0.00  0.00    +0.109 C 
ENDBRANCH   4   9
BRANCH  10  18
ATOM      1  O   UNL     1      -0.446   0.565  22.780  0.00  0.00    -0.336 OA
ATOM      6  N   UNL     1       1.142   1.637  23.941  0.00  0.00    -0.190 NA
ATOM      7  N   UNL     1       0.738  -0.156  22.579  0.00  0.00    -0.056 NA
ATOM     18  C   UNL     1      -0.120   1.604  23.593  0.00  0.00    +0.245 A 
ATOM     21  C   UNL     1       1.628   0.538  23.295  0.00  0.00    +0.204 A 
BRANCH  21  22
ATOM      8  N   UNL     1       4.659  -1.550  23.829  0.00  0.00    -0.221 NA
ATOM     22  C   UNL     1       3.009   0.161  23.384  0.00  0.00    +0.041 A 
ATOM     23  C   UNL     1       4.021   1.080  23.131  0.00  0.00    +0.018 A 
ATOM     24  C   UNL     1       3.378  -1.131  23.727  0.00  0.00    +0.126 A 
ATOM     25  C   UNL     1       5.351   0.688  23.227  0.00  0.00    +0.068 A 
ATOM     26  C   UNL     1       5.615  -0.628  23.576  0.00  0.00    +0.214 A 
BRANCH  26   3
ATOM      3  O   UNL     1       6.918  -1.040  23.677  0.00  0.00    -0.480 OA
ATOM     27  C   UNL     1       7.855  -0.415  22.808  0.00  0.00    +0.279 C 
ENDBRANCH  26   3
ENDBRANCH  21  22
ENDBRANCH  10  18
TORSDOF 4
ENDMDL
MODEL 3
REMARK VINA RESULT:      -0.1      1.984      4.678
REMARK  Name = 45783684
REMARK  6 active torsions:
REMARK  status: ('A' for Active; 'I' for Inactive)
REMARK    1  A    between atoms: O_3  and  C_26
REMARK    2  A    between atoms: O_3  and  C_27
REMARK    3  A    between atoms: N_4  and  C_9
REMARK    4  A    between atoms: C_10  and  C_18
REMARK    5  A    between atoms: C_19  and  C_20
REMARK    6  A    between atoms: C_21  and  C_22
REMARK                            x       y       z     vdW  Elec       q    Type
REMARK                         _______ _______ _______ _____ _____    ______ ____
ROOT
ATOM      4  N   UNL     1      -4.369   1.757  25.380  0.00  0.00    -0.288 NA
ATOM     10  C   UNL     1      -3.871   2.319  24.109  0.00  0.00    +0.146 C 
ATOM     11  C   UNL     1      -5.674   2.374  25.621  0.00  0.00    +0.085 C 
ATOM     12  C   UNL     1      -4.519   3.713  24.016  0.00  0.00    +0.030 C 
ATOM     15  C   UNL     1      -5.411   3.818  25.245  0.00  0.00    +0.017 C 
ENDROOT
BRANCH   4   9
ATOM      2  O   UNL     1      -1.401  -3.628  25.257  0.00  0.00    -0.276 OA
ATOM      5  N   UNL     1      -3.244  -2.280  24.825  0.00  0.00    -0.302 N 
ATOM      9  C   UNL     1      -4.444   0.297  25.374  0.00  0.00    +0.060 C 
ATOM     13  C   UNL     1      -3.352  -0.289  26.276  0.00  0.00    +0.038 C 
ATOM     14  C   UNL     1      -4.298  -0.232  23.941  0.00  0.00    +0.038 C 
ATOM     16  C   UNL     1      -3.351  -1.816  26.210  0.00  0.00    +0.109 C 
ATOM     17  C   UNL     1      -4.278  -1.760  23.920  0.00  0.00    +0.109 C 
ATOM     19  C   UNL     1      -2.238  -3.177  24.470  0.00  0.00    +0.212 C 
ATOM     20  C   UNL     1      -2.193  -3.604  23.024  0.00  0.00    +0.109 C 
ENDBRANCH   4   9
BRANCH  10  18
ATOM      1  O   UNL     1      -1.775   3.509  24.514  0.00  0.00    -0.336 OA
ATOM      6  N   UNL     1      -1.511   1.475  23.613  0.00  0.00    -0.190 NA
ATOM      7  N   UNL     1      -0.395   3.327  24.359  0.00  0.00    -0.056 NA
ATOM     18  C   UNL     1      -2.358   2.373  24.051  0.00  0.00    +0.245 A 
ATOM     21  C   UNL     1      -0.319   2.106  23.823  0.00  0.00    +0.204 A 
BRANCH  21  22
ATOM      8  N   UNL     1       3.313   1.696  23.139  0.00  0.00    -0.221 NA
ATOM     22  C   UNL     1       0.929   1.485  23.487  0.00  0.00    +0.041 A 
ATOM     23  C   UNL     1       0.998   0.130  23.187  0.00  0.00    +0.018 A 
ATOM     24  C   UNL     1       2.105   2.219  23.449  0.00  0.00    +0.126 A 
ATOM     25  C   UNL     1       2.222  -0.444  22.863  0.00  0.00    +0.068 A 
ATOM     26  C   UNL     1       3.340   0.375  22.853  0.00  0.00    +0.214 A 
BRANCH  26   3
ATOM      3  O   UNL     1       4.559  -0.167  22.537  0.00  0.00    -0.480 OA
ATOM     27  C   UNL     1       5.557  -0.129  23.549  0.00  0.00    +0.279 C 
ENDBRANCH  26   3
ENDBRANCH  21  22
ENDBRANCH  10  18
TORSDOF 4
ENDMDL
