MODEL 1
REMARK VINA RESULT:      -6.8      0.000      0.000
REMARK  Name = 75536587
REMARK  10 active torsions:
REMARK  status: ('A' for Active; 'I' for Inactive)
REMARK    1  A    between atoms: O_2  and  C_9
REMARK    2  A    between atoms: O_4  and  C_18
REMARK    3  A    between atoms: O_4  and  C_23
REMARK    4  A    between atoms: N_5  and  C_8
REMARK    5  A    between atoms: N_5  and  C_13
REMARK    6  A    between atoms: N_6  and  C_12
REMARK    7  A    between atoms: C_10  and  C_12
REMARK    8  A    between atoms: C_13  and  C_14
REMARK    9  A    between atoms: C_15  and  C_18
REMARK   10  A    between atoms: C_19  and  C_22
REMARK                            x       y       z     vdW  Elec       q    Type
REMARK                         _______ _______ _______ _____ _____    ______ ____
ROOT
ATOM      1  O   UNL     1      -0.278   0.193  25.324  0.00  0.00    -0.371 OA
ATOM      8  C   UNL     1      -2.255  -1.084  25.647  0.00  0.00    +0.111 C 
ATOM      9  C   UNL     1      -1.727  -1.336  24.247  0.00  0.00    +0.164 C 
ATOM     10  C   UNL     1      -0.273  -0.908  24.401  0.00  0.00    +0.165 C 
ATOM     11  C   UNL     1      -1.542   0.208  26.010  0.00  0.00    +0.181 C 
ENDROOT
BRANCH   9   2
ATOM      2  O   UNL     1      -1.839  -2.690  23.856  0.00  0.00    -0.388 OA
ATOM     25  H   UNL     1      -1.422  -3.242  24.539  0.00  0.00    +0.210 HD
ENDBRANCH   9   2
BRANCH   8   5
ATOM      5  N   UNL     1      -3.702  -0.972  25.714  0.00  0.00    -0.305 NA
ATOM     24  H   UNL     1      -3.960  -0.497  26.578  0.00  0.00    +0.123 HD
BRANCH   5  13
ATOM     13  C   UNL     1      -4.222  -0.211  24.583  0.00  0.00    +0.116 C 
BRANCH  13  14
ATOM     14  C   UNL     1      -4.402   1.244  24.921  0.00  0.00    -0.032 A 
ATOM     16  C   UNL     1      -3.310   2.112  24.875  0.00  0.00    +0.023 A 
ATOM     17  C   UNL     1      -5.661   1.727  25.278  0.00  0.00    +0.005 A 
ATOM     19  C   UNL     1      -3.477   3.461  25.187  0.00  0.00    +0.052 A 
ATOM     20  C   UNL     1      -5.829   3.076  25.589  0.00  0.00    +0.002 A 
ATOM     21  C   UNL     1      -4.737   3.943  25.544  0.00  0.00    +0.019 A 
BRANCH  19  22
ATOM      7  N   UNL     1      -1.452   5.071  25.100  0.00  0.00    -0.191 NA
ATOM     22  C   UNL     1      -2.360   4.350  25.139  0.00  0.00    +0.099 C 
ENDBRANCH  19  22
ENDBRANCH  13  14
ENDBRANCH   5  13
ENDBRANCH   8   5
BRANCH  10  12
ATOM     12  C   UNL     1       0.367  -0.479  23.092  0.00  0.00    +0.138 C 
BRANCH  12   6
ATOM      3  O   UNL     1       2.544  -0.186  21.211  0.00  0.00    -0.273 OA
ATOM      6  N   UNL     1       1.623   0.177  23.317  0.00  0.00    -0.311 N 
ATOM     15  C   UNL     1       2.618   0.271  22.349  0.00  0.00    +0.239 C 
ATOM     26  H   UNL     1       1.789   0.581  24.234  0.00  0.00    +0.149 HD
BRANCH  15  18
ATOM     18  C   UNL     1       3.835   1.017  22.855  0.00  0.00    +0.255 C 
BRANCH  18   4
ATOM      4  O   UNL     1       4.991   0.214  22.749  0.00  0.00    -0.374 OA
ATOM     23  C   UNL     1       5.422  -0.267  24.021  0.00  0.00    +0.194 C 
ENDBRANCH  18   4
ENDBRANCH  15  18
ENDBRANCH  12   6
ENDBRANCH  10  12
TORSDOF 9
ENDMDL
MODEL 2
REMARK VINA RESULT:      -6.5      2.989      6.462
REMARK  Name = 75536587
REMARK  10 active torsions:
REMARK  status: ('A' for Active; 'I' for Inactive)
REMARK    1  A    between atoms: O_2  and  C_9
REMARK    2  A    between atoms: O_4  and  C_18
REMARK    3  A    between atoms: O_4  and  C_23
REMARK    4  A    between atoms: N_5  and  C_8
REMARK    5  A    between atoms: N_5  and  C_13
REMARK    6  A    between atoms: N_6  and  C_12
REMARK    7  A    between atoms: C_10  and  C_12
REMARK    8  A    between atoms: C_13  and  C_14
REMARK    9  A    between atoms: C_15  and  C_18
REMARK   10  A    between atoms: C_19  and  C_22
REMARK                            x       y       z     vdW  Elec       q    Type
REMARK                         _______ _______ _______ _____ _____    ______ ____
ROOT
ATOM      1  O   UNL     1      -4.284   3.764  26.341  0.00  0.00    -0.371 OA
ATOM      8  C   UNL     1      -2.462   4.157  24.869  0.00  0.00    +0.111 C 
ATOM      9  C   UNL     1      -3.309   3.028  24.315  0.00  0.00    +0.164 C 
ATOM     10  C   UNL     1      -4.629   3.271  25.036  0.00  0.00    +0.165 C 
ATOM     11  C   UNL     1      -2.909   4.186  26.321  0.00  0.00    +0.181 C 
ENDROOT
BRANCH   9   2
ATOM      2  O   UNL     1      -3.457   3.093  22.910  0.00  0.00    -0.388 OA
ATOM     25  H   UNL     1      -3.617   2.194  22.577  0.00  0.00    +0.210 HD
ENDBRANCH   9   2
BRANCH   8   5
ATOM      5  N   UNL     1      -1.032   3.941  24.720  0.00  0.00    -0.305 NA
ATOM     24  H   UNL     1      -0.548   4.832  24.820  0.00  0.00    +0.123 HD
BRANCH   5  13
ATOM     13  C   UNL     1      -0.533   3.016  25.732  0.00  0.00    +0.116 C 
BRANCH  13  14
ATOM     14  C   UNL     1      -0.361   1.625  25.185  0.00  0.00    -0.032 A 
ATOM     16  C   UNL     1       0.422   1.411  24.050  0.00  0.00    +0.023 A 
ATOM     17  C   UNL     1      -0.983   0.546  25.816  0.00  0.00    +0.005 A 
ATOM     19  C   UNL     1       0.582   0.121  23.545  0.00  0.00    +0.052 A 
ATOM     20  C   UNL     1      -0.822  -0.744  25.311  0.00  0.00    +0.002 A 
ATOM     21  C   UNL     1      -0.040  -0.956  24.176  0.00  0.00    +0.019 A 
BRANCH  19  22
ATOM      7  N   UNL     1       2.034  -0.274  21.438  0.00  0.00    -0.191 NA
ATOM     22  C   UNL     1       1.384  -0.097  22.383  0.00  0.00    +0.099 C 
ENDBRANCH  19  22
ENDBRANCH  13  14
ENDBRANCH   5  13
ENDBRANCH   8   5
BRANCH  10  12
ATOM     12  C   UNL     1      -5.480   2.020  25.167  0.00  0.00    +0.138 C 
BRANCH  12   6
ATOM      3  O   UNL     1      -4.202  -0.451  25.958  0.00  0.00    -0.273 OA
ATOM      6  N   UNL     1      -5.007   0.975  24.305  0.00  0.00    -0.311 N 
ATOM     15  C   UNL     1      -4.401  -0.186  24.775  0.00  0.00    +0.239 C 
ATOM     26  H   UNL     1      -5.115   1.102  23.303  0.00  0.00    +0.149 HD
BRANCH  15  18
ATOM     18  C   UNL     1      -4.003  -1.116  23.649  0.00  0.00    +0.255 C 
BRANCH  18   4
ATOM      4  O   UNL     1      -4.410  -2.439  23.928  0.00  0.00    -0.374 OA
ATOM     23  C   UNL     1      -3.351  -3.213  24.488  0.00  0.00    +0.194 C 
ENDBRANCH  18   4
ENDBRANCH  15  18
ENDBRANCH  12   6
ENDBRANCH  10  12
TORSDOF 9
ENDMDL
MODEL 3
REMARK VINA RESULT:      -6.2      2.124      4.085
REMARK  Name = 75536587
REMARK  10 active torsions:
REMARK  status: ('A' for Active; 'I' for Inactive)
REMARK    1  A    between atoms: O_2  and  C_9
REMARK    2  A    between atoms: O_4  and  C_18
REMARK    3  A    between atoms: O_4  and  C_23
REMARK    4  A    between atoms: N_5  and  C_8
REMARK    5  A    between atoms: N_5  and  C_13
REMARK    6  A    between atoms: N_6  and  C_12
REMARK    7  A    between atoms: C_10  and  C_12
REMARK    8  A    between atoms: C_13  and  C_14
REMARK    9  A    between atoms: C_15  and  C_18
REMARK   10  A    between atoms: C_19  and  C_22
REMARK                            x       y       z     vdW  Elec       q    Type
REMARK                         _______ _______ _______ _____ _____    ______ ____
ROOT
ATOM      1  O   UNL     1      -1.169   1.985  22.902  0.00  0.00    -0.371 OA
ATOM      8  C   UNL     1      -3.206   2.797  23.814  0.00  0.00    +0.111 C 
ATOM      9  C   UNL     1      -2.190   2.648  24.931  0.00  0.00    +0.164 C 
ATOM     10  C   UNL     1      -0.887   2.653  24.143  0.00  0.00    +0.165 C 
ATOM     11  C   UNL     1      -2.596   1.923  22.731  0.00  0.00    +0.181 C 
ENDROOT
BRANCH   9   2
ATOM      2  O   UNL     1      -2.245   3.707  25.866  0.00  0.00    -0.388 OA
ATOM     25  H   UNL     1      -2.988   3.543  26.471  0.00  0.00    +0.210 HD
ENDBRANCH   9   2
BRANCH   8   5
ATOM      5  N   UNL     1      -4.548   2.383  24.188  0.00  0.00    -0.305 NA
ATOM     24  H   UNL     1      -4.983   1.908  23.397  0.00  0.00    +0.123 HD
BRANCH   5  13
ATOM     13  C   UNL     1      -4.519   1.474  25.327  0.00  0.00    +0.116 C 
BRANCH  13  14
ATOM     14  C   UNL     1      -4.022   0.106  24.942  0.00  0.00    -0.032 A 
ATOM     16  C   UNL     1      -2.757  -0.318  25.350  0.00  0.00    +0.023 A 
ATOM     17  C   UNL     1      -4.828  -0.739  24.179  0.00  0.00    +0.005 A 
ATOM     19  C   UNL     1      -2.297  -1.586  24.994  0.00  0.00    +0.052 A 
ATOM     20  C   UNL     1      -4.369  -2.007  23.823  0.00  0.00    +0.002 A 
ATOM     21  C   UNL     1      -3.104  -2.430  24.230  0.00  0.00    +0.019 A 
BRANCH  19  22
ATOM      7  N   UNL     1       0.050  -2.374  25.750  0.00  0.00    -0.191 NA
ATOM     22  C   UNL     1      -1.002  -2.020  25.411  0.00  0.00    +0.099 C 
ENDBRANCH  19  22
ENDBRANCH  13  14
ENDBRANCH   5  13
ENDBRANCH   8   5
BRANCH  10  12
ATOM     12  C   UNL     1       0.251   1.946  24.860  0.00  0.00    +0.138 C 
BRANCH  12   6
ATOM      3  O   UNL     1       0.647  -0.458  23.302  0.00  0.00    -0.273 OA
ATOM      6  N   UNL     1       1.336   1.663  23.965  0.00  0.00    -0.311 N 
ATOM     15  C   UNL     1       1.446   0.474  23.252  0.00  0.00    +0.239 C 
ATOM     26  H   UNL     1       2.060   2.368  23.861  0.00  0.00    +0.149 HD
BRANCH  15  18
ATOM     18  C   UNL     1       2.686   0.444  22.383  0.00  0.00    +0.255 C 
BRANCH  18   4
ATOM      4  O   UNL     1       3.734   1.172  22.986  0.00  0.00    -0.374 OA
ATOM     23  C   UNL     1       4.886   0.361  23.205  0.00  0.00    +0.194 C 
ENDBRANCH  18   4
ENDBRANCH  15  18
ENDBRANCH  12   6
ENDBRANCH  10  12
TORSDOF 9
ENDMDL
MODEL 4
REMARK VINA RESULT:      -6.1      1.779      3.550
REMARK  Name = 75536587
REMARK  10 active torsions:
REMARK  status: ('A' for Active; 'I' for Inactive)
REMARK    1  A    between atoms: O_2  and  C_9
REMARK    2  A    between atoms: O_4  and  C_18
REMARK    3  A    between atoms: O_4  and  C_23
REMARK    4  A    between atoms: N_5  and  C_8
REMARK    5  A    between atoms: N_5  and  C_13
REMARK    6  A    between atoms: N_6  and  C_12
REMARK    7  A    between atoms: C_10  and  C_12
REMARK    8  A    between atoms: C_13  and  C_14
REMARK    9  A    between atoms: C_15  and  C_18
REMARK   10  A    between atoms: C_19  and  C_22
REMARK                            x       y       z     vdW  Elec       q    Type
REMARK                         _______ _______ _______ _____ _____    ______ ____
ROOT
ATOM      1  O   UNL     1       0.152   3.606  23.686  0.00  0.00    -0.371 OA
ATOM      8  C   UNL     1      -1.048   3.905  25.714  0.00  0.00    +0.111 C 
ATOM      9  C   UNL     1      -0.609   2.456  25.608  0.00  0.00    +0.164 C 
ATOM     10  C   UNL     1       0.532   2.568  24.604  0.00  0.00    +0.165 C 
ATOM     11  C   UNL     1      -0.921   4.365  24.271  0.00  0.00    +0.181 C 
ENDROOT
BRANCH   9   2
ATOM      2  O   UNL     1      -0.173   1.925  26.843  0.00  0.00    -0.388 OA
ATOM     25  H   UNL     1       0.078   2.663  27.423  0.00  0.00    +0.210 HD
ENDBRANCH   9   2
BRANCH   8   5
ATOM      5  N   UNL     1      -2.390   4.070  26.246  0.00  0.00    -0.305 NA
ATOM     24  H   UNL     1      -2.427   4.927  26.797  0.00  0.00    +0.123 HD
BRANCH   5  13
ATOM     13  C   UNL     1      -3.373   4.156  25.172  0.00  0.00    +0.116 C 
BRANCH  13  14
ATOM     14  C   UNL     1      -4.286   2.959  25.149  0.00  0.00    -0.032 A 
ATOM     16  C   UNL     1      -3.798   1.716  24.742  0.00  0.00    +0.023 A 
ATOM     17  C   UNL     1      -5.619   3.091  25.538  0.00  0.00    +0.005 A 
ATOM     19  C   UNL     1      -4.644   0.607  24.723  0.00  0.00    +0.052 A 
ATOM     20  C   UNL     1      -6.464   1.982  25.520  0.00  0.00    +0.002 A 
ATOM     21  C   UNL     1      -5.977   0.741  25.111  0.00  0.00    +0.019 A 
BRANCH  19  22
ATOM      7  N   UNL     1      -3.740  -1.698  23.968  0.00  0.00    -0.191 NA
ATOM     22  C   UNL     1      -4.145  -0.665  24.306  0.00  0.00    +0.099 C 
ENDBRANCH  19  22
ENDBRANCH  13  14
ENDBRANCH   5  13
ENDBRANCH   8   5
BRANCH  10  12
ATOM     12  C   UNL     1       0.791   1.279  23.844  0.00  0.00    +0.138 C 
BRANCH  12   6
ATOM      3  O   UNL     1       1.890  -0.328  21.705  0.00  0.00    -0.273 OA
ATOM      6  N   UNL     1       2.171   1.165  23.468  0.00  0.00    -0.311 N 
ATOM     15  C   UNL     1       2.612   0.363  22.420  0.00  0.00    +0.239 C 
ATOM     26  H   UNL     1       2.854   1.691  24.006  0.00  0.00    +0.149 HD
BRANCH  15  18
ATOM     18  C   UNL     1       4.114   0.433  22.242  0.00  0.00    +0.255 C 
BRANCH  18   4
ATOM      4  O   UNL     1       4.743   0.787  23.455  0.00  0.00    -0.374 OA
ATOM     23  C   UNL     1       5.442  -0.315  24.030  0.00  0.00    +0.194 C 
ENDBRANCH  18   4
ENDBRANCH  15  18
ENDBRANCH  12   6
ENDBRANCH  10  12
TORSDOF 9
ENDMDL
MODEL 5
REMARK VINA RESULT:      -6.1      2.323      5.040
REMARK  Name = 75536587
REMARK  10 active torsions:
REMARK  status: ('A' for Active; 'I' for Inactive)
REMARK    1  A    between atoms: O_2  and  C_9
REMARK    2  A    between atoms: O_4  and  C_18
REMARK    3  A    between atoms: O_4  and  C_23
REMARK    4  A    between atoms: N_5  and  C_8
REMARK    5  A    between atoms: N_5  and  C_13
REMARK    6  A    between atoms: N_6  and  C_12
REMARK    7  A    between atoms: C_10  and  C_12
REMARK    8  A    between atoms: C_13  and  C_14
REMARK    9  A    between atoms: C_15  and  C_18
REMARK   10  A    between atoms: C_19  and  C_22
REMARK                            x       y       z     vdW  Elec       q    Type
REMARK                         _______ _______ _______ _____ _____    ______ ____
ROOT
ATOM      1  O   UNL     1      -2.750   3.576  23.391  0.00  0.00    -0.371 OA
ATOM      8  C   UNL     1      -4.770   2.821  24.388  0.00  0.00    +0.111 C 
ATOM      9  C   UNL     1      -3.815   3.266  25.481  0.00  0.00    +0.164 C 
ATOM     10  C   UNL     1      -2.871   4.167  24.696  0.00  0.00    +0.165 C 
ATOM     11  C   UNL     1      -3.820   2.631  23.217  0.00  0.00    +0.181 C 
ENDROOT
BRANCH   9   2
ATOM      2  O   UNL     1      -4.465   3.965  26.524  0.00  0.00    -0.388 OA
ATOM     25  H   UNL     1      -4.267   4.912  26.428  0.00  0.00    +0.210 HD
ENDBRANCH   9   2
BRANCH   8   5
ATOM      5  N   UNL     1      -5.513   1.617  24.718  0.00  0.00    -0.305 NA
ATOM     24  H   UNL     1      -5.614   1.047  23.878  0.00  0.00    +0.123 HD
BRANCH   5  13
ATOM     13  C   UNL     1      -4.822   0.836  25.738  0.00  0.00    +0.116 C 
BRANCH  13  14
ATOM     14  C   UNL     1      -4.118  -0.357  25.151  0.00  0.00    -0.032 A 
ATOM     16  C   UNL     1      -2.791  -0.624  25.493  0.00  0.00    +0.023 A 
ATOM     17  C   UNL     1      -4.792  -1.199  24.266  0.00  0.00    +0.005 A 
ATOM     19  C   UNL     1      -2.140  -1.731  24.949  0.00  0.00    +0.052 A 
ATOM     20  C   UNL     1      -4.141  -2.307  23.723  0.00  0.00    +0.002 A 
ATOM     21  C   UNL     1      -2.815  -2.571  24.064  0.00  0.00    +0.019 A 
BRANCH  19  22
ATOM      7  N   UNL     1       0.321  -2.227  25.584  0.00  0.00    -0.191 NA
ATOM     22  C   UNL     1      -0.782  -2.004  25.299  0.00  0.00    +0.099 C 
ENDBRANCH  19  22
ENDBRANCH  13  14
ENDBRANCH   5  13
ENDBRANCH   8   5
BRANCH  10  12
ATOM     12  C   UNL     1      -1.497   4.295  25.331  0.00  0.00    +0.138 C 
BRANCH  12   6
ATOM      3  O   UNL     1      -0.556   1.666  26.087  0.00  0.00    -0.273 OA
ATOM      6  N   UNL     1      -0.528   3.491  24.643  0.00  0.00    -0.311 N 
ATOM     15  C   UNL     1      -0.133   2.231  25.081  0.00  0.00    +0.239 C 
ATOM     26  H   UNL     1      -0.106   3.874  23.801  0.00  0.00    +0.149 HD
BRANCH  15  18
ATOM     18  C   UNL     1       0.900   1.608  24.165  0.00  0.00    +0.255 C 
BRANCH  18   4
ATOM      4  O   UNL     1       0.338   0.538  23.436  0.00  0.00    -0.374 OA
ATOM     23  C   UNL     1       1.316  -0.143  22.653  0.00  0.00    +0.194 C 
ENDBRANCH  18   4
ENDBRANCH  15  18
ENDBRANCH  12   6
ENDBRANCH  10  12
TORSDOF 9
ENDMDL
MODEL 6
REMARK VINA RESULT:      -5.3      1.302      1.886
REMARK  Name = 75536587
REMARK  10 active torsions:
REMARK  status: ('A' for Active; 'I' for Inactive)
REMARK    1  A    between atoms: O_2  and  C_9
REMARK    2  A    between atoms: O_4  and  C_18
REMARK    3  A    between atoms: O_4  and  C_23
REMARK    4  A    between atoms: N_5  and  C_8
REMARK    5  A    between atoms: N_5  and  C_13
REMARK    6  A    between atoms: N_6  and  C_12
REMARK    7  A    between atoms: C_10  and  C_12
REMARK    8  A    between atoms: C_13  and  C_14
REMARK    9  A    between atoms: C_15  and  C_18
REMARK   10  A    between atoms: C_19  and  C_22
REMARK                            x       y       z     vdW  Elec       q    Type
REMARK                         _______ _______ _______ _____ _____    ______ ____
ROOT
ATOM      1  O   UNL     1      -2.123  -2.566  24.662  0.00  0.00    -0.371 OA
ATOM      8  C   UNL     1      -3.752  -1.045  23.842  0.00  0.00    +0.111 C 
ATOM      9  C   UNL     1      -2.448  -0.301  24.060  0.00  0.00    +0.164 C 
ATOM     10  C   UNL     1      -1.450  -1.452  24.052  0.00  0.00    +0.165 C 
ATOM     11  C   UNL     1      -3.534  -2.290  24.685  0.00  0.00    +0.181 C 
ENDROOT
BRANCH   9   2
ATOM      2  O   UNL     1      -2.176   0.638  23.039  0.00  0.00    -0.388 OA
ATOM     25  H   UNL     1      -2.470   1.514  23.342  0.00  0.00    +0.210 HD
ENDBRANCH   9   2
BRANCH   8   5
ATOM      5  N   UNL     1      -4.927  -0.289  24.240  0.00  0.00    -0.305 NA
ATOM     24  H   UNL     1      -5.731  -0.916  24.275  0.00  0.00    +0.123 HD
BRANCH   5  13
ATOM     13  C   UNL     1      -4.743   0.315  25.555  0.00  0.00    +0.116 C 
BRANCH  13  14
ATOM     14  C   UNL     1      -4.642   1.815  25.474  0.00  0.00    -0.032 A 
ATOM     16  C   UNL     1      -3.393   2.427  25.360  0.00  0.00    +0.023 A 
ATOM     17  C   UNL     1      -5.799   2.594  25.511  0.00  0.00    +0.005 A 
ATOM     19  C   UNL     1      -3.301   3.816  25.284  0.00  0.00    +0.052 A 
ATOM     20  C   UNL     1      -5.707   3.984  25.434  0.00  0.00    +0.002 A 
ATOM     21  C   UNL     1      -4.458   4.594  25.321  0.00  0.00    +0.019 A 
BRANCH  19  22
ATOM      7  N   UNL     1      -0.984   4.951  25.071  0.00  0.00    -0.191 NA
ATOM     22  C   UNL     1      -2.022   4.442  25.167  0.00  0.00    +0.099 C 
ENDBRANCH  19  22
ENDBRANCH  13  14
ENDBRANCH   5  13
ENDBRANCH   8   5
BRANCH  10  12
ATOM     12  C   UNL     1      -0.172  -1.144  24.813  0.00  0.00    +0.138 C 
BRANCH  12   6
ATOM      3  O   UNL     1       0.726   1.398  23.763  0.00  0.00    -0.273 OA
ATOM      6  N   UNL     1       0.926  -0.915  23.917  0.00  0.00    -0.311 N 
ATOM     15  C   UNL     1       1.288   0.348  23.461  0.00  0.00    +0.239 C 
ATOM     26  H   UNL     1       1.452  -1.724  23.597  0.00  0.00    +0.149 HD
BRANCH  15  18
ATOM     18  C   UNL     1       2.481   0.296  22.531  0.00  0.00    +0.255 C 
BRANCH  18   4
ATOM      4  O   UNL     1       3.525   1.115  23.013  0.00  0.00    -0.374 OA
ATOM     23  C   UNL     1       4.743   0.389  23.162  0.00  0.00    +0.194 C 
ENDBRANCH  18   4
ENDBRANCH  15  18
ENDBRANCH  12   6
ENDBRANCH  10  12
TORSDOF 9
ENDMDL
MODEL 7
REMARK VINA RESULT:      -5.3      3.169      6.639
REMARK  Name = 75536587
REMARK  10 active torsions:
REMARK  status: ('A' for Active; 'I' for Inactive)
REMARK    1  A    between atoms: O_2  and  C_9
REMARK    2  A    between atoms: O_4  and  C_18
REMARK    3  A    between atoms: O_4  and  C_23
REMARK    4  A    between atoms: N_5  and  C_8
REMARK    5  A    between atoms: N_5  and  C_13
REMARK    6  A    between atoms: N_6  and  C_12
REMARK    7  A    between atoms: C_10  and  C_12
REMARK    8  A    between atoms: C_13  and  C_14
REMARK    9  A    between atoms: C_15  and  C_18
REMARK   10  A    between atoms: C_19  and  C_22
REMARK                            x       y       z     vdW  Elec       q    Type
REMARK                         _______ _______ _______ _____ _____    ______ ____
ROOT
ATOM      1  O   UNL     1      -4.460   3.733  26.537  0.00  0.00    -0.371 OA
ATOM      8  C   UNL     1      -2.667   4.264  25.073  0.00  0.00    +0.111 C 
ATOM      9  C   UNL     1      -3.432   3.081  24.509  0.00  0.00    +0.164 C 
ATOM     10  C   UNL     1      -4.767   3.225  25.228  0.00  0.00    +0.165 C 
ATOM     11  C   UNL     1      -3.119   4.251  26.524  0.00  0.00    +0.181 C 
ENDROOT
BRANCH   9   2
ATOM      2  O   UNL     1      -3.581   3.145  23.104  0.00  0.00    -0.388 OA
ATOM     25  H   UNL     1      -4.228   2.473  22.833  0.00  0.00    +0.210 HD
ENDBRANCH   9   2
BRANCH   8   5
ATOM      5  N   UNL     1      -1.226   4.150  24.926  0.00  0.00    -0.305 NA
ATOM     24  H   UNL     1      -0.795   5.043  25.165  0.00  0.00    +0.123 HD
BRANCH   5  13
ATOM     13  C   UNL     1      -0.689   3.116  25.803  0.00  0.00    +0.116 C 
BRANCH  13  14
ATOM     14  C   UNL     1      -0.243   1.902  25.032  0.00  0.00    -0.032 A 
ATOM     16  C   UNL     1      -0.724   0.639  25.379  0.00  0.00    +0.023 A 
ATOM     17  C   UNL     1       0.649   2.041  23.968  0.00  0.00    +0.005 A 
ATOM     19  C   UNL     1      -0.312  -0.485  24.664  0.00  0.00    +0.052 A 
ATOM     20  C   UNL     1       1.060   0.917  23.252  0.00  0.00    +0.002 A 
ATOM     21  C   UNL     1       0.580  -0.345  23.600  0.00  0.00    +0.019 A 
BRANCH  19  22
ATOM      7  N   UNL     1      -1.203  -2.829  25.308  0.00  0.00    -0.191 NA
ATOM     22  C   UNL     1      -0.803  -1.778  25.019  0.00  0.00    +0.099 C 
ENDBRANCH  19  22
ENDBRANCH  13  14
ENDBRANCH   5  13
ENDBRANCH   8   5
BRANCH  10  12
ATOM     12  C   UNL     1      -5.528   1.916  25.349  0.00  0.00    +0.138 C 
BRANCH  12   6
ATOM      3  O   UNL     1      -3.997  -0.453  25.985  0.00  0.00    -0.273 OA
ATOM      6  N   UNL     1      -5.027   0.936  24.429  0.00  0.00    -0.311 N 
ATOM     15  C   UNL     1      -4.296  -0.179  24.826  0.00  0.00    +0.239 C 
ATOM     26  H   UNL     1      -5.211   1.077  23.440  0.00  0.00    +0.149 HD
BRANCH  15  18
ATOM     18  C   UNL     1      -3.897  -1.046  23.650  0.00  0.00    +0.255 C 
BRANCH  18   4
ATOM      4  O   UNL     1      -4.663  -2.230  23.622  0.00  0.00    -0.374 OA
ATOM     23  C   UNL     1      -3.942  -3.342  24.148  0.00  0.00    +0.194 C 
ENDBRANCH  18   4
ENDBRANCH  15  18
ENDBRANCH  12   6
ENDBRANCH  10  12
TORSDOF 9
ENDMDL
MODEL 8
REMARK VINA RESULT:      -4.9      2.001      3.036
REMARK  Name = 75536587
REMARK  10 active torsions:
REMARK  status: ('A' for Active; 'I' for Inactive)
REMARK    1  A    between atoms: O_2  and  C_9
REMARK    2  A    between atoms: O_4  and  C_18
REMARK    3  A    between atoms: O_4  and  C_23
REMARK    4  A    between atoms: N_5  and  C_8
REMARK    5  A    between atoms: N_5  and  C_13
REMARK    6  A    between atoms: N_6  and  C_12
REMARK    7  A    between atoms: C_10  and  C_12
REMARK    8  A    between atoms: C_13  and  C_14
REMARK    9  A    between atoms: C_15  and  C_18
REMARK   10  A    between atoms: C_19  and  C_22
REMARK                            x       y       z     vdW  Elec       q    Type
REMARK                         _______ _______ _______ _____ _____    ______ ____
ROOT
ATOM      1  O   UNL     1      -3.192  -0.951  25.535  0.00  0.00    -0.371 OA
ATOM      8  C   UNL     1      -4.285   0.695  24.215  0.00  0.00    +0.111 C 
ATOM      9  C   UNL     1      -2.784   0.869  24.080  0.00  0.00    +0.164 C 
ATOM     10  C   UNL     1      -2.289  -0.505  24.509  0.00  0.00    +0.165 C 
ATOM     11  C   UNL     1      -4.378  -0.139  25.483  0.00  0.00    +0.181 C 
ENDROOT
BRANCH   9   2
ATOM      2  O   UNL     1      -2.388   1.184  22.759  0.00  0.00    -0.388 OA
ATOM     25  H   UNL     1      -3.184   1.383  22.239  0.00  0.00    +0.210 HD
ENDBRANCH   9   2
BRANCH   8   5
ATOM      5  N   UNL     1      -5.012   1.949  24.307  0.00  0.00    -0.305 NA
ATOM     24  H   UNL     1      -6.013   1.755  24.323  0.00  0.00    +0.123 HD
BRANCH   5  13
ATOM     13  C   UNL     1      -4.654   2.677  25.519  0.00  0.00    +0.116 C 
BRANCH  13  14
ATOM     14  C   UNL     1      -3.317   3.356  25.392  0.00  0.00    -0.032 A 
ATOM     16  C   UNL     1      -2.206   2.844  26.065  0.00  0.00    +0.023 A 
ATOM     17  C   UNL     1      -3.187   4.496  24.599  0.00  0.00    +0.005 A 
ATOM     19  C   UNL     1      -0.967   3.473  25.945  0.00  0.00    +0.052 A 
ATOM     20  C   UNL     1      -1.947   5.125  24.479  0.00  0.00    +0.002 A 
ATOM     21  C   UNL     1      -0.838   4.613  25.152  0.00  0.00    +0.019 A 
BRANCH  19  22
ATOM      7  N   UNL     1       1.094   2.523  27.191  0.00  0.00    -0.191 NA
ATOM     22  C   UNL     1       0.170   2.949  26.633  0.00  0.00    +0.099 C 
ENDBRANCH  19  22
ENDBRANCH  13  14
ENDBRANCH   5  13
ENDBRANCH   8   5
BRANCH  10  12
ATOM     12  C   UNL     1      -0.868  -0.491  25.046  0.00  0.00    +0.138 C 
BRANCH  12   6
ATOM      3  O   UNL     1       0.743   1.534  23.753  0.00  0.00    -0.273 OA
ATOM      6  N   UNL     1       0.088  -0.686  23.994  0.00  0.00    -0.311 N 
ATOM     15  C   UNL     1       0.822   0.351  23.429  0.00  0.00    +0.239 C 
ATOM     26  H   UNL     1       0.221  -1.631  23.645  0.00  0.00    +0.149 HD
BRANCH  15  18
ATOM     18  C   UNL     1       1.757  -0.139  22.343  0.00  0.00    +0.255 C 
BRANCH  18   4
ATOM      4  O   UNL     1       3.067  -0.293  22.846  0.00  0.00    -0.374 OA
ATOM     23  C   UNL     1       3.861   0.870  22.622  0.00  0.00    +0.194 C 
ENDBRANCH  18   4
ENDBRANCH  15  18
ENDBRANCH  12   6
ENDBRANCH  10  12
TORSDOF 9
ENDMDL
MODEL 9
REMARK VINA RESULT:      -4.9      2.332      4.694
REMARK  Name = 75536587
REMARK  10 active torsions:
REMARK  status: ('A' for Active; 'I' for Inactive)
REMARK    1  A    between atoms: O_2  and  C_9
REMARK    2  A    between atoms: O_4  and  C_18
REMARK    3  A    between atoms: O_4  and  C_23
REMARK    4  A    between atoms: N_5  and  C_8
REMARK    5  A    between atoms: N_5  and  C_13
REMARK    6  A    between atoms: N_6  and  C_12
REMARK    7  A    between atoms: C_10  and  C_12
REMARK    8  A    between atoms: C_13  and  C_14
REMARK    9  A    between atoms: C_15  and  C_18
REMARK   10  A    between atoms: C_19  and  C_22
REMARK                            x       y       z     vdW  Elec       q    Type
REMARK                         _______ _______ _______ _____ _____    ______ ____
ROOT
ATOM      1  O   UNL     1       0.142   3.372  23.483  0.00  0.00    -0.371 OA
ATOM      8  C   UNL     1      -0.941   4.041  25.489  0.00  0.00    +0.111 C 
ATOM      9  C   UNL     1      -0.527   2.586  25.612  0.00  0.00    +0.164 C 
ATOM     10  C   UNL     1       0.557   2.499  24.546  0.00  0.00    +0.165 C 
ATOM     11  C   UNL     1      -0.887   4.243  23.984  0.00  0.00    +0.181 C 
ENDROOT
BRANCH   9   2
ATOM      2  O   UNL     1      -0.031   2.265  26.896  0.00  0.00    -0.388 OA
ATOM     25  H   UNL     1      -0.382   2.912  27.531  0.00  0.00    +0.210 HD
ENDBRANCH   9   2
BRANCH   8   5
ATOM      5  N   UNL     1      -2.250   4.324  26.053  0.00  0.00    -0.305 NA
ATOM     24  H   UNL     1      -2.223   5.232  26.517  0.00  0.00    +0.123 HD
BRANCH   5  13
ATOM     13  C   UNL     1      -3.274   4.354  25.016  0.00  0.00    +0.116 C 
BRANCH  13  14
ATOM     14  C   UNL     1      -4.206   3.176  25.113  0.00  0.00    -0.032 A 
ATOM     16  C   UNL     1      -3.856   1.957  24.530  0.00  0.00    +0.023 A 
ATOM     17  C   UNL     1      -5.420   3.301  25.790  0.00  0.00    +0.005 A 
ATOM     19  C   UNL     1      -4.719   0.866  24.622  0.00  0.00    +0.052 A 
ATOM     20  C   UNL     1      -6.282   2.209  25.883  0.00  0.00    +0.002 A 
ATOM     21  C   UNL     1      -5.932   0.992  25.299  0.00  0.00    +0.019 A 
BRANCH  19  22
ATOM      7  N   UNL     1      -4.070  -1.395  23.541  0.00  0.00    -0.191 NA
ATOM     22  C   UNL     1      -4.361  -0.382  24.025  0.00  0.00    +0.099 C 
ENDBRANCH  19  22
ENDBRANCH  13  14
ENDBRANCH   5  13
ENDBRANCH   8   5
BRANCH  10  12
ATOM     12  C   UNL     1       0.758   1.093  24.008  0.00  0.00    +0.138 C 
BRANCH  12   6
ATOM      3  O   UNL     1      -0.533  -1.345  23.138  0.00  0.00    -0.273 OA
ATOM      6  N   UNL     1       0.099   0.120  24.832  0.00  0.00    -0.311 N 
ATOM     15  C   UNL     1      -0.498  -1.029  24.325  0.00  0.00    +0.239 C 
ATOM     26  H   UNL     1       0.062   0.294  25.832  0.00  0.00    +0.149 HD
BRANCH  15  18
ATOM     18  C   UNL     1      -1.116  -1.878  25.416  0.00  0.00    +0.255 C 
BRANCH  18   4
ATOM      4  O   UNL     1      -1.752  -1.065  26.379  0.00  0.00    -0.374 OA
ATOM     23  C   UNL     1      -3.042  -1.564  26.727  0.00  0.00    +0.194 C 
ENDBRANCH  18   4
ENDBRANCH  15  18
ENDBRANCH  12   6
ENDBRANCH  10  12
TORSDOF 9
ENDMDL
MODEL 10
REMARK VINA RESULT:      -4.8      2.288      5.210
REMARK  Name = 75536587
REMARK  10 active torsions:
REMARK  status: ('A' for Active; 'I' for Inactive)
REMARK    1  A    between atoms: O_2  and  C_9
REMARK    2  A    between atoms: O_4  and  C_18
REMARK    3  A    between atoms: O_4  and  C_23
REMARK    4  A    between atoms: N_5  and  C_8
REMARK    5  A    between atoms: N_5  and  C_13
REMARK    6  A    between atoms: N_6  and  C_12
REMARK    7  A    between atoms: C_10  and  C_12
REMARK    8  A    between atoms: C_13  and  C_14
REMARK    9  A    between atoms: C_15  and  C_18
REMARK   10  A    between atoms: C_19  and  C_22
REMARK                            x       y       z     vdW  Elec       q    Type
REMARK                         _______ _______ _______ _____ _____    ______ ____
ROOT
ATOM      1  O   UNL     1       0.520  -0.726  23.535  0.00  0.00    -0.371 OA
ATOM      8  C   UNL     1       0.525   1.580  24.107  0.00  0.00    +0.111 C 
ATOM      9  C   UNL     1      -0.368   0.832  25.078  0.00  0.00    +0.164 C 
ATOM     10  C   UNL     1       0.151  -0.591  24.917  0.00  0.00    +0.165 C 
ATOM     11  C   UNL     1       0.619   0.588  22.959  0.00  0.00    +0.181 C 
ENDROOT
BRANCH   9   2
ATOM      2  O   UNL     1      -0.237   1.293  26.408  0.00  0.00    -0.388 OA
ATOM     25  H   UNL     1      -1.123   1.349  26.803  0.00  0.00    +0.210 HD
ENDBRANCH   9   2
BRANCH   8   5
ATOM      5  N   UNL     1      -0.008   2.869  23.700  0.00  0.00    -0.305 NA
ATOM     24  H   UNL     1       0.594   3.267  22.980  0.00  0.00    +0.123 HD
BRANCH   5  13
ATOM     13  C   UNL     1      -1.358   2.735  23.165  0.00  0.00    +0.116 C 
BRANCH  13  14
ATOM     14  C   UNL     1      -2.405   3.076  24.191  0.00  0.00    -0.032 A 
ATOM     16  C   UNL     1      -3.655   2.457  24.147  0.00  0.00    +0.023 A 
ATOM     17  C   UNL     1      -2.125   4.011  25.189  0.00  0.00    +0.005 A 
ATOM     19  C   UNL     1      -4.624   2.772  25.099  0.00  0.00    +0.052 A 
ATOM     20  C   UNL     1      -3.094   4.325  26.141  0.00  0.00    +0.002 A 
ATOM     21  C   UNL     1      -4.343   3.707  26.096  0.00  0.00    +0.019 A 
BRANCH  19  22
ATOM      7  N   UNL     1      -6.942   1.622  25.019  0.00  0.00    -0.191 NA
ATOM     22  C   UNL     1      -5.903   2.138  25.055  0.00  0.00    +0.099 C 
ENDBRANCH  19  22
ENDBRANCH  13  14
ENDBRANCH   5  13
ENDBRANCH   8   5
BRANCH  10  12
ATOM     12  C   UNL     1      -0.876  -1.649  25.281  0.00  0.00    +0.138 C 
BRANCH  12   6
ATOM      3  O   UNL     1      -3.509  -1.119  26.352  0.00  0.00    -0.273 OA
ATOM      6  N   UNL     1      -2.092  -1.471  24.541  0.00  0.00    -0.311 N 
ATOM     15  C   UNL     1      -3.321  -1.218  25.143  0.00  0.00    +0.239 C 
ATOM     26  H   UNL     1      -2.046  -1.546  23.529  0.00  0.00    +0.149 HD
BRANCH  15  18
ATOM     18  C   UNL     1      -4.433  -1.071  24.126  0.00  0.00    +0.255 C 
BRANCH  18   4
ATOM      4  O   UNL     1      -4.590  -2.262  23.384  0.00  0.00    -0.374 OA
ATOM     23  C   UNL     1      -4.026  -3.385  24.057  0.00  0.00    +0.194 C 
ENDBRANCH  18   4
ENDBRANCH  15  18
ENDBRANCH  12   6
ENDBRANCH  10  12
TORSDOF 9
ENDMDL
