MODEL 1
REMARK VINA RESULT:      -0.3      0.000      0.000
REMARK  Name = 26742833
REMARK  3 active torsions:
REMARK  status: ('A' for Active; 'I' for Inactive)
REMARK    1  A    between atoms: N_6  and  C_20
REMARK    2  A    between atoms: C_11  and  C_17
REMARK    3  A    between atoms: C_20  and  C_21
REMARK                            x       y       z     vdW  Elec       q    Type
REMARK                         _______ _______ _______ _____ _____    ______ ____
ROOT
ATOM      1  O   UNL     1      -5.930   2.372  27.037  0.00  0.00    -0.275 OA
ATOM      2  O   UNL     1       1.002   3.031  26.266  0.00  0.00    -0.276 OA
ATOM      5  N   UNL     1      -4.603   3.737  25.695  0.00  0.00    -0.301 N 
ATOM      6  N   UNL     1      -0.172   2.104  24.493  0.00  0.00    -0.297 N 
ATOM      7  C   UNL     1      -2.741   4.051  24.077  0.00  0.00    +0.011 C 
ATOM      8  C   UNL     1      -1.888   4.622  25.235  0.00  0.00    +0.004 C 
ATOM      9  C   UNL     1      -4.237   4.273  24.379  0.00  0.00    +0.111 C 
ATOM     10  C   UNL     1      -2.336   4.062  26.598  0.00  0.00    +0.023 C 
ATOM     12  C   UNL     1      -2.487   2.569  23.744  0.00  0.00    +0.024 C 
ATOM     13  C   UNL     1      -3.833   4.274  26.815  0.00  0.00    +0.108 C 
ATOM     16  C   UNL     1      -0.375   4.512  25.012  0.00  0.00    +0.100 C 
ATOM     17  C   UNL     1      -5.616   2.802  25.930  0.00  0.00    +0.219 C 
ATOM     18  C   UNL     1      -1.047   2.278  23.336  0.00  0.00    +0.108 C 
ATOM     19  C   UNL     1       0.221   3.151  25.319  0.00  0.00    +0.216 C 
ENDROOT
BRANCH  17  11
ATOM     11  C   UNL     1      -6.365   2.290  24.743  0.00  0.00    +0.075 C 
ATOM     14  C   UNL     1      -6.858   0.873  24.746  0.00  0.00    +0.013 C 
ATOM     15  C   UNL     1      -5.717   1.268  23.855  0.00  0.00    +0.013 C 
ENDBRANCH  17  11
BRANCH   6  20
ATOM     20  C   UNL     1       0.284   0.747  24.768  0.00  0.00    +0.143 C 
BRANCH  20  21
ATOM      3  O   UNL     1      -2.203  -3.363  23.595  0.00  0.00    -0.453 OA
ATOM      4  O   UNL     1      -3.932  -2.919  25.213  0.00  0.00    -0.453 OA
ATOM     21  C   UNL     1      -0.861  -0.212  24.912  0.00  0.00    -0.026 A 
ATOM     22  C   UNL     1      -0.914  -1.355  24.112  0.00  0.00    +0.054 A 
ATOM     23  C   UNL     1      -1.870   0.047  25.857  0.00  0.00    +0.009 A 
ATOM     24  C   UNL     1      -1.984  -2.208  24.283  0.00  0.00    +0.167 A 
ATOM     25  C   UNL     1      -2.943  -0.834  26.011  0.00  0.00    +0.050 A 
ATOM     26  C   UNL     1      -2.971  -1.955  25.206  0.00  0.00    +0.166 A 
ATOM     27  C   UNL     1      -3.439  -3.807  24.191  0.00  0.00    +0.466 C 
ENDBRANCH  20  21
ENDBRANCH   6  20
TORSDOF 3
ENDMDL
MODEL 2
REMARK VINA RESULT:       0.3      1.789      6.048
REMARK  Name = 26742833
REMARK  3 active torsions:
REMARK  status: ('A' for Active; 'I' for Inactive)
REMARK    1  A    between atoms: N_6  and  C_20
REMARK    2  A    between atoms: C_11  and  C_17
REMARK    3  A    between atoms: C_20  and  C_21
REMARK                            x       y       z     vdW  Elec       q    Type
REMARK                         _______ _______ _______ _____ _____    ______ ____
ROOT
ATOM      1  O   UNL     1      -0.392  -1.286  25.911  0.00  0.00    -0.275 OA
ATOM      2  O   UNL     1      -6.135   2.692  26.448  0.00  0.00    -0.276 OA
ATOM      5  N   UNL     1      -2.417  -1.255  24.760  0.00  0.00    -0.301 N 
ATOM      6  N   UNL     1      -4.832   2.973  24.549  0.00  0.00    -0.297 N 
ATOM      7  C   UNL     1      -4.194  -0.042  23.514  0.00  0.00    +0.011 C 
ATOM      8  C   UNL     1      -5.087  -0.145  24.773  0.00  0.00    +0.004 C 
ATOM      9  C   UNL     1      -3.177  -1.201  23.506  0.00  0.00    +0.111 C 
ATOM     10  C   UNL     1      -4.245  -0.241  26.059  0.00  0.00    +0.023 C 
ATOM     12  C   UNL     1      -3.462   1.302  23.338  0.00  0.00    +0.024 C 
ATOM     13  C   UNL     1      -3.230  -1.377  25.969  0.00  0.00    +0.108 C 
ATOM     16  C   UNL     1      -6.183   0.926  24.854  0.00  0.00    +0.100 C 
ATOM     17  C   UNL     1      -1.022  -1.220  24.858  0.00  0.00    +0.219 C 
ATOM     18  C   UNL     1      -4.403   2.497  23.236  0.00  0.00    +0.108 C 
ATOM     19  C   UNL     1      -5.720   2.278  25.362  0.00  0.00    +0.216 C 
ENDROOT
BRANCH  17  11
ATOM     11  C   UNL     1      -0.248  -1.092  23.587  0.00  0.00    +0.075 C 
ATOM     14  C   UNL     1       1.168  -0.601  23.640  0.00  0.00    +0.013 C 
ATOM     15  C   UNL     1       0.091   0.277  23.073  0.00  0.00    +0.013 C 
ENDBRANCH  17  11
BRANCH   6  20
ATOM     20  C   UNL     1      -4.270   4.240  24.998  0.00  0.00    +0.143 C 
BRANCH  20  21
ATOM      3  O   UNL     1      -0.336   2.107  27.101  0.00  0.00    -0.453 OA
ATOM      4  O   UNL     1       1.189   3.718  26.160  0.00  0.00    -0.453 OA
ATOM     21  C   UNL     1      -2.801   4.132  25.290  0.00  0.00    -0.026 A 
ATOM     22  C   UNL     1      -2.330   3.098  26.101  0.00  0.00    +0.054 A 
ATOM     23  C   UNL     1      -1.912   5.072  24.740  0.00  0.00    +0.009 A 
ATOM     24  C   UNL     1      -0.972   3.038  26.339  0.00  0.00    +0.167 A 
ATOM     25  C   UNL     1      -0.541   4.988  24.995  0.00  0.00    +0.050 A 
ATOM     26  C   UNL     1      -0.102   3.957  25.801  0.00  0.00    +0.166 A 
ATOM     27  C   UNL     1       1.034   2.545  26.982  0.00  0.00    +0.466 C 
ENDBRANCH  20  21
ENDBRANCH   6  20
TORSDOF 3
ENDMDL
MODEL 3
REMARK VINA RESULT:       1.4      1.668      5.773
REMARK  Name = 26742833
REMARK  3 active torsions:
REMARK  status: ('A' for Active; 'I' for Inactive)
REMARK    1  A    between atoms: N_6  and  C_20
REMARK    2  A    between atoms: C_11  and  C_17
REMARK    3  A    between atoms: C_20  and  C_21
REMARK                            x       y       z     vdW  Elec       q    Type
REMARK                         _______ _______ _______ _____ _____    ______ ____
ROOT
ATOM      1  O   UNL     1      -0.466   3.352  26.888  0.00  0.00    -0.275 OA
ATOM      2  O   UNL     1      -3.584  -2.778  25.548  0.00  0.00    -0.276 OA
ATOM      5  N   UNL     1      -0.025   1.644  25.367  0.00  0.00    -0.301 N 
ATOM      6  N   UNL     1      -3.769  -1.126  23.930  0.00  0.00    -0.297 N 
ATOM      7  C   UNL     1      -0.762   0.062  23.595  0.00  0.00    +0.011 C 
ATOM      8  C   UNL     1      -0.716  -1.071  24.647  0.00  0.00    +0.004 C 
ATOM      9  C   UNL     1       0.221   1.180  23.997  0.00  0.00    +0.111 C 
ATOM     10  C   UNL     1      -0.939  -0.531  26.072  0.00  0.00    +0.023 C 
ATOM     12  C   UNL     1      -2.158   0.659  23.334  0.00  0.00    +0.024 C 
ATOM     13  C   UNL     1       0.035   0.601  26.390  0.00  0.00    +0.108 C 
ATOM     16  C   UNL     1      -1.613  -2.271  24.315  0.00  0.00    +0.100 C 
ATOM     17  C   UNL     1      -0.280   2.968  25.735  0.00  0.00    +0.219 C 
ATOM     18  C   UNL     1      -3.172  -0.365  22.835  0.00  0.00    +0.108 C 
ATOM     19  C   UNL     1      -3.079  -2.088  24.658  0.00  0.00    +0.216 C 
ENDROOT
BRANCH  17  11
ATOM     11  C   UNL     1      -0.332   3.986  24.643  0.00  0.00    +0.075 C 
ATOM     14  C   UNL     1      -0.997   5.305  24.904  0.00  0.00    +0.013 C 
ATOM     15  C   UNL     1      -1.650   4.302  23.999  0.00  0.00    +0.013 C 
ENDBRANCH  17  11
BRANCH   6  20
ATOM     20  C   UNL     1      -5.158  -0.825  24.251  0.00  0.00    +0.143 C 
BRANCH  20  21
ATOM      3  O   UNL     1      -3.518   3.411  26.205  0.00  0.00    -0.453 OA
ATOM      4  O   UNL     1      -5.676   4.469  26.018  0.00  0.00    -0.453 OA
ATOM     21  C   UNL     1      -5.333   0.591  24.716  0.00  0.00    -0.026 A 
ATOM     22  C   UNL     1      -4.246   1.285  25.250  0.00  0.00    +0.054 A 
ATOM     23  C   UNL     1      -6.592   1.209  24.607  0.00  0.00    +0.009 A 
ATOM     24  C   UNL     1      -4.455   2.586  25.662  0.00  0.00    +0.167 A 
ATOM     25  C   UNL     1      -6.777   2.527  25.030  0.00  0.00    +0.050 A 
ATOM     26  C   UNL     1      -5.686   3.189  25.555  0.00  0.00    +0.166 A 
ATOM     27  C   UNL     1      -4.300   4.604  26.427  0.00  0.00    +0.466 C 
ENDBRANCH  20  21
ENDBRANCH   6  20
TORSDOF 3
ENDMDL
MODEL 4
REMARK VINA RESULT:       2.2      1.924      4.708
REMARK  Name = 26742833
REMARK  3 active torsions:
REMARK  status: ('A' for Active; 'I' for Inactive)
REMARK    1  A    between atoms: N_6  and  C_20
REMARK    2  A    between atoms: C_11  and  C_17
REMARK    3  A    between atoms: C_20  and  C_21
REMARK                            x       y       z     vdW  Elec       q    Type
REMARK                         _______ _______ _______ _____ _____    ______ ____
ROOT
ATOM      1  O   UNL     1      -0.186  -0.500  23.185  0.00  0.00    -0.275 OA
ATOM      2  O   UNL     1      -2.875   5.950  23.698  0.00  0.00    -0.276 OA
ATOM      5  N   UNL     1       0.331   1.336  24.523  0.00  0.00    -0.301 N 
ATOM      6  N   UNL     1      -3.239   4.511  25.482  0.00  0.00    -0.297 N 
ATOM      7  C   UNL     1      -0.344   3.158  26.075  0.00  0.00    +0.011 C 
ATOM      8  C   UNL     1      -0.177   4.157  24.906  0.00  0.00    +0.004 C 
ATOM      9  C   UNL     1       0.565   1.934  25.842  0.00  0.00    +0.111 C 
ATOM     10  C   UNL     1      -0.391   3.475  23.542  0.00  0.00    +0.023 C 
ATOM     12  C   UNL     1      -1.789   2.696  26.341  0.00  0.00    +0.024 C 
ATOM     13  C   UNL     1       0.504   2.247  23.394  0.00  0.00    +0.108 C 
ATOM     16  C   UNL     1      -0.991   5.448  25.063  0.00  0.00    +0.100 C 
ATOM     17  C   UNL     1      -0.011  -0.001  24.295  0.00  0.00    +0.219 C 
ATOM     18  C   UNL     1      -2.739   3.840  26.679  0.00  0.00    +0.108 C 
ATOM     19  C   UNL     1      -2.454   5.332  24.681  0.00  0.00    +0.216 C 
ENDROOT
BRANCH  17  11
ATOM     11  C   UNL     1      -0.176  -0.881  25.491  0.00  0.00    +0.075 C 
ATOM     14  C   UNL     1      -0.989  -2.135  25.368  0.00  0.00    +0.013 C 
ATOM     15  C   UNL     1      -1.521  -0.971  26.151  0.00  0.00    +0.013 C 
ENDBRANCH  17  11
BRANCH   6  20
ATOM     20  C   UNL     1      -4.636   4.275  25.138  0.00  0.00    +0.143 C 
BRANCH  20  21
ATOM      3  O   UNL     1      -3.426  -0.265  23.597  0.00  0.00    -0.453 OA
ATOM      4  O   UNL     1      -5.564  -1.178  24.231  0.00  0.00    -0.453 OA
ATOM     21  C   UNL     1      -4.919   2.820  24.907  0.00  0.00    -0.026 A 
ATOM     22  C   UNL     1      -3.942   2.005  24.332  0.00  0.00    +0.054 A 
ATOM     23  C   UNL     1      -6.167   2.287  25.278  0.00  0.00    +0.009 A 
ATOM     24  C   UNL     1      -4.248   0.673  24.142  0.00  0.00    +0.167 A 
ATOM     25  C   UNL     1      -6.451   0.934  25.076  0.00  0.00    +0.050 A 
ATOM     26  C   UNL     1      -5.469   0.152  24.504  0.00  0.00    +0.166 A 
ATOM     27  C   UNL     1      -4.267  -1.436  23.658  0.00  0.00    +0.466 C 
ENDBRANCH  20  21
ENDBRANCH   6  20
TORSDOF 3
ENDMDL
MODEL 5
REMARK VINA RESULT:       2.5      3.186      5.606
REMARK  Name = 26742833
REMARK  3 active torsions:
REMARK  status: ('A' for Active; 'I' for Inactive)
REMARK    1  A    between atoms: N_6  and  C_20
REMARK    2  A    between atoms: C_11  and  C_17
REMARK    3  A    between atoms: C_20  and  C_21
REMARK                            x       y       z     vdW  Elec       q    Type
REMARK                         _______ _______ _______ _____ _____    ______ ____
ROOT
ATOM      1  O   UNL     1      -4.652   3.629  23.104  0.00  0.00    -0.275 OA
ATOM      2  O   UNL     1      -1.293  -2.516  23.301  0.00  0.00    -0.276 OA
ATOM      5  N   UNL     1      -3.832   2.322  24.849  0.00  0.00    -0.301 N 
ATOM      6  N   UNL     1      -0.075  -0.631  23.888  0.00  0.00    -0.297 N 
ATOM      7  C   UNL     1      -2.006   1.017  25.919  0.00  0.00    +0.011 C 
ATOM      8  C   UNL     1      -2.743  -0.277  25.500  0.00  0.00    +0.004 C 
ATOM      9  C   UNL     1      -3.023   2.167  26.063  0.00  0.00    +0.111 C 
ATOM     10  C   UNL     1      -3.610  -0.055  24.246  0.00  0.00    +0.023 C 
ATOM     12  C   UNL     1      -0.855   1.447  24.990  0.00  0.00    +0.024 C 
ATOM     13  C   UNL     1      -4.561   1.124  24.437  0.00  0.00    +0.108 C 
ATOM     16  C   UNL     1      -1.833  -1.508  25.387  0.00  0.00    +0.100 C 
ATOM     17  C   UNL     1      -3.957   3.502  24.109  0.00  0.00    +0.219 C 
ATOM     18  C   UNL     1       0.250   0.402  24.869  0.00  0.00    +0.108 C 
ATOM     19  C   UNL     1      -1.045  -1.605  24.095  0.00  0.00    +0.216 C 
ENDROOT
BRANCH  17  11
ATOM     11  C   UNL     1      -3.184   4.691  24.580  0.00  0.00    +0.075 C 
ATOM     14  C   UNL     1      -1.687   4.611  24.643  0.00  0.00    +0.013 C 
ATOM     15  C   UNL     1      -2.491   4.632  25.910  0.00  0.00    +0.013 C 
ENDBRANCH  17  11
BRANCH   6  20
ATOM     20  C   UNL     1       0.670  -0.597  22.636  0.00  0.00    +0.143 C 
BRANCH  20  21
ATOM      3  O   UNL     1       5.236  -1.724  24.165  0.00  0.00    -0.453 OA
ATOM      4  O   UNL     1       6.114   0.419  23.501  0.00  0.00    -0.453 OA
ATOM     21  C   UNL     1       2.123  -0.290  22.855  0.00  0.00    -0.026 A 
ATOM     22  C   UNL     1       2.954  -1.249  23.437  0.00  0.00    +0.054 A 
ATOM     23  C   UNL     1       2.635   0.961  22.467  0.00  0.00    +0.009 A 
ATOM     24  C   UNL     1       4.283  -0.922  23.615  0.00  0.00    +0.167 A 
ATOM     25  C   UNL     1       3.985   1.266  22.658  0.00  0.00    +0.050 A 
ATOM     26  C   UNL     1       4.784   0.302  23.237  0.00  0.00    +0.166 A 
ATOM     27  C   UNL     1       6.394  -0.867  24.088  0.00  0.00    +0.466 C 
ENDBRANCH  20  21
ENDBRANCH   6  20
TORSDOF 3
ENDMDL
MODEL 6
REMARK VINA RESULT:       2.5      1.726      4.889
REMARK  Name = 26742833
REMARK  3 active torsions:
REMARK  status: ('A' for Active; 'I' for Inactive)
REMARK    1  A    between atoms: N_6  and  C_20
REMARK    2  A    between atoms: C_11  and  C_17
REMARK    3  A    between atoms: C_20  and  C_21
REMARK                            x       y       z     vdW  Elec       q    Type
REMARK                         _______ _______ _______ _____ _____    ______ ____
ROOT
ATOM      1  O   UNL     1      -3.491  -1.330  23.143  0.00  0.00    -0.275 OA
ATOM      2  O   UNL     1      -1.167   5.222  24.013  0.00  0.00    -0.276 OA
ATOM      5  N   UNL     1      -1.380  -0.433  23.547  0.00  0.00    -0.301 N 
ATOM      6  N   UNL     1      -1.147   3.841  25.878  0.00  0.00    -0.297 N 
ATOM      7  C   UNL     1       0.147   1.046  24.838  0.00  0.00    +0.011 C 
ATOM      8  C   UNL     1       0.123   2.036  23.649  0.00  0.00    +0.004 C 
ATOM      9  C   UNL     1      -0.138  -0.381  24.327  0.00  0.00    +0.111 C 
ATOM     10  C   UNL     1      -1.181   1.915  22.837  0.00  0.00    +0.023 C 
ATOM     12  C   UNL     1      -0.807   1.390  25.997  0.00  0.00    +0.024 C 
ATOM     13  C   UNL     1      -1.426   0.473  22.401  0.00  0.00    +0.108 C 
ATOM     16  C   UNL     1       0.457   3.483  24.031  0.00  0.00    +0.100 C 
ATOM     17  C   UNL     1      -2.462  -1.278  23.813  0.00  0.00    +0.219 C 
ATOM     18  C   UNL     1      -0.529   2.750  26.628  0.00  0.00    +0.108 C 
ATOM     19  C   UNL     1      -0.692   4.268  24.635  0.00  0.00    +0.216 C 
ENDROOT
BRANCH  17  11
ATOM     11  C   UNL     1      -2.354  -2.178  25.000  0.00  0.00    +0.075 C 
ATOM     14  C   UNL     1      -3.517  -3.056  25.360  0.00  0.00    +0.013 C 
ATOM     15  C   UNL     1      -3.172  -1.877  26.222  0.00  0.00    +0.013 C 
ENDBRANCH  17  11
BRANCH   6  20
ATOM     20  C   UNL     1      -2.302   4.482  26.492  0.00  0.00    +0.143 C 
BRANCH  20  21
ATOM      3  O   UNL     1      -5.049   0.732  24.806  0.00  0.00    -0.453 OA
ATOM      4  O   UNL     1      -7.061   2.059  24.789  0.00  0.00    -0.453 OA
ATOM     21  C   UNL     1      -3.594   3.866  26.040  0.00  0.00    -0.026 A 
ATOM     22  C   UNL     1      -3.621   2.530  25.636  0.00  0.00    +0.054 A 
ATOM     23  C   UNL     1      -4.768   4.641  26.030  0.00  0.00    +0.009 A 
ATOM     24  C   UNL     1      -4.832   2.007  25.232  0.00  0.00    +0.167 A 
ATOM     25  C   UNL     1      -5.982   4.087  25.617  0.00  0.00    +0.050 A 
ATOM     26  C   UNL     1      -5.980   2.764  25.222  0.00  0.00    +0.166 A 
ATOM     27  C   UNL     1      -6.464   0.773  24.528  0.00  0.00    +0.466 C 
ENDBRANCH  20  21
ENDBRANCH   6  20
TORSDOF 3
ENDMDL
MODEL 7
REMARK VINA RESULT:       2.6      2.543      5.350
REMARK  Name = 26742833
REMARK  3 active torsions:
REMARK  status: ('A' for Active; 'I' for Inactive)
REMARK    1  A    between atoms: N_6  and  C_20
REMARK    2  A    between atoms: C_11  and  C_17
REMARK    3  A    between atoms: C_20  and  C_21
REMARK                            x       y       z     vdW  Elec       q    Type
REMARK                         _______ _______ _______ _____ _____    ______ ____
ROOT
ATOM      1  O   UNL     1      -2.245   3.635  22.983  0.00  0.00    -0.275 OA
ATOM      2  O   UNL     1      -2.118  -3.362  23.323  0.00  0.00    -0.276 OA
ATOM      5  N   UNL     1      -3.671   2.065  23.946  0.00  0.00    -0.301 N 
ATOM      6  N   UNL     1      -1.748  -2.204  25.299  0.00  0.00    -0.297 N 
ATOM      7  C   UNL     1      -4.064   0.075  25.384  0.00  0.00    +0.011 C 
ATOM      8  C   UNL     1      -4.261  -0.762  24.098  0.00  0.00    +0.004 C 
ATOM      9  C   UNL     1      -4.417   1.549  25.100  0.00  0.00    +0.111 C 
ATOM     10  C   UNL     1      -3.494  -0.159  22.907  0.00  0.00    +0.023 C 
ATOM     12  C   UNL     1      -2.664  -0.018  26.019  0.00  0.00    +0.024 C 
ATOM     13  C   UNL     1      -3.853   1.311  22.707  0.00  0.00    +0.108 C 
ATOM     16  C   UNL     1      -3.999  -2.263  24.281  0.00  0.00    +0.100 C 
ATOM     17  C   UNL     1      -2.851   3.198  23.959  0.00  0.00    +0.219 C 
ATOM     18  C   UNL     1      -2.275  -1.436  26.425  0.00  0.00    +0.108 C 
ATOM     19  C   UNL     1      -2.537  -2.665  24.252  0.00  0.00    +0.216 C 
ENDROOT
BRANCH  17  11
ATOM     11  C   UNL     1      -2.704   3.923  25.256  0.00  0.00    +0.075 C 
ATOM     14  C   UNL     1      -1.612   4.941  25.404  0.00  0.00    +0.013 C 
ATOM     15  C   UNL     1      -1.516   3.630  26.127  0.00  0.00    +0.013 C 
ENDBRANCH  17  11
BRANCH   6  20
ATOM     20  C   UNL     1      -0.315  -2.471  25.306  0.00  0.00    +0.143 C 
BRANCH  20  21
ATOM      3  O   UNL     1       3.747  -0.664  23.142  0.00  0.00    -0.453 OA
ATOM      4  O   UNL     1       2.688   1.443  22.646  0.00  0.00    -0.453 OA
ATOM     21  C   UNL     1       0.460  -1.399  24.597  0.00  0.00    -0.026 A 
ATOM     22  C   UNL     1       1.786  -1.632  24.227  0.00  0.00    +0.054 A 
ATOM     23  C   UNL     1      -0.159  -0.170  24.307  0.00  0.00    +0.009 A 
ATOM     24  C   UNL     1       2.457  -0.618  23.575  0.00  0.00    +0.167 A 
ATOM     25  C   UNL     1       0.543   0.840  23.644  0.00  0.00    +0.050 A 
ATOM     26  C   UNL     1       1.853   0.584  23.291  0.00  0.00    +0.166 A 
ATOM     27  C   UNL     1       3.886   0.647  22.554  0.00  0.00    +0.466 C 
ENDBRANCH  20  21
ENDBRANCH   6  20
TORSDOF 3
ENDMDL
MODEL 8
REMARK VINA RESULT:       2.9      1.947      4.855
REMARK  Name = 26742833
REMARK  3 active torsions:
REMARK  status: ('A' for Active; 'I' for Inactive)
REMARK    1  A    between atoms: N_6  and  C_20
REMARK    2  A    between atoms: C_11  and  C_17
REMARK    3  A    between atoms: C_20  and  C_21
REMARK                            x       y       z     vdW  Elec       q    Type
REMARK                         _______ _______ _______ _____ _____    ______ ____
ROOT
ATOM      1  O   UNL     1       1.314   1.764  25.930  0.00  0.00    -0.275 OA
ATOM      2  O   UNL     1      -4.923   2.083  22.753  0.00  0.00    -0.276 OA
ATOM      5  N   UNL     1      -0.160   3.515  25.494  0.00  0.00    -0.301 N 
ATOM      6  N   UNL     1      -4.890   2.429  25.047  0.00  0.00    -0.297 N 
ATOM      7  C   UNL     1      -2.440   4.506  25.548  0.00  0.00    +0.011 C 
ATOM      8  C   UNL     1      -2.544   4.243  24.027  0.00  0.00    +0.004 C 
ATOM      9  C   UNL     1      -0.958   4.660  25.946  0.00  0.00    +0.111 C 
ATOM     10  C   UNL     1      -1.658   3.059  23.595  0.00  0.00    +0.023 C 
ATOM     12  C   UNL     1      -3.117   3.451  26.444  0.00  0.00    +0.024 C 
ATOM     13  C   UNL     1      -0.216   3.253  24.057  0.00  0.00    +0.108 C 
ATOM     16  C   UNL     1      -3.983   4.135  23.506  0.00  0.00    +0.100 C 
ATOM     17  C   UNL     1       0.632   2.710  26.319  0.00  0.00    +0.219 C 
ATOM     18  C   UNL     1      -4.613   3.305  26.183  0.00  0.00    +0.108 C 
ATOM     19  C   UNL     1      -4.644   2.788  23.727  0.00  0.00    +0.216 C 
ENDROOT
BRANCH  17  11
ATOM     11  C   UNL     1       0.645   3.027  27.779  0.00  0.00    +0.075 C 
ATOM     14  C   UNL     1       1.948   3.000  28.521  0.00  0.00    +0.013 C 
ATOM     15  C   UNL     1       0.926   1.930  28.763  0.00  0.00    +0.013 C 
ENDBRANCH  17  11
BRANCH   6  20
ATOM     20  C   UNL     1      -5.444   1.117  25.356  0.00  0.00    +0.143 C 
BRANCH  20  21
ATOM      3  O   UNL     1      -1.008  -1.041  25.695  0.00  0.00    -0.453 OA
ATOM      4  O   UNL     1      -1.699  -2.938  24.379  0.00  0.00    -0.453 OA
ATOM     21  C   UNL     1      -4.467   0.014  25.073  0.00  0.00    -0.026 A 
ATOM     22  C   UNL     1      -3.167   0.093  25.576  0.00  0.00    +0.054 A 
ATOM     23  C   UNL     1      -4.870  -1.093  24.305  0.00  0.00    +0.009 A 
ATOM     24  C   UNL     1      -2.305  -0.947  25.292  0.00  0.00    +0.167 A 
ATOM     25  C   UNL     1      -3.978  -2.133  24.033  0.00  0.00    +0.050 A 
ATOM     26  C   UNL     1      -2.700  -2.029  24.541  0.00  0.00    +0.166 A 
ATOM     27  C   UNL     1      -0.631  -2.306  25.112  0.00  0.00    +0.466 C 
ENDBRANCH  20  21
ENDBRANCH   6  20
TORSDOF 3
ENDMDL
MODEL 9
REMARK VINA RESULT:       3.1      1.895      3.218
REMARK  Name = 26742833
REMARK  3 active torsions:
REMARK  status: ('A' for Active; 'I' for Inactive)
REMARK    1  A    between atoms: N_6  and  C_20
REMARK    2  A    between atoms: C_11  and  C_17
REMARK    3  A    between atoms: C_20  and  C_21
REMARK                            x       y       z     vdW  Elec       q    Type
REMARK                         _______ _______ _______ _____ _____    ______ ____
ROOT
ATOM      1  O   UNL     1      -4.441  -0.792  26.508  0.00  0.00    -0.275 OA
ATOM      2  O   UNL     1      -1.209   5.347  25.533  0.00  0.00    -0.276 OA
ATOM      5  N   UNL     1      -4.950   1.086  25.227  0.00  0.00    -0.301 N 
ATOM      6  N   UNL     1      -1.244   3.878  23.737  0.00  0.00    -0.297 N 
ATOM      7  C   UNL     1      -4.316   2.828  23.570  0.00  0.00    +0.011 C 
ATOM      8  C   UNL     1      -4.217   3.840  24.737  0.00  0.00    +0.004 C 
ATOM      9  C   UNL     1      -5.304   1.705  23.945  0.00  0.00    +0.111 C 
ATOM     10  C   UNL     1      -3.885   3.140  26.068  0.00  0.00    +0.023 C 
ATOM     12  C   UNL     1      -2.976   2.220  23.114  0.00  0.00    +0.024 C 
ATOM     13  C   UNL     1      -4.871   2.011  26.356  0.00  0.00    +0.108 C 
ATOM     16  C   UNL     1      -3.305   5.040  24.449  0.00  0.00    +0.100 C 
ATOM     17  C   UNL     1      -4.718  -0.279  25.426  0.00  0.00    +0.219 C 
ATOM     18  C   UNL     1      -1.972   3.261  22.631  0.00  0.00    +0.108 C 
ATOM     19  C   UNL     1      -1.822   4.775  24.627  0.00  0.00    +0.216 C 
ENDROOT
BRANCH  17  11
ATOM     11  C   UNL     1      -4.810  -1.171  24.232  0.00  0.00    +0.075 C 
ATOM     14  C   UNL     1      -4.079  -2.481  24.240  0.00  0.00    +0.013 C 
ATOM     15  C   UNL     1      -3.600  -1.360  23.365  0.00  0.00    +0.013 C 
ENDBRANCH  17  11
BRANCH   6  20
ATOM     20  C   UNL     1       0.155   3.500  23.889  0.00  0.00    +0.143 C 
BRANCH  20  21
ATOM      3  O   UNL     1      -1.063  -0.908  25.770  0.00  0.00    -0.453 OA
ATOM      4  O   UNL     1       0.671  -2.043  24.542  0.00  0.00    -0.453 OA
ATOM     21  C   UNL     1       0.323   2.016  24.041  0.00  0.00    -0.026 A 
ATOM     22  C   UNL     1      -0.527   1.306  24.890  0.00  0.00    +0.054 A 
ATOM     23  C   UNL     1       1.335   1.354  23.323  0.00  0.00    +0.009 A 
ATOM     24  C   UNL     1      -0.336  -0.057  24.995  0.00  0.00    +0.167 A 
ATOM     25  C   UNL     1       1.507  -0.027  23.447  0.00  0.00    +0.050 A 
ATOM     26  C   UNL     1       0.654  -0.705  24.294  0.00  0.00    +0.166 A 
ATOM     27  C   UNL     1      -0.419  -2.165  25.476  0.00  0.00    +0.466 C 
ENDBRANCH  20  21
ENDBRANCH   6  20
TORSDOF 3
ENDMDL
