MODEL 1
REMARK VINA RESULT:      -6.6      0.000      0.000
REMARK  Name = 75367635
REMARK  6 active torsions:
REMARK  status: ('A' for Active; 'I' for Inactive)
REMARK    1  A    between atoms: O_2  and  C_7
REMARK    2  A    between atoms: O_2  and  C_14
REMARK    3  A    between atoms: O_3  and  C_13
REMARK    4  A    between atoms: O_3  and  C_17
REMARK    5  A    between atoms: C_12  and  C_13
REMARK    6  A    between atoms: C_16  and  C_20
REMARK                            x       y       z     vdW  Elec       q    Type
REMARK                         _______ _______ _______ _____ _____    ______ ____
ROOT
ATOM      1  O   UNL     1      -3.481  -3.151  24.395  0.00  0.00    -0.375 OA
ATOM      4  O   UNL     1       0.943  -1.103  23.814  0.00  0.00    -0.272 OA
ATOM      5  N   UNL     1      -1.204  -0.993  24.715  0.00  0.00    -0.293 N 
ATOM      7  C   UNL     1      -3.675  -0.922  25.375  0.00  0.00    +0.218 C 
ATOM      8  C   UNL     1      -2.372  -0.179  25.067  0.00  0.00    +0.154 C 
ATOM      9  C   UNL     1      -1.231  -2.425  25.019  0.00  0.00    +0.136 C 
ATOM     10  C   UNL     1      -4.099  -1.875  24.261  0.00  0.00    +0.206 C 
ATOM     11  C   UNL     1      -2.105  -3.186  24.031  0.00  0.00    +0.179 C 
ATOM     12  C   UNL     1      -0.061  -0.451  24.112  0.00  0.00    +0.253 C 
ENDROOT
BRANCH   7   2
ATOM      2  O   UNL     1      -4.708   0.053  25.530  0.00  0.00    -0.469 OA
BRANCH   2  14
ATOM      6  N   UNL     1      -3.752   1.217  23.769  0.00  0.00    -0.218 NA
ATOM     14  C   UNL     1      -4.533   1.238  24.872  0.00  0.00    +0.215 A 
ATOM     15  C   UNL     1      -5.152   2.378  25.362  0.00  0.00    +0.067 A 
ATOM     16  C   UNL     1      -3.586   2.397  23.129  0.00  0.00    +0.042 A 
ATOM     18  C   UNL     1      -4.957   3.571  24.677  0.00  0.00    +0.007 A 
ATOM     19  C   UNL     1      -4.160   3.589  23.537  0.00  0.00    +0.023 A 
ATOM     20  C   UNL     1      -2.722   2.380  21.911  0.00  0.00    +0.066 C 
ENDBRANCH   2  14
ENDBRANCH   7   2
BRANCH  12  13
ATOM     13  C   UNL     1      -0.095   1.029  23.813  0.00  0.00    +0.324 C 
BRANCH  13   3
ATOM      3  O   UNL     1       0.008   1.690  25.049  0.00  0.00    -0.483 OA
BRANCH   3  17
ATOM     17  C   UNL     1      -0.578   2.932  25.153  0.00  0.00    +0.121 A 
ATOM     21  C   UNL     1      -1.569   3.157  26.110  0.00  0.00    +0.045 A 
ATOM     22  C   UNL     1      -0.184   3.964  24.303  0.00  0.00    +0.045 A 
ATOM     23  C   UNL     1      -2.163   4.415  26.216  0.00  0.00    +0.004 A 
ATOM     24  C   UNL     1      -0.778   5.222  24.409  0.00  0.00    +0.004 A 
ATOM     25  C   UNL     1      -1.768   5.447  25.365  0.00  0.00    +0.000 A 
ENDBRANCH   3  17
ENDBRANCH  13   3
ENDBRANCH  12  13
TORSDOF 5
ENDMDL
MODEL 2
REMARK VINA RESULT:      -5.5      1.701      5.018
REMARK  Name = 75367635
REMARK  6 active torsions:
REMARK  status: ('A' for Active; 'I' for Inactive)
REMARK    1  A    between atoms: O_2  and  C_7
REMARK    2  A    between atoms: O_2  and  C_14
REMARK    3  A    between atoms: O_3  and  C_13
REMARK    4  A    between atoms: O_3  and  C_17
REMARK    5  A    between atoms: C_12  and  C_13
REMARK    6  A    between atoms: C_16  and  C_20
REMARK                            x       y       z     vdW  Elec       q    Type
REMARK                         _______ _______ _______ _____ _____    ______ ____
ROOT
ATOM      1  O   UNL     1      -5.715   3.514  25.370  0.00  0.00    -0.375 OA
ATOM      4  O   UNL     1      -0.936   4.493  24.809  0.00  0.00    -0.272 OA
ATOM      5  N   UNL     1      -2.677   2.943  24.748  0.00  0.00    -0.293 N 
ATOM      7  C   UNL     1      -4.655   1.343  25.010  0.00  0.00    +0.218 C 
ATOM      8  C   UNL     1      -3.142   1.575  24.999  0.00  0.00    +0.154 C 
ATOM      9  C   UNL     1      -3.617   3.909  24.177  0.00  0.00    +0.136 C 
ATOM     10  C   UNL     1      -5.396   2.264  25.975  0.00  0.00    +0.206 C 
ATOM     11  C   UNL     1      -4.610   4.400  25.223  0.00  0.00    +0.179 C 
ATOM     12  C   UNL     1      -1.365   3.356  25.019  0.00  0.00    +0.253 C 
ENDROOT
BRANCH   7   2
ATOM      2  O   UNL     1      -4.887  -0.003  25.429  0.00  0.00    -0.469 OA
BRANCH   2  14
ATOM      6  N   UNL     1      -2.743  -0.870  25.567  0.00  0.00    -0.218 NA
ATOM     14  C   UNL     1      -3.976  -0.936  25.019  0.00  0.00    +0.215 A 
ATOM     15  C   UNL     1      -4.358  -1.882  24.080  0.00  0.00    +0.067 A 
ATOM     16  C   UNL     1      -1.850  -1.797  25.150  0.00  0.00    +0.042 A 
ATOM     18  C   UNL     1      -3.414  -2.818  23.677  0.00  0.00    +0.007 A 
ATOM     19  C   UNL     1      -2.133  -2.782  24.219  0.00  0.00    +0.023 A 
ATOM     20  C   UNL     1      -0.485  -1.727  25.750  0.00  0.00    +0.066 C 
ENDBRANCH   2  14
ENDBRANCH   7   2
BRANCH  12  13
ATOM     13  C   UNL     1      -0.443   2.319  25.616  0.00  0.00    +0.324 C 
BRANCH  13   3
ATOM      3  O   UNL     1       0.772   2.413  24.916  0.00  0.00    -0.483 OA
BRANCH   3  17
ATOM     17  C   UNL     1       1.028   1.455  23.961  0.00  0.00    +0.121 A 
ATOM     21  C   UNL     1      -0.011   0.662  23.471  0.00  0.00    +0.045 A 
ATOM     22  C   UNL     1       2.326   1.275  23.482  0.00  0.00    +0.045 A 
ATOM     23  C   UNL     1       0.248  -0.308  22.503  0.00  0.00    +0.004 A 
ATOM     24  C   UNL     1       2.585   0.304  22.515  0.00  0.00    +0.004 A 
ATOM     25  C   UNL     1       1.546  -0.488  22.025  0.00  0.00    +0.000 A 
ENDBRANCH   3  17
ENDBRANCH  13   3
ENDBRANCH  12  13
TORSDOF 5
ENDMDL
MODEL 3
REMARK VINA RESULT:      -5.2      2.070      6.272
REMARK  Name = 75367635
REMARK  6 active torsions:
REMARK  status: ('A' for Active; 'I' for Inactive)
REMARK    1  A    between atoms: O_2  and  C_7
REMARK    2  A    between atoms: O_2  and  C_14
REMARK    3  A    between atoms: O_3  and  C_13
REMARK    4  A    between atoms: O_3  and  C_17
REMARK    5  A    between atoms: C_12  and  C_13
REMARK    6  A    between atoms: C_16  and  C_20
REMARK                            x       y       z     vdW  Elec       q    Type
REMARK                         _______ _______ _______ _____ _____    ______ ____
ROOT
ATOM      1  O   UNL     1      -0.732   4.940  24.374  0.00  0.00    -0.375 OA
ATOM      4  O   UNL     1      -5.491   4.190  25.320  0.00  0.00    -0.272 OA
ATOM      5  N   UNL     1      -3.264   3.634  25.726  0.00  0.00    -0.293 N 
ATOM      7  C   UNL     1      -0.794   2.976  25.824  0.00  0.00    +0.218 C 
ATOM      8  C   UNL     1      -2.266   2.598  26.010  0.00  0.00    +0.154 C 
ATOM      9  C   UNL     1      -2.822   5.028  25.640  0.00  0.00    +0.136 C 
ATOM     10  C   UNL     1      -0.490   3.539  24.439  0.00  0.00    +0.206 C 
ATOM     11  C   UNL     1      -2.108   5.303  24.324  0.00  0.00    +0.179 C 
ATOM     12  C   UNL     1      -4.624   3.344  25.548  0.00  0.00    +0.253 C 
ENDROOT
BRANCH   7   2
ATOM      2  O   UNL     1      -0.014   1.791  25.994  0.00  0.00    -0.469 OA
BRANCH   2  14
ATOM      6  N   UNL     1       1.561   1.379  24.345  0.00  0.00    -0.218 NA
ATOM     14  C   UNL     1       0.336   1.122  24.855  0.00  0.00    +0.215 A 
ATOM     15  C   UNL     1      -0.568   0.234  24.292  0.00  0.00    +0.067 A 
ATOM     16  C   UNL     1       1.894   0.712  23.216  0.00  0.00    +0.042 A 
ATOM     18  C   UNL     1      -0.190  -0.433  23.132  0.00  0.00    +0.007 A 
ATOM     19  C   UNL     1       1.064  -0.195  22.578  0.00  0.00    +0.023 A 
ATOM     20  C   UNL     1       3.245   0.994  22.648  0.00  0.00    +0.066 C 
ENDBRANCH   2  14
ENDBRANCH   7   2
BRANCH  12  13
ATOM     13  C   UNL     1      -5.018   1.889  25.637  0.00  0.00    +0.324 C 
BRANCH  13   3
ATOM      3  O   UNL     1      -4.478   1.257  24.505  0.00  0.00    -0.483 OA
BRANCH   3  17
ATOM     17  C   UNL     1      -4.147  -0.076  24.620  0.00  0.00    +0.121 A 
ATOM     21  C   UNL     1      -3.604  -0.560  25.811  0.00  0.00    +0.045 A 
ATOM     22  C   UNL     1      -4.354  -0.942  23.546  0.00  0.00    +0.045 A 
ATOM     23  C   UNL     1      -3.269  -1.909  25.927  0.00  0.00    +0.004 A 
ATOM     24  C   UNL     1      -4.019  -2.291  23.663  0.00  0.00    +0.004 A 
ATOM     25  C   UNL     1      -3.476  -2.775  24.853  0.00  0.00    +0.000 A 
ENDBRANCH   3  17
ENDBRANCH  13   3
ENDBRANCH  12  13
TORSDOF 5
ENDMDL
MODEL 4
REMARK VINA RESULT:      -5.0      1.851      6.395
REMARK  Name = 75367635
REMARK  6 active torsions:
REMARK  status: ('A' for Active; 'I' for Inactive)
REMARK    1  A    between atoms: O_2  and  C_7
REMARK    2  A    between atoms: O_2  and  C_14
REMARK    3  A    between atoms: O_3  and  C_13
REMARK    4  A    between atoms: O_3  and  C_17
REMARK    5  A    between atoms: C_12  and  C_13
REMARK    6  A    between atoms: C_16  and  C_20
REMARK                            x       y       z     vdW  Elec       q    Type
REMARK                         _______ _______ _______ _____ _____    ______ ____
ROOT
ATOM      1  O   UNL     1      -1.184   5.958  25.163  0.00  0.00    -0.375 OA
ATOM      4  O   UNL     1      -5.396   3.438  25.064  0.00  0.00    -0.272 OA
ATOM      5  N   UNL     1      -3.093   3.461  25.422  0.00  0.00    -0.293 N 
ATOM      7  C   UNL     1      -0.541   3.624  25.491  0.00  0.00    +0.218 C 
ATOM      8  C   UNL     1      -1.801   2.777  25.298  0.00  0.00    +0.154 C 
ATOM      9  C   UNL     1      -3.130   4.779  26.059  0.00  0.00    +0.136 C 
ATOM     10  C   UNL     1      -0.498   4.851  24.585  0.00  0.00    +0.206 C 
ATOM     11  C   UNL     1      -2.603   5.862  25.126  0.00  0.00    +0.179 C 
ATOM     12  C   UNL     1      -4.292   2.897  24.965  0.00  0.00    +0.253 C 
ENDROOT
BRANCH   7   2
ATOM      2  O   UNL     1       0.587   2.807  25.172  0.00  0.00    -0.469 OA
BRANCH   2  14
ATOM      6  N   UNL     1       0.898   1.147  23.585  0.00  0.00    -0.218 NA
ATOM     14  C   UNL     1       0.320   1.537  24.743  0.00  0.00    +0.215 A 
ATOM     15  C   UNL     1      -0.516   0.733  25.503  0.00  0.00    +0.067 A 
ATOM     16  C   UNL     1       0.622  -0.111  23.172  0.00  0.00    +0.042 A 
ATOM     18  C   UNL     1      -0.775  -0.553  25.045  0.00  0.00    +0.007 A 
ATOM     19  C   UNL     1      -0.198  -0.991  23.857  0.00  0.00    +0.023 A 
ATOM     20  C   UNL     1       1.256  -0.546  21.892  0.00  0.00    +0.066 C 
ENDBRANCH   2  14
ENDBRANCH   7   2
BRANCH  12  13
ATOM     13  C   UNL     1      -4.191   1.542  24.307  0.00  0.00    +0.324 C 
BRANCH  13   3
ATOM      3  O   UNL     1      -4.455   0.590  25.308  0.00  0.00    -0.483 OA
BRANCH   3  17
ATOM     17  C   UNL     1      -4.121  -0.719  25.040  0.00  0.00    +0.121 A 
ATOM     21  C   UNL     1      -4.411  -1.272  23.793  0.00  0.00    +0.045 A 
ATOM     22  C   UNL     1      -3.494  -1.493  26.017  0.00  0.00    +0.045 A 
ATOM     23  C   UNL     1      -4.073  -2.598  23.522  0.00  0.00    +0.004 A 
ATOM     24  C   UNL     1      -3.157  -2.819  25.746  0.00  0.00    +0.004 A 
ATOM     25  C   UNL     1      -3.447  -3.372  24.499  0.00  0.00    +0.000 A 
ENDBRANCH   3  17
ENDBRANCH  13   3
ENDBRANCH  12  13
TORSDOF 5
ENDMDL
MODEL 5
REMARK VINA RESULT:      -3.6      1.828      4.801
REMARK  Name = 75367635
REMARK  6 active torsions:
REMARK  status: ('A' for Active; 'I' for Inactive)
REMARK    1  A    between atoms: O_2  and  C_7
REMARK    2  A    between atoms: O_2  and  C_14
REMARK    3  A    between atoms: O_3  and  C_13
REMARK    4  A    between atoms: O_3  and  C_17
REMARK    5  A    between atoms: C_12  and  C_13
REMARK    6  A    between atoms: C_16  and  C_20
REMARK                            x       y       z     vdW  Elec       q    Type
REMARK                         _______ _______ _______ _____ _____    ______ ____
ROOT
ATOM      1  O   UNL     1       0.675   0.326  23.619  0.00  0.00    -0.375 OA
ATOM      4  O   UNL     1      -0.261   5.051  24.571  0.00  0.00    -0.272 OA
ATOM      5  N   UNL     1      -0.365   2.820  25.243  0.00  0.00    -0.293 N 
ATOM      7  C   UNL     1      -0.643   0.315  25.675  0.00  0.00    +0.218 C 
ATOM      8  C   UNL     1      -1.106   1.753  25.923  0.00  0.00    +0.154 C 
ATOM      9  C   UNL     1       0.951   2.512  24.679  0.00  0.00    +0.136 C 
ATOM     10  C   UNL     1      -0.574  -0.046  24.194  0.00  0.00    +0.206 C 
ATOM     11  C   UNL     1       0.827   1.722  23.383  0.00  0.00    +0.179 C 
ATOM     12  C   UNL     1      -0.862   4.126  25.124  0.00  0.00    +0.253 C 
ENDROOT
BRANCH   7   2
ATOM      2  O   UNL     1      -1.589  -0.561  26.293  0.00  0.00    -0.469 OA
BRANCH   2  14
ATOM      6  N   UNL     1      -2.002  -2.301  24.819  0.00  0.00    -0.218 NA
ATOM     14  C   UNL     1      -2.462  -1.203  25.459  0.00  0.00    +0.215 A 
ATOM     15  C   UNL     1      -3.747  -0.702  25.316  0.00  0.00    +0.067 A 
ATOM     16  C   UNL     1      -2.876  -2.925  23.996  0.00  0.00    +0.042 A 
ATOM     18  C   UNL     1      -4.615  -1.371  24.461  0.00  0.00    +0.007 A 
ATOM     19  C   UNL     1      -4.178  -2.506  23.785  0.00  0.00    +0.023 A 
ATOM     20  C   UNL     1      -2.372  -4.137  23.285  0.00  0.00    +0.066 C 
ENDBRANCH   2  14
ENDBRANCH   7   2
BRANCH  12  13
ATOM     13  C   UNL     1      -2.228   4.383  25.715  0.00  0.00    +0.324 C 
BRANCH  13   3
ATOM      3  O   UNL     1      -3.152   4.231  24.668  0.00  0.00    -0.483 OA
BRANCH   3  17
ATOM     17  C   UNL     1      -4.231   3.404  24.890  0.00  0.00    +0.121 A 
ATOM     21  C   UNL     1      -4.649   2.520  23.894  0.00  0.00    +0.045 A 
ATOM     22  C   UNL     1      -4.907   3.451  26.109  0.00  0.00    +0.045 A 
ATOM     23  C   UNL     1      -5.741   1.682  24.119  0.00  0.00    +0.004 A 
ATOM     24  C   UNL     1      -6.000   2.613  26.334  0.00  0.00    +0.004 A 
ATOM     25  C   UNL     1      -6.418   1.729  25.338  0.00  0.00    +0.000 A 
ENDBRANCH   3  17
ENDBRANCH  13   3
ENDBRANCH  12  13
TORSDOF 5
ENDMDL
MODEL 6
REMARK VINA RESULT:      -3.5      1.893      5.408
REMARK  Name = 75367635
REMARK  6 active torsions:
REMARK  status: ('A' for Active; 'I' for Inactive)
REMARK    1  A    between atoms: O_2  and  C_7
REMARK    2  A    between atoms: O_2  and  C_14
REMARK    3  A    between atoms: O_3  and  C_13
REMARK    4  A    between atoms: O_3  and  C_17
REMARK    5  A    between atoms: C_12  and  C_13
REMARK    6  A    between atoms: C_16  and  C_20
REMARK                            x       y       z     vdW  Elec       q    Type
REMARK                         _______ _______ _______ _____ _____    ______ ____
ROOT
ATOM      1  O   UNL     1       0.501   1.594  23.677  0.00  0.00    -0.375 OA
ATOM      4  O   UNL     1      -1.344   5.979  24.891  0.00  0.00    -0.272 OA
ATOM      5  N   UNL     1      -0.953   3.752  25.458  0.00  0.00    -0.293 N 
ATOM      7  C   UNL     1      -0.686   1.228  25.780  0.00  0.00    +0.218 C 
ATOM      8  C   UNL     1      -1.424   2.527  26.114  0.00  0.00    +0.154 C 
ATOM      9  C   UNL     1       0.370   3.746  24.830  0.00  0.00    +0.136 C 
ATOM     10  C   UNL     1      -0.615   0.948  24.281  0.00  0.00    +0.206 C 
ATOM     11  C   UNL     1       0.350   2.999  23.503  0.00  0.00    +0.179 C 
ATOM     12  C   UNL     1      -1.713   4.929  25.422  0.00  0.00    +0.253 C 
ENDROOT
BRANCH   7   2
ATOM      2  O   UNL     1      -1.400   0.151  26.391  0.00  0.00    -0.469 OA
BRANCH   2  14
ATOM      6  N   UNL     1      -2.895  -1.138  25.177  0.00  0.00    -0.218 NA
ATOM     14  C   UNL     1      -1.630  -0.949  25.612  0.00  0.00    +0.215 A 
ATOM     15  C   UNL     1      -0.574  -1.798  25.319  0.00  0.00    +0.067 A 
ATOM     16  C   UNL     1      -3.109  -2.231  24.410  0.00  0.00    +0.042 A 
ATOM     18  C   UNL     1      -0.833  -2.911  24.528  0.00  0.00    +0.007 A 
ATOM     19  C   UNL     1      -2.123  -3.139  24.060  0.00  0.00    +0.023 A 
ATOM     20  C   UNL     1      -4.506  -2.446  23.928  0.00  0.00    +0.066 C 
ENDBRANCH   2  14
ENDBRANCH   7   2
BRANCH  12  13
ATOM     13  C   UNL     1      -3.073   4.872  26.077  0.00  0.00    +0.324 C 
BRANCH  13   3
ATOM      3  O   UNL     1      -4.000   4.614  25.054  0.00  0.00    -0.483 OA
BRANCH   3  17
ATOM     17  C   UNL     1      -4.580   3.365  25.024  0.00  0.00    +0.121 A 
ATOM     21  C   UNL     1      -4.126   2.407  24.116  0.00  0.00    +0.045 A 
ATOM     22  C   UNL     1      -5.621   3.058  25.899  0.00  0.00    +0.045 A 
ATOM     23  C   UNL     1      -4.713   1.142  24.086  0.00  0.00    +0.004 A 
ATOM     24  C   UNL     1      -6.208   1.793  25.868  0.00  0.00    +0.004 A 
ATOM     25  C   UNL     1      -5.755   0.835  24.961  0.00  0.00    +0.000 A 
ENDBRANCH   3  17
ENDBRANCH  13   3
ENDBRANCH  12  13
TORSDOF 5
ENDMDL
MODEL 7
REMARK VINA RESULT:      -3.1      1.887      5.055
REMARK  Name = 75367635
REMARK  6 active torsions:
REMARK  status: ('A' for Active; 'I' for Inactive)
REMARK    1  A    between atoms: O_2  and  C_7
REMARK    2  A    between atoms: O_2  and  C_14
REMARK    3  A    between atoms: O_3  and  C_13
REMARK    4  A    between atoms: O_3  and  C_17
REMARK    5  A    between atoms: C_12  and  C_13
REMARK    6  A    between atoms: C_16  and  C_20
REMARK                            x       y       z     vdW  Elec       q    Type
REMARK                         _______ _______ _______ _____ _____    ______ ____
ROOT
ATOM      1  O   UNL     1      -5.714   2.767  25.673  0.00  0.00    -0.375 OA
ATOM      4  O   UNL     1      -1.699   5.588  25.528  0.00  0.00    -0.272 OA
ATOM      5  N   UNL     1      -2.993   3.907  24.561  0.00  0.00    -0.293 N 
ATOM      7  C   UNL     1      -4.392   1.901  23.812  0.00  0.00    +0.218 C 
ATOM      8  C   UNL     1      -3.049   2.637  23.830  0.00  0.00    +0.154 C 
ATOM      9  C   UNL     1      -4.251   4.571  24.911  0.00  0.00    +0.136 C 
ATOM     10  C   UNL     1      -4.960   1.654  25.206  0.00  0.00    +0.206 C 
ATOM     11  C   UNL     1      -4.933   3.883  26.086  0.00  0.00    +0.179 C 
ATOM     12  C   UNL     1      -1.784   4.516  24.925  0.00  0.00    +0.253 C 
ENDROOT
BRANCH   7   2
ATOM      2  O   UNL     1      -4.184   0.629  23.194  0.00  0.00    -0.469 OA
BRANCH   2  14
ATOM      6  N   UNL     1      -3.840  -1.646  23.465  0.00  0.00    -0.218 NA
ATOM     14  C   UNL     1      -3.941  -0.424  24.031  0.00  0.00    +0.215 A 
ATOM     15  C   UNL     1      -3.817  -0.186  25.392  0.00  0.00    +0.067 A 
ATOM     16  C   UNL     1      -3.602  -2.679  24.305  0.00  0.00    +0.042 A 
ATOM     18  C   UNL     1      -3.573  -1.273  26.223  0.00  0.00    +0.007 A 
ATOM     19  C   UNL     1      -3.461  -2.548  25.676  0.00  0.00    +0.023 A 
ATOM     20  C   UNL     1      -3.492  -4.032  23.684  0.00  0.00    +0.066 C 
ENDBRANCH   2  14
ENDBRANCH   7   2
BRANCH  12  13
ATOM     13  C   UNL     1      -0.520   3.780  24.547  0.00  0.00    +0.324 C 
BRANCH  13   3
ATOM      3  O   UNL     1      -0.354   2.756  25.495  0.00  0.00    -0.483 OA
BRANCH   3  17
ATOM     17  C   UNL     1      -0.215   1.470  25.020  0.00  0.00    +0.121 A 
ATOM     21  C   UNL     1       0.339   1.248  23.758  0.00  0.00    +0.045 A 
ATOM     22  C   UNL     1      -0.628   0.390  25.799  0.00  0.00    +0.045 A 
ATOM     23  C   UNL     1       0.479  -0.053  23.278  0.00  0.00    +0.004 A 
ATOM     24  C   UNL     1      -0.488  -0.912  25.318  0.00  0.00    +0.004 A 
ATOM     25  C   UNL     1       0.066  -1.134  24.057  0.00  0.00    +0.000 A 
ENDBRANCH   3  17
ENDBRANCH  13   3
ENDBRANCH  12  13
TORSDOF 5
ENDMDL
MODEL 8
REMARK VINA RESULT:      -2.9      2.529      5.023
REMARK  Name = 75367635
REMARK  6 active torsions:
REMARK  status: ('A' for Active; 'I' for Inactive)
REMARK    1  A    between atoms: O_2  and  C_7
REMARK    2  A    between atoms: O_2  and  C_14
REMARK    3  A    between atoms: O_3  and  C_13
REMARK    4  A    between atoms: O_3  and  C_17
REMARK    5  A    between atoms: C_12  and  C_13
REMARK    6  A    between atoms: C_16  and  C_20
REMARK                            x       y       z     vdW  Elec       q    Type
REMARK                         _______ _______ _______ _____ _____    ______ ____
ROOT
ATOM      1  O   UNL     1      -5.733   3.447  25.290  0.00  0.00    -0.375 OA
ATOM      4  O   UNL     1      -0.932   4.467  25.170  0.00  0.00    -0.272 OA
ATOM      5  N   UNL     1      -2.649   2.911  24.912  0.00  0.00    -0.293 N 
ATOM      7  C   UNL     1      -4.630   1.294  24.955  0.00  0.00    +0.218 C 
ATOM      8  C   UNL     1      -3.123   1.534  25.081  0.00  0.00    +0.154 C 
ATOM      9  C   UNL     1      -3.544   3.890  24.293  0.00  0.00    +0.136 C 
ATOM     10  C   UNL     1      -5.458   2.181  25.880  0.00  0.00    +0.206 C 
ATOM     11  C   UNL     1      -4.627   4.343  25.264  0.00  0.00    +0.179 C 
ATOM     12  C   UNL     1      -1.368   3.322  25.308  0.00  0.00    +0.253 C 
ENDROOT
BRANCH   7   2
ATOM      2  O   UNL     1      -4.887  -0.066  25.311  0.00  0.00    -0.469 OA
BRANCH   2  14
ATOM      6  N   UNL     1      -2.690  -0.798  25.391  0.00  0.00    -0.218 NA
ATOM     14  C   UNL     1      -3.947  -0.984  24.933  0.00  0.00    +0.215 A 
ATOM     15  C   UNL     1      -4.327  -2.036  24.114  0.00  0.00    +0.067 A 
ATOM     16  C   UNL     1      -1.770  -1.713  25.007  0.00  0.00    +0.042 A 
ATOM     18  C   UNL     1      -3.354  -2.956  23.741  0.00  0.00    +0.007 A 
ATOM     19  C   UNL     1      -2.048  -2.798  24.193  0.00  0.00    +0.023 A 
ATOM     20  C   UNL     1      -0.378  -1.510  25.507  0.00  0.00    +0.066 C 
ENDBRANCH   2  14
ENDBRANCH   7   2
BRANCH  12  13
ATOM     13  C   UNL     1      -0.493   2.271  25.949  0.00  0.00    +0.324 C 
BRANCH  13   3
ATOM      3  O   UNL     1       0.706   2.912  26.307  0.00  0.00    -0.483 OA
BRANCH   3  17
ATOM     17  C   UNL     1       1.141   2.764  27.605  0.00  0.00    +0.121 A 
ATOM     21  C   UNL     1       2.494   2.917  27.910  0.00  0.00    +0.045 A 
ATOM     22  C   UNL     1       0.229   2.461  28.616  0.00  0.00    +0.045 A 
ATOM     23  C   UNL     1       2.934   2.767  29.225  0.00  0.00    +0.004 A 
ATOM     24  C   UNL     1       0.669   2.311  29.931  0.00  0.00    +0.004 A 
ATOM     25  C   UNL     1       2.022   2.463  30.236  0.00  0.00    +0.000 A 
ENDBRANCH   3  17
ENDBRANCH  13   3
ENDBRANCH  12  13
TORSDOF 5
ENDMDL
