MODEL 1
REMARK VINA RESULT:       9.5      0.000      0.000
REMARK  Name = 11884556
REMARK  5 active torsions:
REMARK  status: ('A' for Active; 'I' for Inactive)
REMARK    1  A    between atoms: O_4  and  C_30
REMARK    2  A    between atoms: O_4  and  C_35
REMARK    3  A    between atoms: N_7  and  C_18
REMARK    4  A    between atoms: N_8  and  C_25
REMARK    5  A    between atoms: N_9  and  C_29
REMARK                            x       y       z     vdW  Elec       q    Type
REMARK                         _______ _______ _______ _____ _____    ______ ____
ROOT
ATOM      1  O   UNL     1      -4.810  -0.436  23.831  0.00  0.00    -0.253 OA
ATOM      2  O   UNL     1      -0.283   3.003  25.888  0.00  0.00    -0.266 OA
ATOM      5  N   UNL     1      -5.036   1.421  25.207  0.00  0.00    -0.285 N 
ATOM      6  N   UNL     1      -2.441   3.331  25.054  0.00  0.00    -0.310 N 
ATOM      7  N   UNL     1      -4.378  -0.681  26.071  0.00  0.00    -0.296 N 
ATOM     10  C   UNL     1      -4.502   3.469  26.562  0.00  0.00    +0.027 C 
ATOM     11  C   UNL     1      -4.760   3.656  24.129  0.00  0.00    +0.054 C 
ATOM     12  C   UNL     1      -5.089   4.334  25.455  0.00  0.00    +0.018 C 
ATOM     13  C   UNL     1      -5.102   2.051  26.536  0.00  0.00    +0.114 C 
ATOM     14  C   UNL     1      -5.437   2.276  24.083  0.00  0.00    +0.119 C 
ATOM     15  C   UNL     1      -2.977   3.448  26.416  0.00  0.00    +0.130 C 
ATOM     16  C   UNL     1      -3.263   3.506  23.938  0.00  0.00    +0.027 A 
ATOM     17  C   UNL     1      -4.744   0.067  24.958  0.00  0.00    +0.302 C 
ATOM     19  C   UNL     1      -2.734   3.512  22.703  0.00  0.00    +0.024 A 
ATOM     20  C   UNL     1      -1.049   3.142  24.934  0.00  0.00    +0.273 A 
ATOM     25  C   UNL     1      -0.502   3.130  23.540  0.00  0.00    +0.100 A 
ATOM     27  C   UNL     1      -1.325   3.319  22.503  0.00  0.00    +0.030 A 
ATOM     36  H   UNL     1      -4.198  -0.236  26.959  0.00  0.00    +0.151 HD
ENDROOT
BRANCH  25   8
ATOM      3  O   UNL     1       0.898   0.689  23.947  0.00  0.00    -0.252 OA
ATOM      8  N   UNL     1       0.838   2.936  23.380  0.00  0.00    -0.265 N 
ATOM      9  N   UNL     1       2.854   1.838  23.344  0.00  0.00    -0.266 N 
ATOM     28  C   UNL     1       1.482   1.710  23.593  0.00  0.00    +0.308 C 
ATOM     37  H   UNL     1       1.423   3.767  23.343  0.00  0.00    +0.157 HD
ATOM     38  H   UNL     1       3.182   2.757  23.058  0.00  0.00    +0.156 HD
BRANCH   9  29
ATOM     29  C   UNL     1       3.851   0.840  23.444  0.00  0.00    +0.077 A 
ATOM     30  C   UNL     1       3.558  -0.491  23.148  0.00  0.00    +0.141 A 
ATOM     31  C   UNL     1       5.139   1.198  23.843  0.00  0.00    +0.027 A 
ATOM     32  C   UNL     1       4.552  -1.464  23.250  0.00  0.00    +0.047 A 
ATOM     33  C   UNL     1       6.133   0.225  23.946  0.00  0.00    +0.002 A 
ATOM     34  C   UNL     1       5.839  -1.106  23.649  0.00  0.00    +0.004 A 
BRANCH  30   4
ATOM      4  O   UNL     1       2.305  -0.861  22.756  0.00  0.00    -0.493 OA
ATOM     35  C   UNL     1       1.943  -0.588  21.405  0.00  0.00    +0.277 C 
ENDBRANCH  30   4
ENDBRANCH   9  29
ENDBRANCH  25   8
BRANCH   7  18
ATOM     18  C   UNL     1      -4.053  -2.087  25.982  0.00  0.00    +0.074 C 
ATOM     21  C   UNL     1      -2.717  -2.387  26.671  0.00  0.00    +0.022 C 
ATOM     22  C   UNL     1      -4.046  -2.560  24.525  0.00  0.00    +0.022 C 
ATOM     23  C   UNL     1      -1.520  -1.854  25.885  0.00  0.00    +0.002 C 
ATOM     24  C   UNL     1      -2.847  -2.026  23.742  0.00  0.00    +0.002 C 
ATOM     26  C   UNL     1      -1.529  -2.347  24.441  0.00  0.00    +0.000 C 
ENDBRANCH   7  18
TORSDOF 4
ENDMDL
