MODEL 1
REMARK VINA RESULT:      10.0      0.000      0.000
REMARK  Name = 44716361
REMARK  10 active torsions:
REMARK  status: ('A' for Active; 'I' for Inactive)
REMARK    1  A    between atoms: O_1  and  C_15
REMARK    2  A    between atoms: O_1  and  C_20
REMARK    3  A    between atoms: N_4  and  C_18
REMARK    4  A    between atoms: N_6  and  C_26
REMARK    5  A    between atoms: C_8  and  C_14
REMARK    6  A    between atoms: C_9  and  C_15
REMARK    7  A    between atoms: C_17  and  C_19
REMARK    8  A    between atoms: C_33  and  C_36
REMARK    9  A    between atoms: C_36  and  C_37
REMARK   10  A    between atoms: C_36  and  C_38
REMARK                            x       y       z     vdW  Elec       q    Type
REMARK                         _______ _______ _______ _____ _____    ______ ____
ROOT
ATOM      3  N   UNL     1      -5.420   2.665  26.024  0.00  0.00    -0.296 NA
ATOM      7  C   UNL     1      -5.238   1.104  23.948  0.00  0.00    +0.002 C 
ATOM      8  C   UNL     1      -4.310   0.602  25.089  0.00  0.00    +0.055 C 
ATOM      9  C   UNL     1      -5.185   3.474  24.800  0.00  0.00    +0.095 C 
ATOM     10  C   UNL     1      -4.870   2.560  23.595  0.00  0.00    +0.026 C 
ATOM     11  C   UNL     1      -6.673   1.124  24.516  0.00  0.00    +0.019 C 
ATOM     12  C   UNL     1      -4.320   1.685  26.204  0.00  0.00    +0.094 C 
ATOM     13  C   UNL     1      -6.683   1.913  25.838  0.00  0.00    +0.085 C 
ENDROOT
BRANCH   8  14
ATOM      4  N   UNL     1      -2.538  -1.153  24.618  0.00  0.00    -0.270 N 
ATOM      5  N   UNL     1      -1.248  -1.334  24.289  0.00  0.00    -0.171 NA
ATOM     14  C   UNL     1      -2.901   0.157  24.726  0.00  0.00    +0.044 A 
ATOM     16  C   UNL     1      -1.768   0.884  24.449  0.00  0.00    +0.053 A 
ATOM     17  C   UNL     1      -0.783  -0.086  24.187  0.00  0.00    +0.093 A 
ATOM     18  C   UNL     1      -3.384  -2.307  24.819  0.00  0.00    +0.172 C 
BRANCH  17  19
ATOM     19  C   UNL     1       0.594   0.156  23.844  0.00  0.00    +0.003 A 
ATOM     21  C   UNL     1       1.546  -0.847  24.028  0.00  0.00    +0.018 A 
ATOM     22  C   UNL     1       0.975   1.391  23.329  0.00  0.00    +0.011 A 
ATOM     23  C   UNL     1       2.893  -0.627  23.699  0.00  0.00    -0.017 A 
ATOM     24  C   UNL     1       2.310   1.627  22.997  0.00  0.00    +0.009 A 
ATOM     25  C   UNL     1       3.280   0.629  23.176  0.00  0.00    -0.018 A 
ATOM     27  C   UNL     1       3.863  -1.627  23.878  0.00  0.00    +0.008 A 
ATOM     28  C   UNL     1       4.629   0.849  22.847  0.00  0.00    +0.008 A 
ATOM     31  C   UNL     1       5.198  -1.389  23.546  0.00  0.00    +0.001 A 
ATOM     32  C   UNL     1       5.579  -0.154  23.031  0.00  0.00    +0.001 A 
ENDBRANCH  17  19
ENDBRANCH   8  14
BRANCH   9  15
ATOM     15  C   UNL     1      -4.108   4.541  25.003  0.00  0.00    +0.252 C 
BRANCH  15   1
ATOM      1  O   UNL     1      -3.031   4.260  24.129  0.00  0.00    -0.449 OA
BRANCH   1  20
ATOM      2  O   UNL     1      -0.798   4.750  24.209  0.00  0.00    -0.226 OA
ATOM      6  N   UNL     1      -1.832   3.433  25.845  0.00  0.00    -0.251 N 
ATOM     20  C   UNL     1      -1.776   4.196  24.695  0.00  0.00    +0.405 C 
ATOM     39  H   UNL     1      -2.743   3.052  26.089  0.00  0.00    +0.158 HD
BRANCH   6  26
ATOM     26  C   UNL     1      -0.776   3.113  26.729  0.00  0.00    +0.036 A 
ATOM     29  C   UNL     1       0.506   2.887  26.231  0.00  0.00    +0.024 A 
ATOM     30  C   UNL     1      -1.019   3.025  28.100  0.00  0.00    +0.024 A 
ATOM     33  C   UNL     1       1.305   2.482  28.475  0.00  0.00    -0.045 A 
ATOM     34  C   UNL     1       1.548   2.570  27.104  0.00  0.00    +0.006 A 
ATOM     35  C   UNL     1       0.023   2.709  28.974  0.00  0.00    +0.006 A 
BRANCH  33  36
ATOM     36  C   UNL     1       2.419   2.146  29.408  0.00  0.00    +0.013 C 
ATOM     37  C   UNL     1       3.542   3.201  29.390  0.00  0.00    +0.012 C 
ATOM     38  C   UNL     1       1.932   1.928  30.853  0.00  0.00    +0.012 C 
ENDBRANCH  33  36
ENDBRANCH   6  26
ENDBRANCH   1  20
ENDBRANCH  15   1
ENDBRANCH   9  15
TORSDOF 7
ENDMDL
MODEL 2
REMARK VINA RESULT:      12.8      2.819      5.041
REMARK  Name = 44716361
REMARK  10 active torsions:
REMARK  status: ('A' for Active; 'I' for Inactive)
REMARK    1  A    between atoms: O_1  and  C_15
REMARK    2  A    between atoms: O_1  and  C_20
REMARK    3  A    between atoms: N_4  and  C_18
REMARK    4  A    between atoms: N_6  and  C_26
REMARK    5  A    between atoms: C_8  and  C_14
REMARK    6  A    between atoms: C_9  and  C_15
REMARK    7  A    between atoms: C_17  and  C_19
REMARK    8  A    between atoms: C_33  and  C_36
REMARK    9  A    between atoms: C_36  and  C_37
REMARK   10  A    between atoms: C_36  and  C_38
REMARK                            x       y       z     vdW  Elec       q    Type
REMARK                         _______ _______ _______ _____ _____    ______ ____
ROOT
ATOM      3  N   UNL     1      -4.298   4.715  24.700  0.00  0.00    -0.296 NA
ATOM      7  C   UNL     1      -1.716   5.048  24.658  0.00  0.00    +0.002 C 
ATOM      8  C   UNL     1      -2.148   4.013  23.582  0.00  0.00    +0.055 C 
ATOM      9  C   UNL     1      -3.747   4.589  26.075  0.00  0.00    +0.095 C 
ATOM     10  C   UNL     1      -2.203   4.577  26.043  0.00  0.00    +0.026 C 
ATOM     11  C   UNL     1      -2.460   6.361  24.337  0.00  0.00    +0.019 C 
ATOM     12  C   UNL     1      -3.659   3.720  23.803  0.00  0.00    +0.094 C 
ATOM     13  C   UNL     1      -3.965   6.070  24.199  0.00  0.00    +0.085 C 
ENDROOT
BRANCH   8  14
ATOM      4  N   UNL     1      -1.836   1.579  22.934  0.00  0.00    -0.270 N 
ATOM      5  N   UNL     1      -0.948   0.571  22.891  0.00  0.00    -0.171 NA
ATOM     14  C   UNL     1      -1.327   2.740  23.438  0.00  0.00    +0.044 A 
ATOM     16  C   UNL     1      -0.015   2.473  23.746  0.00  0.00    +0.053 A 
ATOM     17  C   UNL     1       0.162   1.123  23.387  0.00  0.00    +0.093 A 
ATOM     18  C   UNL     1      -3.184   1.354  22.467  0.00  0.00    +0.172 C 
BRANCH  17  19
ATOM     19  C   UNL     1       1.370   0.350  23.514  0.00  0.00    +0.003 A 
ATOM     21  C   UNL     1       2.610   0.956  23.311  0.00  0.00    +0.018 A 
ATOM     22  C   UNL     1       1.300  -1.001  23.838  0.00  0.00    +0.011 A 
ATOM     23  C   UNL     1       3.797   0.216  23.430  0.00  0.00    -0.017 A 
ATOM     24  C   UNL     1       2.470  -1.752  23.960  0.00  0.00    +0.009 A 
ATOM     25  C   UNL     1       3.726  -1.158  23.759  0.00  0.00    -0.018 A 
ATOM     27  C   UNL     1       5.054   0.810  23.230  0.00  0.00    +0.008 A 
ATOM     28  C   UNL     1       4.914  -1.899  23.879  0.00  0.00    +0.008 A 
ATOM     31  C   UNL     1       6.224   0.059  23.352  0.00  0.00    +0.001 A 
ATOM     32  C   UNL     1       6.153  -1.292  23.676  0.00  0.00    +0.001 A 
ENDBRANCH  17  19
ENDBRANCH   8  14
BRANCH   9  15
ATOM     15  C   UNL     1      -4.311   3.378  26.820  0.00  0.00    +0.252 C 
BRANCH  15   1
ATOM      1  O   UNL     1      -5.518   2.990  26.192  0.00  0.00    -0.449 OA
BRANCH   1  20
ATOM      2  O   UNL     1      -6.415   1.440  24.769  0.00  0.00    -0.226 OA
ATOM      6  N   UNL     1      -4.320   1.132  25.768  0.00  0.00    -0.251 N 
ATOM     20  C   UNL     1      -5.500   1.800  25.498  0.00  0.00    +0.405 C 
ATOM     39  H   UNL     1      -3.677   1.595  26.406  0.00  0.00    +0.158 HD
BRANCH   6  26
ATOM     26  C   UNL     1      -3.895  -0.120  25.267  0.00  0.00    +0.036 A 
ATOM     29  C   UNL     1      -2.685  -0.665  25.692  0.00  0.00    +0.024 A 
ATOM     30  C   UNL     1      -4.687  -0.808  24.349  0.00  0.00    +0.024 A 
ATOM     33  C   UNL     1      -3.056  -2.589  24.279  0.00  0.00    -0.045 A 
ATOM     34  C   UNL     1      -2.264  -1.900  25.197  0.00  0.00    +0.006 A 
ATOM     35  C   UNL     1      -4.268  -2.043  23.854  0.00  0.00    +0.006 A 
BRANCH  33  36
ATOM     36  C   UNL     1      -2.608  -3.910  23.751  0.00  0.00    +0.013 C 
ATOM     37  C   UNL     1      -3.649  -4.555  22.815  0.00  0.00    +0.012 C 
ATOM     38  C   UNL     1      -1.245  -3.828  23.037  0.00  0.00    +0.012 C 
ENDBRANCH  33  36
ENDBRANCH   6  26
ENDBRANCH   1  20
ENDBRANCH  15   1
ENDBRANCH   9  15
TORSDOF 7
ENDMDL
MODEL 3
REMARK VINA RESULT:      13.8      2.811      4.649
REMARK  Name = 44716361
REMARK  10 active torsions:
REMARK  status: ('A' for Active; 'I' for Inactive)
REMARK    1  A    between atoms: O_1  and  C_15
REMARK    2  A    between atoms: O_1  and  C_20
REMARK    3  A    between atoms: N_4  and  C_18
REMARK    4  A    between atoms: N_6  and  C_26
REMARK    5  A    between atoms: C_8  and  C_14
REMARK    6  A    between atoms: C_9  and  C_15
REMARK    7  A    between atoms: C_17  and  C_19
REMARK    8  A    between atoms: C_33  and  C_36
REMARK    9  A    between atoms: C_36  and  C_37
REMARK   10  A    between atoms: C_36  and  C_38
REMARK                            x       y       z     vdW  Elec       q    Type
REMARK                         _______ _______ _______ _____ _____    ______ ____
ROOT
ATOM      3  N   UNL     1      -4.806   5.140  24.990  0.00  0.00    -0.296 NA
ATOM      7  C   UNL     1      -3.069   3.904  26.486  0.00  0.00    +0.002 C 
ATOM      8  C   UNL     1      -2.452   4.241  25.100  0.00  0.00    +0.055 C 
ATOM      9  C   UNL     1      -5.414   3.911  25.566  0.00  0.00    +0.095 C 
ATOM     10  C   UNL     1      -4.344   3.060  26.284  0.00  0.00    +0.026 C 
ATOM     11  C   UNL     1      -3.506   5.244  27.116  0.00  0.00    +0.019 C 
ATOM     12  C   UNL     1      -3.598   4.788  24.203  0.00  0.00    +0.094 C 
ATOM     13  C   UNL     1      -4.388   6.011  26.115  0.00  0.00    +0.085 C 
ENDROOT
BRANCH   8  14
ATOM      4  N   UNL     1      -2.065   2.504  23.290  0.00  0.00    -0.270 N 
ATOM      5  N   UNL     1      -1.192   1.595  22.825  0.00  0.00    -0.171 NA
ATOM     14  C   UNL     1      -1.630   3.169  24.399  0.00  0.00    +0.044 A 
ATOM     16  C   UNL     1      -0.386   2.658  24.679  0.00  0.00    +0.053 A 
ATOM     17  C   UNL     1      -0.168   1.694  23.677  0.00  0.00    +0.093 A 
ATOM     18  C   UNL     1      -3.326   2.687  22.609  0.00  0.00    +0.172 C 
BRANCH  17  19
ATOM     19  C   UNL     1       0.998   0.864  23.519  0.00  0.00    +0.003 A 
ATOM     21  C   UNL     1       2.271   1.421  23.632  0.00  0.00    +0.018 A 
ATOM     22  C   UNL     1       0.853  -0.495  23.256  0.00  0.00    +0.011 A 
ATOM     23  C   UNL     1       3.418   0.625  23.481  0.00  0.00    -0.017 A 
ATOM     24  C   UNL     1       1.981  -1.301  23.103  0.00  0.00    +0.009 A 
ATOM     25  C   UNL     1       3.271  -0.756  23.212  0.00  0.00    -0.018 A 
ATOM     27  C   UNL     1       4.708   1.170  23.591  0.00  0.00    +0.008 A 
ATOM     28  C   UNL     1       4.418  -1.553  23.061  0.00  0.00    +0.008 A 
ATOM     31  C   UNL     1       5.836   0.364  23.437  0.00  0.00    +0.001 A 
ATOM     32  C   UNL     1       5.691  -0.995  23.174  0.00  0.00    +0.001 A 
ENDBRANCH  17  19
ENDBRANCH   8  14
BRANCH   9  15
ATOM     15  C   UNL     1      -6.184   3.098  24.524  0.00  0.00    +0.252 C 
BRANCH  15   1
ATOM      1  O   UNL     1      -6.824   2.021  25.181  0.00  0.00    -0.449 OA
BRANCH   1  20
ATOM      2  O   UNL     1      -6.111   0.541  26.773  0.00  0.00    -0.226 OA
ATOM      6  N   UNL     1      -5.120   0.647  24.654  0.00  0.00    -0.251 N 
ATOM     20  C   UNL     1      -6.013   1.009  25.645  0.00  0.00    +0.405 C 
ATOM     39  H   UNL     1      -5.193   1.156  23.776  0.00  0.00    +0.158 HD
BRANCH   6  26
ATOM     26  C   UNL     1      -4.116  -0.345  24.707  0.00  0.00    +0.036 A 
ATOM     29  C   UNL     1      -4.292  -1.553  24.034  0.00  0.00    +0.024 A 
ATOM     30  C   UNL     1      -2.947  -0.115  25.434  0.00  0.00    +0.024 A 
ATOM     33  C   UNL     1      -2.132  -2.303  24.814  0.00  0.00    -0.045 A 
ATOM     34  C   UNL     1      -3.300  -2.533  24.087  0.00  0.00    +0.006 A 
ATOM     35  C   UNL     1      -1.955  -1.094  25.488  0.00  0.00    +0.006 A 
BRANCH  33  36
ATOM     36  C   UNL     1      -1.070  -3.349  24.869  0.00  0.00    +0.013 C 
ATOM     37  C   UNL     1      -0.735  -3.922  23.478  0.00  0.00    +0.012 C 
ATOM     38  C   UNL     1       0.217  -2.848  25.551  0.00  0.00    +0.012 C 
ENDBRANCH  33  36
ENDBRANCH   6  26
ENDBRANCH   1  20
ENDBRANCH  15   1
ENDBRANCH   9  15
TORSDOF 7
ENDMDL
