MODEL 1
REMARK VINA RESULT:      -1.5      0.000      0.000
REMARK  Name = 38029086
REMARK  13 active torsions:
REMARK  status: ('A' for Active; 'I' for Inactive)
REMARK    1  A    between atoms: S_1  and  N_5
REMARK    2  A    between atoms: S_1  and  C_21
REMARK    3  A    between atoms: N_5  and  C_15
REMARK    4  A    between atoms: N_6  and  C_22
REMARK    5  A    between atoms: N_6  and  C_23
REMARK    6  A    between atoms: C_8  and  C_12
REMARK    7  A    between atoms: C_9  and  C_15
REMARK    8  A    between atoms: C_11  and  C_16
REMARK    9  A    between atoms: C_12  and  C_17
REMARK   10  A    between atoms: C_12  and  C_18
REMARK   11  A    between atoms: C_13  and  C_19
REMARK   12  A    between atoms: C_16  and  C_20
REMARK   13  A    between atoms: C_22  and  C_24
REMARK                            x       y       z     vdW  Elec       q    Type
REMARK                         _______ _______ _______ _____ _____    ______ ____
ROOT
ATOM      8  C   UNL     1      -2.705  -1.520  24.335  0.00  0.00    +0.000 C 
ATOM      9  C   UNL     1      -3.321  -0.819  25.571  0.00  0.00    +0.030 C 
ATOM     10  C   UNL     1      -1.190  -1.695  24.517  0.00  0.00    +0.012 C 
ATOM     11  C   UNL     1      -0.469  -0.349  24.725  0.00  0.00    +0.023 C 
ATOM     13  C   UNL     1      -1.177   0.518  25.746  0.00  0.00    -0.073 C 
ATOM     14  C   UNL     1      -2.448   0.284  26.121  0.00  0.00    -0.023 C 
ATOM     19  C   UNL     1      -0.378   1.632  26.361  0.00  0.00    +0.039 C 
ENDROOT
BRANCH   8  12
ATOM     12  C   UNL     1      -3.355  -2.880  24.069  0.00  0.00    -0.013 C 
ATOM     17  C   UNL     1      -3.519  -3.656  25.373  0.00  0.00    +0.007 C 
ATOM     18  C   UNL     1      -4.701  -2.700  23.375  0.00  0.00    +0.007 C 
ENDBRANCH   8  12
BRANCH   9  15
ATOM     15  C   UNL     1      -4.712  -0.259  25.254  0.00  0.00    +0.113 C 
BRANCH  15   5
ATOM      5  N   UNL     1      -4.978   0.890  26.133  0.00  0.00    -0.189 NA
ATOM     34  H   UNL     1      -5.301   0.670  27.084  0.00  0.00    +0.148 HD
BRANCH   5   1
ATOM      1  S   UNL     1      -5.470   2.382  25.471  0.00  0.00    +0.058 S 
ATOM      3  O   UNL     1      -6.123   3.169  26.499  0.00  0.00    -0.153 OA
ATOM      4  O   UNL     1      -6.133   2.143  24.203  0.00  0.00    -0.153 OA
BRANCH   1  21
ATOM     21  C   UNL     1      -3.916   3.142  25.107  0.00  0.00    +0.105 A 
ATOM     25  C   UNL     1      -3.282   2.884  23.892  0.00  0.00    +0.028 A 
ATOM     26  C   UNL     1      -3.324   3.998  26.035  0.00  0.00    +0.028 A 
ATOM     27  C   UNL     1      -2.054   3.481  23.605  0.00  0.00    +0.002 A 
ATOM     28  C   UNL     1      -2.096   4.596  25.748  0.00  0.00    +0.002 A 
ATOM     31  C   UNL     1      -1.462   4.337  24.533  0.00  0.00    +0.000 A 
ENDBRANCH   1  21
ENDBRANCH   5   1
ENDBRANCH  15   5
ENDBRANCH   9  15
BRANCH  11  16
ATOM     16  C   UNL     1      -0.297   0.397  23.397  0.00  0.00    +0.103 C 
BRANCH  16  20
ATOM      2  O   UNL     1       1.737   1.594  23.822  0.00  0.00    -0.276 OA
ATOM      6  N   UNL     1       1.753   0.094  22.053  0.00  0.00    -0.300 N 
ATOM     20  C   UNL     1       1.152   0.760  23.125  0.00  0.00    +0.216 C 
ATOM     23  C   UNL     1       1.042  -0.887  21.243  0.00  0.00    +0.132 C 
BRANCH   6  22
ATOM     22  C   UNL     1       3.141   0.331  21.663  0.00  0.00    +0.144 C 
BRANCH  22  24
ATOM      7  N   UNL     1       4.937  -1.764  24.248  0.00  0.00    -0.263 NA
ATOM     24  C   UNL     1       4.105  -0.064  22.743  0.00  0.00    -0.012 A 
ATOM     29  C   UNL     1       5.030   0.844  23.246  0.00  0.00    +0.008 A 
ATOM     30  C   UNL     1       4.100  -1.344  23.273  0.00  0.00    +0.115 A 
ATOM     32  C   UNL     1       5.910   0.449  24.249  0.00  0.00    +0.020 A 
ATOM     33  C   UNL     1       5.823  -0.853  24.711  0.00  0.00    +0.111 A 
ENDBRANCH  22  24
ENDBRANCH   6  22
ENDBRANCH  16  20
ENDBRANCH  11  16
TORSDOF 9
ENDMDL
MODEL 2
REMARK VINA RESULT:      -0.6      1.412      4.347
REMARK  Name = 38029086
REMARK  13 active torsions:
REMARK  status: ('A' for Active; 'I' for Inactive)
REMARK    1  A    between atoms: S_1  and  N_5
REMARK    2  A    between atoms: S_1  and  C_21
REMARK    3  A    between atoms: N_5  and  C_15
REMARK    4  A    between atoms: N_6  and  C_22
REMARK    5  A    between atoms: N_6  and  C_23
REMARK    6  A    between atoms: C_8  and  C_12
REMARK    7  A    between atoms: C_9  and  C_15
REMARK    8  A    between atoms: C_11  and  C_16
REMARK    9  A    between atoms: C_12  and  C_17
REMARK   10  A    between atoms: C_12  and  C_18
REMARK   11  A    between atoms: C_13  and  C_19
REMARK   12  A    between atoms: C_16  and  C_20
REMARK   13  A    between atoms: C_22  and  C_24
REMARK                            x       y       z     vdW  Elec       q    Type
REMARK                         _______ _______ _______ _____ _____    ______ ____
ROOT
ATOM      8  C   UNL     1      -2.248   3.683  25.044  0.00  0.00    +0.000 C 
ATOM      9  C   UNL     1      -3.467   3.870  24.108  0.00  0.00    +0.030 C 
ATOM     10  C   UNL     1      -0.991   3.346  24.227  0.00  0.00    +0.012 C 
ATOM     11  C   UNL     1      -1.166   2.064  23.390  0.00  0.00    +0.023 C 
ATOM     13  C   UNL     1      -2.482   2.057  22.641  0.00  0.00    -0.073 C 
ATOM     14  C   UNL     1      -3.494   2.880  22.967  0.00  0.00    -0.023 C 
ATOM     19  C   UNL     1      -2.594   1.112  21.477  0.00  0.00    +0.039 C 
ENDROOT
BRANCH   8  12
ATOM     12  C   UNL     1      -1.991   4.926  25.901  0.00  0.00    -0.013 C 
ATOM     17  C   UNL     1      -1.703   6.134  25.014  0.00  0.00    +0.007 C 
ATOM     18  C   UNL     1      -3.182   5.198  26.814  0.00  0.00    +0.007 C 
ENDBRANCH   8  12
BRANCH   9  15
ATOM     15  C   UNL     1      -4.783   3.786  24.889  0.00  0.00    +0.113 C 
BRANCH  15   5
ATOM      5  N   UNL     1      -4.729   2.631  25.798  0.00  0.00    -0.189 NA
ATOM     34  H   UNL     1      -3.802   2.390  26.172  0.00  0.00    +0.148 HD
BRANCH   5   1
ATOM      1  S   UNL     1      -5.860   1.366  25.647  0.00  0.00    +0.058 S 
ATOM      3  O   UNL     1      -6.702   1.614  24.492  0.00  0.00    -0.153 OA
ATOM      4  O   UNL     1      -6.457   1.104  26.942  0.00  0.00    -0.153 OA
BRANCH   1  21
ATOM     21  C   UNL     1      -4.814  -0.009  25.272  0.00  0.00    +0.105 A 
ATOM     25  C   UNL     1      -4.859  -0.594  24.007  0.00  0.00    +0.028 A 
ATOM     26  C   UNL     1      -3.945  -0.509  26.242  0.00  0.00    +0.028 A 
ATOM     27  C   UNL     1      -4.035  -1.681  23.712  0.00  0.00    +0.002 A 
ATOM     28  C   UNL     1      -3.122  -1.596  25.947  0.00  0.00    +0.002 A 
ATOM     31  C   UNL     1      -3.167  -2.181  24.682  0.00  0.00    +0.000 A 
ENDBRANCH   1  21
ENDBRANCH   5   1
ENDBRANCH  15   5
ENDBRANCH   9  15
BRANCH  11  16
ATOM     16  C   UNL     1      -1.024   0.812  24.262  0.00  0.00    +0.103 C 
BRANCH  16  20
ATOM      2  O   UNL     1      -0.510  -1.408  23.516  0.00  0.00    -0.276 OA
ATOM      6  N   UNL     1       1.110   0.215  23.170  0.00  0.00    -0.300 N 
ATOM     20  C   UNL     1      -0.134  -0.238  23.621  0.00  0.00    +0.216 C 
ATOM     23  C   UNL     1       1.533   1.603  23.305  0.00  0.00    +0.132 C 
BRANCH   6  22
ATOM     22  C   UNL     1       2.081  -0.671  22.530  0.00  0.00    +0.144 C 
BRANCH  22  24
ATOM      7  N   UNL     1       5.337  -1.393  24.311  0.00  0.00    -0.263 NA
ATOM     24  C   UNL     1       3.462  -0.484  23.084  0.00  0.00    -0.012 A 
ATOM     29  C   UNL     1       4.148   0.714  22.911  0.00  0.00    +0.008 A 
ATOM     30  C   UNL     1       4.096  -1.497  23.785  0.00  0.00    +0.115 A 
ATOM     32  C   UNL     1       5.428   0.858  23.437  0.00  0.00    +0.020 A 
ATOM     33  C   UNL     1       5.972  -0.215  24.122  0.00  0.00    +0.111 A 
ENDBRANCH  22  24
ENDBRANCH   6  22
ENDBRANCH  16  20
ENDBRANCH  11  16
TORSDOF 9
ENDMDL
MODEL 3
REMARK VINA RESULT:      -0.4      2.280      6.729
REMARK  Name = 38029086
REMARK  13 active torsions:
REMARK  status: ('A' for Active; 'I' for Inactive)
REMARK    1  A    between atoms: S_1  and  N_5
REMARK    2  A    between atoms: S_1  and  C_21
REMARK    3  A    between atoms: N_5  and  C_15
REMARK    4  A    between atoms: N_6  and  C_22
REMARK    5  A    between atoms: N_6  and  C_23
REMARK    6  A    between atoms: C_8  and  C_12
REMARK    7  A    between atoms: C_9  and  C_15
REMARK    8  A    between atoms: C_11  and  C_16
REMARK    9  A    between atoms: C_12  and  C_17
REMARK   10  A    between atoms: C_12  and  C_18
REMARK   11  A    between atoms: C_13  and  C_19
REMARK   12  A    between atoms: C_16  and  C_20
REMARK   13  A    between atoms: C_22  and  C_24
REMARK                            x       y       z     vdW  Elec       q    Type
REMARK                         _______ _______ _______ _____ _____    ______ ____
ROOT
ATOM      8  C   UNL     1      -2.901  -1.145  24.628  0.00  0.00    +0.000 C 
ATOM      9  C   UNL     1      -1.749  -0.447  23.863  0.00  0.00    +0.030 C 
ATOM     10  C   UNL     1      -4.233  -0.944  23.890  0.00  0.00    +0.012 C 
ATOM     11  C   UNL     1      -4.589   0.546  23.724  0.00  0.00    +0.023 C 
ATOM     13  C   UNL     1      -3.409   1.354  23.223  0.00  0.00    -0.073 C 
ATOM     14  C   UNL     1      -2.149   0.888  23.282  0.00  0.00    -0.023 C 
ATOM     19  C   UNL     1      -3.716   2.692  22.611  0.00  0.00    +0.039 C 
ENDROOT
BRANCH   8  12
ATOM     12  C   UNL     1      -2.634  -2.640  24.818  0.00  0.00    -0.013 C 
ATOM     17  C   UNL     1      -3.889  -3.449  24.508  0.00  0.00    +0.007 C 
ATOM     18  C   UNL     1      -1.471  -3.089  23.939  0.00  0.00    +0.007 C 
ENDBRANCH   8  12
BRANCH   9  15
ATOM     15  C   UNL     1      -0.519  -0.265  24.760  0.00  0.00    +0.113 C 
BRANCH  15   5
ATOM      5  N   UNL     1       0.668  -0.776  24.058  0.00  0.00    -0.189 NA
ATOM     34  H   UNL     1       1.252  -1.442  24.579  0.00  0.00    +0.148 HD
BRANCH   5   1
ATOM      1  S   UNL     1       1.438   0.174  22.872  0.00  0.00    +0.058 S 
ATOM      3  O   UNL     1       1.159   1.575  23.126  0.00  0.00    -0.153 OA
ATOM      4  O   UNL     1       1.179  -0.395  21.563  0.00  0.00    -0.153 OA
BRANCH   1  21
ATOM     21  C   UNL     1       3.144  -0.115  23.233  0.00  0.00    +0.105 A 
ATOM     25  C   UNL     1       3.559  -1.368  23.681  0.00  0.00    +0.028 A 
ATOM     26  C   UNL     1       4.075   0.911  23.071  0.00  0.00    +0.028 A 
ATOM     27  C   UNL     1       4.905  -1.597  23.969  0.00  0.00    +0.002 A 
ATOM     28  C   UNL     1       5.421   0.684  23.359  0.00  0.00    +0.002 A 
ATOM     31  C   UNL     1       5.836  -0.571  23.808  0.00  0.00    +0.000 A 
ENDBRANCH   1  21
ENDBRANCH   5   1
ENDBRANCH  15   5
ENDBRANCH   9  15
BRANCH  11  16
ATOM     16  C   UNL     1      -5.140   1.131  25.029  0.00  0.00    +0.103 C 
BRANCH  16  20
ATOM      2  O   UNL     1      -3.058   1.520  26.155  0.00  0.00    -0.276 OA
ATOM      6  N   UNL     1      -4.470   3.342  25.904  0.00  0.00    -0.300 N 
ATOM     20  C   UNL     1      -4.120   1.998  25.747  0.00  0.00    +0.216 C 
ATOM     23  C   UNL     1      -5.732   3.885  25.414  0.00  0.00    +0.132 C 
BRANCH   6  22
ATOM     22  C   UNL     1      -3.598   4.306  26.572  0.00  0.00    +0.144 C 
BRANCH  22  24
ATOM      7  N   UNL     1      -0.103   3.470  25.397  0.00  0.00    -0.263 NA
ATOM     24  C   UNL     1      -2.268   4.428  25.889  0.00  0.00    -0.012 A 
ATOM     29  C   UNL     1      -1.946   5.555  25.141  0.00  0.00    +0.008 A 
ATOM     30  C   UNL     1      -1.320   3.422  25.984  0.00  0.00    +0.115 A 
ATOM     32  C   UNL     1      -0.704   5.641  24.521  0.00  0.00    +0.020 A 
ATOM     33  C   UNL     1       0.173   4.581  24.678  0.00  0.00    +0.111 A 
ENDBRANCH  22  24
ENDBRANCH   6  22
ENDBRANCH  16  20
ENDBRANCH  11  16
TORSDOF 9
ENDMDL
MODEL 4
REMARK VINA RESULT:       0.3      2.188      7.697
REMARK  Name = 38029086
REMARK  13 active torsions:
REMARK  status: ('A' for Active; 'I' for Inactive)
REMARK    1  A    between atoms: S_1  and  N_5
REMARK    2  A    between atoms: S_1  and  C_21
REMARK    3  A    between atoms: N_5  and  C_15
REMARK    4  A    between atoms: N_6  and  C_22
REMARK    5  A    between atoms: N_6  and  C_23
REMARK    6  A    between atoms: C_8  and  C_12
REMARK    7  A    between atoms: C_9  and  C_15
REMARK    8  A    between atoms: C_11  and  C_16
REMARK    9  A    between atoms: C_12  and  C_17
REMARK   10  A    between atoms: C_12  and  C_18
REMARK   11  A    between atoms: C_13  and  C_19
REMARK   12  A    between atoms: C_16  and  C_20
REMARK   13  A    between atoms: C_22  and  C_24
REMARK                            x       y       z     vdW  Elec       q    Type
REMARK                         _______ _______ _______ _____ _____    ______ ____
ROOT
ATOM      8  C   UNL     1      -1.406   0.387  24.674  0.00  0.00    +0.000 C 
ATOM      9  C   UNL     1      -0.695  -0.979  24.506  0.00  0.00    +0.030 C 
ATOM     10  C   UNL     1      -2.493   0.296  25.755  0.00  0.00    +0.012 C 
ATOM     11  C   UNL     1      -3.555  -0.771  25.425  0.00  0.00    +0.023 C 
ATOM     13  C   UNL     1      -2.925  -2.077  24.988  0.00  0.00    -0.073 C 
ATOM     14  C   UNL     1      -1.642  -2.153  24.593  0.00  0.00    -0.023 C 
ATOM     19  C   UNL     1      -3.791  -3.304  25.058  0.00  0.00    +0.039 C 
ENDROOT
BRANCH   8  12
ATOM     12  C   UNL     1      -0.418   1.503  25.025  0.00  0.00    -0.013 C 
ATOM     17  C   UNL     1      -0.602   2.692  24.087  0.00  0.00    +0.007 C 
ATOM     18  C   UNL     1      -0.593   1.930  26.479  0.00  0.00    +0.007 C 
ENDBRANCH   8  12
BRANCH   9  15
ATOM     15  C   UNL     1       0.076  -1.042  23.183  0.00  0.00    +0.113 C 
BRANCH  15   5
ATOM      5  N   UNL     1       1.517  -0.935  23.461  0.00  0.00    -0.189 NA
ATOM     34  H   UNL     1       1.821  -1.223  24.399  0.00  0.00    +0.148 HD
BRANCH   5   1
ATOM      1  S   UNL     1       2.460   0.239  22.663  0.00  0.00    +0.058 S 
ATOM      3  O   UNL     1       2.106   1.554  23.162  0.00  0.00    -0.153 OA
ATOM      4  O   UNL     1       2.447  -0.029  21.238  0.00  0.00    -0.153 OA
BRANCH   1  21
ATOM     21  C   UNL     1       4.083  -0.147  23.247  0.00  0.00    +0.105 A 
ATOM     25  C   UNL     1       4.371  -1.431  23.707  0.00  0.00    +0.028 A 
ATOM     26  C   UNL     1       5.075   0.834  23.249  0.00  0.00    +0.028 A 
ATOM     27  C   UNL     1       5.651  -1.736  24.171  0.00  0.00    +0.002 A 
ATOM     28  C   UNL     1       6.355   0.530  23.714  0.00  0.00    +0.002 A 
ATOM     31  C   UNL     1       6.643  -0.755  24.174  0.00  0.00    +0.000 A 
ENDBRANCH   1  21
ENDBRANCH   5   1
ENDBRANCH  15   5
ENDBRANCH   9  15
BRANCH  11  16
ATOM     16  C   UNL     1      -4.543  -0.258  24.371  0.00  0.00    +0.103 C 
BRANCH  16  20
ATOM      2  O   UNL     1      -3.882   1.859  23.460  0.00  0.00    -0.276 OA
ATOM      6  N   UNL     1      -5.400   1.900  25.213  0.00  0.00    -0.300 N 
ATOM     20  C   UNL     1      -4.566   1.258  24.293  0.00  0.00    +0.216 C 
ATOM     23  C   UNL     1      -6.199   1.169  26.189  0.00  0.00    +0.132 C 
BRANCH   6  22
ATOM     22  C   UNL     1      -5.533   3.355  25.267  0.00  0.00    +0.144 C 
BRANCH  22  24
ATOM      7  N   UNL     1      -2.551   5.382  24.129  0.00  0.00    -0.263 NA
ATOM     24  C   UNL     1      -4.200   4.042  25.284  0.00  0.00    -0.012 A 
ATOM     29  C   UNL     1      -3.382   3.993  26.408  0.00  0.00    +0.008 A 
ATOM     30  C   UNL     1      -3.742   4.743  24.180  0.00  0.00    +0.115 A 
ATOM     32  C   UNL     1      -2.150   4.638  26.394  0.00  0.00    +0.020 A 
ATOM     33  C   UNL     1      -1.785   5.312  25.240  0.00  0.00    +0.111 A 
ENDBRANCH  22  24
ENDBRANCH   6  22
ENDBRANCH  16  20
ENDBRANCH  11  16
TORSDOF 9
ENDMDL
MODEL 5
REMARK VINA RESULT:       0.5      2.077      6.953
REMARK  Name = 38029086
REMARK  13 active torsions:
REMARK  status: ('A' for Active; 'I' for Inactive)
REMARK    1  A    between atoms: S_1  and  N_5
REMARK    2  A    between atoms: S_1  and  C_21
REMARK    3  A    between atoms: N_5  and  C_15
REMARK    4  A    between atoms: N_6  and  C_22
REMARK    5  A    between atoms: N_6  and  C_23
REMARK    6  A    between atoms: C_8  and  C_12
REMARK    7  A    between atoms: C_9  and  C_15
REMARK    8  A    between atoms: C_11  and  C_16
REMARK    9  A    between atoms: C_12  and  C_17
REMARK   10  A    between atoms: C_12  and  C_18
REMARK   11  A    between atoms: C_13  and  C_19
REMARK   12  A    between atoms: C_16  and  C_20
REMARK   13  A    between atoms: C_22  and  C_24
REMARK                            x       y       z     vdW  Elec       q    Type
REMARK                         _______ _______ _______ _____ _____    ______ ____
ROOT
ATOM      8  C   UNL     1      -1.801  -0.722  25.130  0.00  0.00    +0.000 C 
ATOM      9  C   UNL     1      -1.354  -2.075  24.524  0.00  0.00    +0.030 C 
ATOM     10  C   UNL     1      -3.127  -0.886  25.888  0.00  0.00    +0.012 C 
ATOM     11  C   UNL     1      -4.256  -1.413  24.980  0.00  0.00    +0.023 C 
ATOM     13  C   UNL     1      -3.803  -2.593  24.145  0.00  0.00    -0.073 C 
ATOM     14  C   UNL     1      -2.502  -2.881  23.964  0.00  0.00    -0.023 C 
ATOM     19  C   UNL     1      -4.881  -3.462  23.561  0.00  0.00    +0.039 C 
ENDROOT
BRANCH   8  12
ATOM     12  C   UNL     1      -0.739  -0.138  26.065  0.00  0.00    -0.013 C 
ATOM     17  C   UNL     1      -0.892   1.377  26.165  0.00  0.00    +0.007 C 
ATOM     18  C   UNL     1      -0.831  -0.783  27.444  0.00  0.00    +0.007 C 
ENDBRANCH   8  12
BRANCH   9  15
ATOM     15  C   UNL     1      -0.294  -1.871  23.435  0.00  0.00    +0.113 C 
BRANCH  15   5
ATOM      5  N   UNL     1       0.745  -0.961  23.940  0.00  0.00    -0.189 NA
ATOM     34  H   UNL     1       0.674  -0.696  24.930  0.00  0.00    +0.148 HD
BRANCH   5   1
ATOM      1  S   UNL     1       1.498   0.150  22.889  0.00  0.00    +0.058 S 
ATOM      3  O   UNL     1       1.164   1.499  23.301  0.00  0.00    -0.153 OA
ATOM      4  O   UNL     1       1.280  -0.270  21.518  0.00  0.00    -0.153 OA
BRANCH   1  21
ATOM     21  C   UNL     1       3.208  -0.121  23.246  0.00  0.00    +0.105 A 
ATOM     25  C   UNL     1       4.132   0.904  23.047  0.00  0.00    +0.028 A 
ATOM     26  C   UNL     1       3.633  -1.360  23.725  0.00  0.00    +0.028 A 
ATOM     27  C   UNL     1       5.483   0.690  23.326  0.00  0.00    +0.002 A 
ATOM     28  C   UNL     1       4.983  -1.575  24.004  0.00  0.00    +0.002 A 
ATOM     31  C   UNL     1       5.907  -0.549  23.804  0.00  0.00    +0.000 A 
ENDBRANCH   1  21
ENDBRANCH   5   1
ENDBRANCH  15   5
ENDBRANCH   9  15
BRANCH  11  16
ATOM     16  C   UNL     1      -4.817  -0.296  24.093  0.00  0.00    +0.103 C 
BRANCH  16  20
ATOM      2  O   UNL     1      -5.567   1.149  25.854  0.00  0.00    -0.276 OA
ATOM      6  N   UNL     1      -4.176   2.084  24.251  0.00  0.00    -0.300 N 
ATOM     20  C   UNL     1      -4.898   1.033  24.823  0.00  0.00    +0.216 C 
ATOM     23  C   UNL     1      -3.393   1.924  23.032  0.00  0.00    +0.132 C 
BRANCH   6  22
ATOM     22  C   UNL     1      -4.151   3.425  24.833  0.00  0.00    +0.144 C 
BRANCH  22  24
ATOM      7  N   UNL     1      -0.445   3.824  24.196  0.00  0.00    -0.263 NA
ATOM     24  C   UNL     1      -2.786   4.044  24.758  0.00  0.00    -0.012 A 
ATOM     29  C   UNL     1      -2.572   5.358  25.162  0.00  0.00    +0.008 A 
ATOM     30  C   UNL     1      -1.699   3.327  24.287  0.00  0.00    +0.115 A 
ATOM     32  C   UNL     1      -1.296   5.905  25.083  0.00  0.00    +0.020 A 
ATOM     33  C   UNL     1      -0.277   5.103  24.597  0.00  0.00    +0.111 A 
ENDBRANCH  22  24
ENDBRANCH   6  22
ENDBRANCH  16  20
ENDBRANCH  11  16
TORSDOF 9
ENDMDL
