MODEL 1
REMARK VINA RESULT:       5.9      0.000      0.000
REMARK  Name = 45783651
REMARK  5 active torsions:
REMARK  status: ('A' for Active; 'I' for Inactive)
REMARK    1  A    between atoms: N_3  and  C_10
REMARK    2  A    between atoms: N_8  and  C_27
REMARK    3  A    between atoms: C_11  and  C_19
REMARK    4  A    between atoms: C_20  and  C_21
REMARK    5  A    between atoms: C_22  and  C_23
REMARK                            x       y       z     vdW  Elec       q    Type
REMARK                         _______ _______ _______ _____ _____    ______ ____
ROOT
ATOM      1  O   UNL     1      -2.160   3.626  23.935  0.00  0.00    -0.336 OA
ATOM      5  N   UNL     1      -1.804   1.415  23.906  0.00  0.00    -0.190 NA
ATOM      6  N   UNL     1      -0.776   3.457  23.802  0.00  0.00    -0.056 NA
ATOM     19  C   UNL     1      -2.689   2.376  23.989  0.00  0.00    +0.245 A 
ATOM     22  C   UNL     1      -0.645   2.126  23.792  0.00  0.00    +0.204 A 
ENDROOT
BRANCH  22  23
ATOM      7  N   UNL     1       3.031   1.664  23.483  0.00  0.00    -0.237 NA
ATOM     23  C   UNL     1       0.629   1.477  23.671  0.00  0.00    +0.041 A 
ATOM     24  C   UNL     1       0.725   0.091  23.622  0.00  0.00    +0.017 A 
ATOM     25  C   UNL     1       1.801   2.212  23.598  0.00  0.00    +0.124 A 
ATOM     26  C   UNL     1       1.974  -0.510  23.503  0.00  0.00    +0.047 A 
ATOM     27  C   UNL     1       3.086   0.314  23.438  0.00  0.00    +0.139 A 
BRANCH  27   8
ATOM      8  N   UNL     1       4.333  -0.280  23.320  0.00  0.00    -0.290 N 
ATOM      9  N   UNL     1       5.933  -1.811  23.485  0.00  0.00    -0.244 NA
ATOM     28  C   UNL     1       5.447   0.281  22.762  0.00  0.00    +0.114 A 
ATOM     29  C   UNL     1       4.673  -1.536  23.739  0.00  0.00    +0.205 A 
ATOM     30  C   UNL     1       6.422  -0.682  22.876  0.00  0.00    +0.130 A 
ENDBRANCH  27   8
ENDBRANCH  22  23
BRANCH  19  11
ATOM      3  N   UNL     1      -4.606   1.702  25.427  0.00  0.00    -0.288 NA
ATOM     11  C   UNL     1      -4.194   2.286  24.134  0.00  0.00    +0.146 C 
ATOM     12  C   UNL     1      -5.907   2.288  25.749  0.00  0.00    +0.085 C 
ATOM     13  C   UNL     1      -4.878   3.664  24.092  0.00  0.00    +0.030 C 
ATOM     16  C   UNL     1      -5.700   3.741  25.371  0.00  0.00    +0.017 C 
BRANCH   3  10
ATOM      2  O   UNL     1      -1.514  -3.610  25.297  0.00  0.00    -0.276 OA
ATOM      4  N   UNL     1      -3.383  -2.303  24.858  0.00  0.00    -0.302 N 
ATOM     10  C   UNL     1      -4.648   0.242  25.411  0.00  0.00    +0.060 C 
ATOM     14  C   UNL     1      -4.477  -0.274  23.977  0.00  0.00    +0.038 C 
ATOM     15  C   UNL     1      -3.549  -0.325  26.320  0.00  0.00    +0.038 C 
ATOM     17  C   UNL     1      -4.422  -1.802  23.948  0.00  0.00    +0.109 C 
ATOM     18  C   UNL     1      -3.513  -1.850  26.244  0.00  0.00    +0.109 C 
ATOM     20  C   UNL     1      -2.355  -3.176  24.505  0.00  0.00    +0.212 C 
ATOM     21  C   UNL     1      -2.287  -3.592  23.058  0.00  0.00    +0.109 C 
ENDBRANCH   3  10
ENDBRANCH  19  11
TORSDOF 4
ENDMDL
MODEL 2
REMARK VINA RESULT:       6.7      1.787      4.462
REMARK  Name = 45783651
REMARK  5 active torsions:
REMARK  status: ('A' for Active; 'I' for Inactive)
REMARK    1  A    between atoms: N_3  and  C_10
REMARK    2  A    between atoms: N_8  and  C_27
REMARK    3  A    between atoms: C_11  and  C_19
REMARK    4  A    between atoms: C_20  and  C_21
REMARK    5  A    between atoms: C_22  and  C_23
REMARK                            x       y       z     vdW  Elec       q    Type
REMARK                         _______ _______ _______ _____ _____    ______ ____
ROOT
ATOM      1  O   UNL     1      -1.096   0.534  23.279  0.00  0.00    -0.336 OA
ATOM      5  N   UNL     1       0.265  -0.958  24.247  0.00  0.00    -0.190 NA
ATOM      6  N   UNL     1       0.204   0.885  22.894  0.00  0.00    -0.056 NA
ATOM     19  C   UNL     1      -0.971  -0.560  24.074  0.00  0.00    +0.245 A 
ATOM     22  C   UNL     1       0.950  -0.042  23.504  0.00  0.00    +0.204 A 
ENDROOT
BRANCH  22  23
ATOM      7  N   UNL     1       4.447  -1.281  23.740  0.00  0.00    -0.237 NA
ATOM     23  C   UNL     1       2.379  -0.078  23.393  0.00  0.00    +0.041 A 
ATOM     24  C   UNL     1       3.085   0.996  22.861  0.00  0.00    +0.017 A 
ATOM     25  C   UNL     1       3.101  -1.182  23.815  0.00  0.00    +0.124 A 
ATOM     26  C   UNL     1       4.471   0.932  22.767  0.00  0.00    +0.047 A 
ATOM     27  C   UNL     1       5.099  -0.218  23.216  0.00  0.00    +0.139 A 
BRANCH  27   8
ATOM      8  N   UNL     1       6.480  -0.287  23.126  0.00  0.00    -0.290 N 
ATOM      9  N   UNL     1       8.492  -0.955  22.463  0.00  0.00    -0.244 NA
ATOM     28  C   UNL     1       7.376   0.477  23.820  0.00  0.00    +0.114 A 
ATOM     29  C   UNL     1       7.196  -1.131  22.324  0.00  0.00    +0.205 A 
ATOM     30  C   UNL     1       8.611   0.046  23.395  0.00  0.00    +0.130 A 
ENDBRANCH  27   8
ENDBRANCH  22  23
BRANCH  19  11
ATOM      3  N   UNL     1      -3.411  -0.912  23.739  0.00  0.00    -0.288 NA
ATOM     11  C   UNL     1      -2.254  -1.142  24.627  0.00  0.00    +0.146 C 
ATOM     12  C   UNL     1      -4.331  -2.028  23.960  0.00  0.00    +0.085 C 
ATOM     13  C   UNL     1      -2.189  -2.671  24.796  0.00  0.00    +0.030 C 
ATOM     16  C   UNL     1      -3.382  -3.209  24.019  0.00  0.00    +0.017 C 
BRANCH   3  10
ATOM      2  O   UNL     1      -2.798   5.109  24.819  0.00  0.00    -0.276 OA
ATOM      4  N   UNL     1      -3.960   3.101  24.943  0.00  0.00    -0.302 N 
ATOM     10  C   UNL     1      -4.054   0.381  23.955  0.00  0.00    +0.060 C 
ATOM     14  C   UNL     1      -4.118   0.693  25.455  0.00  0.00    +0.038 C 
ATOM     15  C   UNL     1      -3.285   1.482  23.211  0.00  0.00    +0.038 C 
ATOM     17  C   UNL     1      -4.701   2.085  25.701  0.00  0.00    +0.109 C 
ATOM     18  C   UNL     1      -3.885   2.857  23.501  0.00  0.00    +0.109 C 
ATOM     20  C   UNL     1      -3.386   4.252  25.483  0.00  0.00    +0.212 C 
ATOM     21  C   UNL     1      -3.504   4.429  26.976  0.00  0.00    +0.109 C 
ENDBRANCH   3  10
ENDBRANCH  19  11
TORSDOF 4
ENDMDL
MODEL 3
REMARK VINA RESULT:       7.7      1.850      2.787
REMARK  Name = 45783651
REMARK  5 active torsions:
REMARK  status: ('A' for Active; 'I' for Inactive)
REMARK    1  A    between atoms: N_3  and  C_10
REMARK    2  A    between atoms: N_8  and  C_27
REMARK    3  A    between atoms: C_11  and  C_19
REMARK    4  A    between atoms: C_20  and  C_21
REMARK    5  A    between atoms: C_22  and  C_23
REMARK                            x       y       z     vdW  Elec       q    Type
REMARK                         _______ _______ _______ _____ _____    ______ ____
ROOT
ATOM      1  O   UNL     1      -0.566   0.285  23.309  0.00  0.00    -0.336 OA
ATOM      5  N   UNL     1       1.049   1.757  23.798  0.00  0.00    -0.190 NA
ATOM      6  N   UNL     1       0.647  -0.380  23.088  0.00  0.00    -0.056 NA
ATOM     19  C   UNL     1      -0.239   1.536  23.725  0.00  0.00    +0.245 A 
ATOM     22  C   UNL     1       1.552   0.554  23.398  0.00  0.00    +0.204 A 
ENDROOT
BRANCH  22  23
ATOM      7  N   UNL     1       5.159   1.109  22.686  0.00  0.00    -0.237 NA
ATOM     23  C   UNL     1       2.964   0.316  23.317  0.00  0.00    +0.041 A 
ATOM     24  C   UNL     1       3.517  -0.881  23.762  0.00  0.00    +0.017 A 
ATOM     25  C   UNL     1       3.820   1.269  22.792  0.00  0.00    +0.124 A 
ATOM     26  C   UNL     1       4.889  -1.083  23.670  0.00  0.00    +0.047 A 
ATOM     27  C   UNL     1       5.660  -0.066  23.129  0.00  0.00    +0.139 A 
BRANCH  27   8
ATOM      8  N   UNL     1       7.029  -0.263  23.034  0.00  0.00    -0.290 N 
ATOM      9  N   UNL     1       8.965  -1.146  22.401  0.00  0.00    -0.244 NA
ATOM     28  C   UNL     1       7.996   0.458  23.677  0.00  0.00    +0.114 A 
ATOM     29  C   UNL     1       7.658  -1.213  22.280  0.00  0.00    +0.205 A 
ATOM     30  C   UNL     1       9.183  -0.106  23.271  0.00  0.00    +0.130 A 
ENDBRANCH  27   8
ENDBRANCH  22  23
BRANCH  19  11
ATOM      3  N   UNL     1      -1.854   2.352  25.434  0.00  0.00    -0.288 NA
ATOM     11  C   UNL     1      -1.393   2.466  24.035  0.00  0.00    +0.146 C 
ATOM     12  C   UNL     1      -2.390   3.663  25.800  0.00  0.00    +0.085 C 
ATOM     13  C   UNL     1      -1.021   3.951  23.867  0.00  0.00    +0.030 C 
ATOM     16  C   UNL     1      -1.364   4.601  25.199  0.00  0.00    +0.017 C 
BRANCH   3  10
ATOM      2  O   UNL     1      -3.314  -3.580  24.741  0.00  0.00    -0.276 OA
ATOM      4  N   UNL     1      -3.866  -1.333  24.948  0.00  0.00    -0.302 N 
ATOM     10  C   UNL     1      -2.829   1.283  25.632  0.00  0.00    +0.060 C 
ATOM     14  C   UNL     1      -3.621   1.045  24.340  0.00  0.00    +0.038 C 
ATOM     15  C   UNL     1      -2.117  -0.005  26.068  0.00  0.00    +0.038 C 
ATOM     17  C   UNL     1      -4.582  -0.133  24.495  0.00  0.00    +0.109 C 
ATOM     18  C   UNL     1      -3.107  -1.161  26.189  0.00  0.00    +0.109 C 
ATOM     20  C   UNL     1      -3.897  -2.577  24.320  0.00  0.00    +0.212 C 
ATOM     21  C   UNL     1      -4.697  -2.671  23.045  0.00  0.00    +0.109 C 
ENDBRANCH   3  10
ENDBRANCH  19  11
TORSDOF 4
ENDMDL
