MODEL 1
REMARK VINA RESULT:       2.7      0.000      0.000
REMARK  Name = 75537012
REMARK  2 active torsions:
REMARK  status: ('A' for Active; 'I' for Inactive)
REMARK    1  A    between atoms: N_4  and  C_8
REMARK    2  A    between atoms: C_19  and  C_20
REMARK                            x       y       z     vdW  Elec       q    Type
REMARK                         _______ _______ _______ _____ _____    ______ ____
ROOT
ATOM      2  O   UNL     1       1.043  -2.519  24.814  0.00  0.00    -0.252 OA
ATOM      3  O   UNL     1      -5.333   0.136  25.862  0.00  0.00    -0.270 OA
ATOM      4  N   UNL     1       1.188  -0.387  23.817  0.00  0.00    -0.281 N 
ATOM      5  N   UNL     1      -0.702  -0.948  24.896  0.00  0.00    -0.278 N 
ATOM      6  N   UNL     1      -3.303   0.012  24.710  0.00  0.00    -0.294 N 
ATOM      7  C   UNL     1      -0.896   0.440  24.515  0.00  0.00    +0.112 C 
ATOM      9  C   UNL     1       0.293   0.738  23.606  0.00  0.00    +0.133 C 
ATOM     12  C   UNL     1      -2.262   0.622  23.861  0.00  0.00    +0.132 C 
ATOM     13  C   UNL     1       0.571  -1.423  24.547  0.00  0.00    +0.305 C 
ATOM     14  C   UNL     1      -1.732  -1.643  25.650  0.00  0.00    +0.128 C 
ATOM     18  C   UNL     1      -3.097  -1.414  25.002  0.00  0.00    +0.127 C 
ATOM     19  C   UNL     1      -4.444   0.658  25.190  0.00  0.00    +0.247 C 
ENDROOT
BRANCH  19  20
ATOM      1  F   UNL     1      -5.069   6.100  24.041  0.00  0.00    -0.205 F 
ATOM     20  C   UNL     1      -4.608   2.086  24.890  0.00  0.00    +0.037 A 
ATOM     21  C   UNL     1      -3.961   2.644  23.788  0.00  0.00    +0.016 A 
ATOM     22  C   UNL     1      -5.410   2.884  25.705  0.00  0.00    +0.016 A 
ATOM     23  C   UNL     1      -4.116   4.001  23.501  0.00  0.00    +0.039 A 
ATOM     24  C   UNL     1      -5.566   4.240  25.419  0.00  0.00    +0.039 A 
ATOM     25  C   UNL     1      -4.918   4.798  24.317  0.00  0.00    +0.123 A 
ENDBRANCH  19  20
BRANCH   4   8
ATOM      8  C   UNL     1       2.497  -0.444  23.216  0.00  0.00    +0.078 C 
ATOM     10  C   UNL     1       3.037   0.966  22.955  0.00  0.00    +0.022 C 
ATOM     11  C   UNL     1       3.456  -1.254  24.090  0.00  0.00    +0.022 C 
ATOM     15  C   UNL     1       4.444   0.929  22.368  0.00  0.00    +0.002 C 
ATOM     16  C   UNL     1       4.865  -1.286  23.502  0.00  0.00    +0.002 C 
ATOM     17  C   UNL     1       5.398   0.118  23.240  0.00  0.00    +0.000 C 
ENDBRANCH   4   8
TORSDOF 2
ENDMDL
MODEL 2
REMARK VINA RESULT:       6.0      3.171      4.336
REMARK  Name = 75537012
REMARK  2 active torsions:
REMARK  status: ('A' for Active; 'I' for Inactive)
REMARK    1  A    between atoms: N_4  and  C_8
REMARK    2  A    between atoms: C_19  and  C_20
REMARK                            x       y       z     vdW  Elec       q    Type
REMARK                         _______ _______ _______ _____ _____    ______ ____
ROOT
ATOM      2  O   UNL     1       2.969   2.631  23.108  0.00  0.00    -0.252 OA
ATOM      3  O   UNL     1      -3.744   1.708  24.810  0.00  0.00    -0.270 OA
ATOM      4  N   UNL     1       2.762   0.284  23.194  0.00  0.00    -0.281 N 
ATOM      5  N   UNL     1       0.922   1.540  23.486  0.00  0.00    -0.278 N 
ATOM      6  N   UNL     1      -1.517   1.008  24.707  0.00  0.00    -0.294 N 
ATOM      7  C   UNL     1       0.435   0.172  23.478  0.00  0.00    +0.112 C 
ATOM      9  C   UNL     1       1.708  -0.669  23.495  0.00  0.00    +0.133 C 
ATOM     12  C   UNL     1      -0.501  -0.062  24.660  0.00  0.00    +0.132 C 
ATOM     13  C   UNL     1       2.301   1.614  23.242  0.00  0.00    +0.305 C 
ATOM     14  C   UNL     1      -0.014   2.642  23.629  0.00  0.00    +0.128 C 
ATOM     18  C   UNL     1      -0.968   2.369  24.791  0.00  0.00    +0.127 C 
ATOM     19  C   UNL     1      -2.900   0.817  24.727  0.00  0.00    +0.247 C 
ENDROOT
BRANCH  19  20
ATOM      1  F   UNL     1      -4.843  -4.418  24.352  0.00  0.00    -0.205 F 
ATOM     20  C   UNL     1      -3.410  -0.556  24.628  0.00  0.00    +0.037 A 
ATOM     21  C   UNL     1      -3.051  -1.503  25.587  0.00  0.00    +0.016 A 
ATOM     22  C   UNL     1      -4.251  -0.914  23.576  0.00  0.00    +0.016 A 
ATOM     23  C   UNL     1      -3.535  -2.808  25.494  0.00  0.00    +0.039 A 
ATOM     24  C   UNL     1      -4.736  -2.219  23.482  0.00  0.00    +0.039 A 
ATOM     25  C   UNL     1      -4.377  -3.166  24.441  0.00  0.00    +0.123 A 
ENDBRANCH  19  20
BRANCH   4   8
ATOM      8  C   UNL     1       4.132  -0.128  23.008  0.00  0.00    +0.078 C 
ATOM     10  C   UNL     1       5.096   0.938  23.536  0.00  0.00    +0.022 C 
ATOM     11  C   UNL     1       4.381  -1.483  23.673  0.00  0.00    +0.022 C 
ATOM     15  C   UNL     1       6.551   0.499  23.398  0.00  0.00    +0.002 C 
ATOM     16  C   UNL     1       5.838  -1.918  23.537  0.00  0.00    +0.002 C 
ATOM     17  C   UNL     1       6.796  -0.853  24.060  0.00  0.00    +0.000 C 
ENDBRANCH   4   8
TORSDOF 2
ENDMDL
