MODEL 1
REMARK VINA RESULT:      10.2      0.000      0.000
REMARK  Name = 28960006
REMARK  8 active torsions:
REMARK  status: ('A' for Active; 'I' for Inactive)
REMARK    1  A    between atoms: O_1  and  C_24
REMARK    2  A    between atoms: N_5  and  C_15
REMARK    3  A    between atoms: N_7  and  C_17
REMARK    4  A    between atoms: N_9  and  C_31
REMARK    5  A    between atoms: C_10  and  C_12
REMARK    6  A    between atoms: C_11  and  C_20
REMARK    7  A    between atoms: C_12  and  C_15
REMARK    8  A    between atoms: C_20  and  C_24
REMARK                            x       y       z     vdW  Elec       q    Type
REMARK                         _______ _______ _______ _____ _____    ______ ____
ROOT
ATOM      2  O   UNL     1      -5.159   0.345  26.472  0.00  0.00    -0.252 OA
ATOM      6  N   UNL     1      -5.128   2.155  25.034  0.00  0.00    -0.285 N 
ATOM      9  N   UNL     1      -4.682  -0.017  24.230  0.00  0.00    -0.269 N 
ATOM     10  C   UNL     1      -3.876   3.835  23.708  0.00  0.00    +0.011 C 
ATOM     11  C   UNL     1      -4.131   4.865  24.839  0.00  0.00    +0.006 C 
ATOM     13  C   UNL     1      -4.997   2.781  23.709  0.00  0.00    +0.113 C 
ATOM     14  C   UNL     1      -4.359   4.179  26.198  0.00  0.00    +0.023 C 
ATOM     16  C   UNL     1      -5.437   3.100  26.108  0.00  0.00    +0.109 C 
ATOM     23  C   UNL     1      -5.009   0.780  25.327  0.00  0.00    +0.306 C 
ATOM     39  H   UNL     1      -4.979   0.282  23.309  0.00  0.00    +0.156 HD
ENDROOT
BRANCH   9  31
ATOM     31  C   UNL     1      -3.947  -1.228  24.237  0.00  0.00    +0.035 A 
ATOM     33  C   UNL     1      -4.542  -2.407  23.787  0.00  0.00    +0.023 A 
ATOM     34  C   UNL     1      -2.630  -1.243  24.696  0.00  0.00    +0.023 A 
ATOM     35  C   UNL     1      -3.818  -3.599  23.794  0.00  0.00    +0.002 A 
ATOM     36  C   UNL     1      -1.906  -2.435  24.702  0.00  0.00    +0.002 A 
ATOM     37  C   UNL     1      -2.501  -3.613  24.251  0.00  0.00    +0.000 A 
ENDBRANCH   9  31
BRANCH  10  12
ATOM     12  C   UNL     1      -2.502   3.157  23.779  0.00  0.00    +0.020 C 
BRANCH  12  15
ATOM     15  C   UNL     1      -2.460   1.919  22.894  0.00  0.00    +0.085 C 
BRANCH  15   5
ATOM      5  N   UNL     1      -1.298   1.101  23.239  0.00  0.00    -0.302 NA
ATOM     17  C   UNL     1       1.535   0.370  23.186  0.00  0.00    +0.095 C 
ATOM     18  C   UNL     1      -0.312   1.896  23.983  0.00  0.00    +0.086 C 
ATOM     19  C   UNL     1      -0.703   0.517  22.028  0.00  0.00    +0.086 C 
ATOM     21  C   UNL     1       0.887   1.041  24.398  0.00  0.00    +0.040 C 
ATOM     22  C   UNL     1       0.482  -0.385  22.375  0.00  0.00    +0.040 C 
BRANCH  17   7
ATOM      4  O   UNL     1       1.384  -2.342  24.495  0.00  0.00    -0.247 OA
ATOM      7  N   UNL     1       2.602  -0.512  23.590  0.00  0.00    -0.289 N 
ATOM      8  N   UNL     1       3.747  -2.280  24.419  0.00  0.00    -0.306 N 
ATOM     25  C   UNL     1       3.970  -0.251  23.438  0.00  0.00    +0.070 A 
ATOM     26  C   UNL     1       2.432  -1.781  24.204  0.00  0.00    +0.328 A 
ATOM     27  C   UNL     1       4.667  -1.343  23.951  0.00  0.00    +0.067 A 
ATOM     28  C   UNL     1       4.625   0.837  22.900  0.00  0.00    +0.028 A 
ATOM     29  C   UNL     1       6.044  -1.405  23.953  0.00  0.00    +0.028 A 
ATOM     30  C   UNL     1       6.024   0.798  22.893  0.00  0.00    +0.002 A 
ATOM     32  C   UNL     1       6.725  -0.310  23.412  0.00  0.00    +0.002 A 
ATOM     38  H   UNL     1       3.989  -3.168  24.843  0.00  0.00    +0.170 HD
ENDBRANCH  17   7
ENDBRANCH  15   5
ENDBRANCH  12  15
ENDBRANCH  10  12
BRANCH  11  20
ATOM     20  C   UNL     1      -3.033   5.924  24.947  0.00  0.00    +0.124 C 
BRANCH  20  24
ATOM      3  O   UNL     1      -1.526   4.404  26.113  0.00  0.00    -0.251 OA
ATOM     24  C   UNL     1      -1.710   5.316  25.320  0.00  0.00    +0.305 C 
BRANCH  24   1
ATOM      1  O   UNL     1      -0.714   5.933  24.633  0.00  0.00    -0.481 OA
ATOM     40  H   UNL     1      -0.923   6.875  24.455  0.00  0.00    +0.295 HD
ENDBRANCH  24   1
ENDBRANCH  20  24
ENDBRANCH  11  20
TORSDOF 8
ENDMDL
MODEL 2
REMARK VINA RESULT:      10.3      1.384      1.847
REMARK  Name = 28960006
REMARK  8 active torsions:
REMARK  status: ('A' for Active; 'I' for Inactive)
REMARK    1  A    between atoms: O_1  and  C_24
REMARK    2  A    between atoms: N_5  and  C_15
REMARK    3  A    between atoms: N_7  and  C_17
REMARK    4  A    between atoms: N_9  and  C_31
REMARK    5  A    between atoms: C_10  and  C_12
REMARK    6  A    between atoms: C_11  and  C_20
REMARK    7  A    between atoms: C_12  and  C_15
REMARK    8  A    between atoms: C_20  and  C_24
REMARK                            x       y       z     vdW  Elec       q    Type
REMARK                         _______ _______ _______ _____ _____    ______ ____
ROOT
ATOM      2  O   UNL     1      -6.119   0.629  26.069  0.00  0.00    -0.252 OA
ATOM      6  N   UNL     1      -5.242   2.403  24.874  0.00  0.00    -0.285 N 
ATOM      9  N   UNL     1      -4.761   0.182  24.241  0.00  0.00    -0.269 N 
ATOM     10  C   UNL     1      -3.340   3.889  24.303  0.00  0.00    +0.011 C 
ATOM     11  C   UNL     1      -3.934   4.956  25.259  0.00  0.00    +0.006 C 
ATOM     13  C   UNL     1      -4.470   2.991  23.768  0.00  0.00    +0.113 C 
ATOM     14  C   UNL     1      -4.814   4.320  26.351  0.00  0.00    +0.023 C 
ATOM     16  C   UNL     1      -5.869   3.392  25.752  0.00  0.00    +0.109 C 
ATOM     23  C   UNL     1      -5.432   1.028  25.124  0.00  0.00    +0.306 C 
ATOM     39  H   UNL     1      -4.587   0.507  23.298  0.00  0.00    +0.156 HD
ENDROOT
BRANCH   9  31
ATOM     31  C   UNL     1      -4.258  -1.115  24.508  0.00  0.00    +0.035 A 
ATOM     33  C   UNL     1      -3.609  -1.377  25.715  0.00  0.00    +0.023 A 
ATOM     34  C   UNL     1      -4.410  -2.131  23.564  0.00  0.00    +0.023 A 
ATOM     35  C   UNL     1      -3.114  -2.654  25.978  0.00  0.00    +0.002 A 
ATOM     36  C   UNL     1      -3.916  -3.408  23.828  0.00  0.00    +0.002 A 
ATOM     37  C   UNL     1      -3.267  -3.670  25.034  0.00  0.00    +0.000 A 
ENDBRANCH   9  31
BRANCH  10  12
ATOM     12  C   UNL     1      -2.230   3.037  24.930  0.00  0.00    +0.020 C 
BRANCH  12  15
ATOM     15  C   UNL     1      -2.265   1.614  24.390  0.00  0.00    +0.085 C 
BRANCH  15   5
ATOM      5  N   UNL     1      -0.995   1.299  23.736  0.00  0.00    -0.302 NA
ATOM     17  C   UNL     1       1.810   0.472  23.660  0.00  0.00    +0.095 C 
ATOM     18  C   UNL     1      -0.628  -0.103  23.977  0.00  0.00    +0.086 C 
ATOM     19  C   UNL     1       0.060   2.212  24.195  0.00  0.00    +0.086 C 
ATOM     21  C   UNL     1       0.671  -0.465  23.255  0.00  0.00    +0.040 C 
ATOM     22  C   UNL     1       1.383   1.929  23.481  0.00  0.00    +0.040 C 
BRANCH  17   7
ATOM      4  O   UNL     1       2.125  -0.108  20.717  0.00  0.00    -0.247 OA
ATOM      7  N   UNL     1       3.007   0.192  22.905  0.00  0.00    -0.289 N 
ATOM      8  N   UNL     1       4.431  -0.290  21.212  0.00  0.00    -0.306 N 
ATOM     25  C   UNL     1       4.302   0.136  23.433  0.00  0.00    +0.070 A 
ATOM     26  C   UNL     1       3.056  -0.072  21.511  0.00  0.00    +0.328 A 
ATOM     27  C   UNL     1       5.173  -0.161  22.385  0.00  0.00    +0.067 A 
ATOM     28  C   UNL     1       4.759   0.321  24.721  0.00  0.00    +0.028 A 
ATOM     29  C   UNL     1       6.532  -0.287  22.569  0.00  0.00    +0.028 A 
ATOM     30  C   UNL     1       6.137   0.196  24.932  0.00  0.00    +0.002 A 
ATOM     32  C   UNL     1       7.014  -0.104  23.869  0.00  0.00    +0.002 A 
ATOM     38  H   UNL     1       4.819  -0.504  20.302  0.00  0.00    +0.170 HD
ENDBRANCH  17   7
ENDBRANCH  15   5
ENDBRANCH  12  15
ENDBRANCH  10  12
BRANCH  11  20
ATOM     20  C   UNL     1      -2.872   5.862  25.882  0.00  0.00    +0.124 C 
BRANCH  20  24
ATOM      3  O   UNL     1      -0.585   5.619  25.076  0.00  0.00    -0.251 OA
ATOM     24  C   UNL     1      -1.711   6.077  24.951  0.00  0.00    +0.305 C 
BRANCH  24   1
ATOM      1  O   UNL     1      -2.093   6.873  23.919  0.00  0.00    -0.481 OA
ATOM     40  H   UNL     1      -1.323   7.275  23.464  0.00  0.00    +0.295 HD
ENDBRANCH  24   1
ENDBRANCH  20  24
ENDBRANCH  11  20
TORSDOF 8
ENDMDL
MODEL 3
REMARK VINA RESULT:      12.9      1.341      2.153
REMARK  Name = 28960006
REMARK  8 active torsions:
REMARK  status: ('A' for Active; 'I' for Inactive)
REMARK    1  A    between atoms: O_1  and  C_24
REMARK    2  A    between atoms: N_5  and  C_15
REMARK    3  A    between atoms: N_7  and  C_17
REMARK    4  A    between atoms: N_9  and  C_31
REMARK    5  A    between atoms: C_10  and  C_12
REMARK    6  A    between atoms: C_11  and  C_20
REMARK    7  A    between atoms: C_12  and  C_15
REMARK    8  A    between atoms: C_20  and  C_24
REMARK                            x       y       z     vdW  Elec       q    Type
REMARK                         _______ _______ _______ _____ _____    ______ ____
ROOT
ATOM      2  O   UNL     1      -5.109  -0.198  26.505  0.00  0.00    -0.252 OA
ATOM      6  N   UNL     1      -5.262   1.637  25.107  0.00  0.00    -0.285 N 
ATOM      9  N   UNL     1      -4.466  -0.427  24.288  0.00  0.00    -0.269 N 
ATOM     10  C   UNL     1      -4.195   3.513  23.887  0.00  0.00    +0.011 C 
ATOM     11  C   UNL     1      -4.655   4.466  25.022  0.00  0.00    +0.006 C 
ATOM     13  C   UNL     1      -5.152   2.311  23.805  0.00  0.00    +0.113 C 
ATOM     14  C   UNL     1      -4.854   3.716  26.352  0.00  0.00    +0.023 C 
ATOM     16  C   UNL     1      -5.760   2.498  26.181  0.00  0.00    +0.109 C 
ATOM     23  C   UNL     1      -4.962   0.285  25.380  0.00  0.00    +0.306 C 
ATOM     39  H   UNL     1      -4.754  -0.148  23.357  0.00  0.00    +0.156 HD
ENDROOT
BRANCH   9  31
ATOM     31  C   UNL     1      -3.566  -1.521  24.312  0.00  0.00    +0.035 A 
ATOM     33  C   UNL     1      -2.267  -1.345  24.788  0.00  0.00    +0.023 A 
ATOM     34  C   UNL     1      -3.979  -2.774  23.859  0.00  0.00    +0.023 A 
ATOM     35  C   UNL     1      -1.382  -2.422  24.812  0.00  0.00    +0.002 A 
ATOM     36  C   UNL     1      -3.094  -3.852  23.884  0.00  0.00    +0.002 A 
ATOM     37  C   UNL     1      -1.795  -3.676  24.361  0.00  0.00    +0.000 A 
ENDBRANCH   9  31
BRANCH  10  12
ATOM     12  C   UNL     1      -2.744   3.036  24.022  0.00  0.00    +0.020 C 
BRANCH  12  15
ATOM     15  C   UNL     1      -2.448   1.913  23.039  0.00  0.00    +0.085 C 
BRANCH  15   5
ATOM      5  N   UNL     1      -1.002   1.777  22.861  0.00  0.00    -0.302 NA
ATOM     17  C   UNL     1       1.662   0.758  23.514  0.00  0.00    +0.095 C 
ATOM     18  C   UNL     1      -0.650   0.380  22.570  0.00  0.00    +0.086 C 
ATOM     19  C   UNL     1      -0.289   2.269  24.047  0.00  0.00    +0.086 C 
ATOM     21  C   UNL     1       0.853   0.229  22.328  0.00  0.00    +0.040 C 
ATOM     22  C   UNL     1       1.226   2.183  23.856  0.00  0.00    +0.040 C 
BRANCH  17   7
ATOM      4  O   UNL     1       3.461   2.864  22.321  0.00  0.00    -0.247 OA
ATOM      7  N   UNL     1       3.077   0.706  23.242  0.00  0.00    -0.289 N 
ATOM      8  N   UNL     1       5.175   1.258  22.593  0.00  0.00    -0.306 N 
ATOM     25  C   UNL     1       3.911  -0.390  23.497  0.00  0.00    +0.070 A 
ATOM     26  C   UNL     1       3.845   1.757  22.673  0.00  0.00    +0.328 A 
ATOM     27  C   UNL     1       5.200  -0.043  23.095  0.00  0.00    +0.067 A 
ATOM     28  C   UNL     1       3.632  -1.627  24.038  0.00  0.00    +0.028 A 
ATOM     29  C   UNL     1       6.267  -0.906  23.212  0.00  0.00    +0.028 A 
ATOM     30  C   UNL     1       4.700  -2.522  24.166  0.00  0.00    +0.002 A 
ATOM     32  C   UNL     1       6.003  -2.166  23.758  0.00  0.00    +0.002 A 
ATOM     38  H   UNL     1       5.980   1.755  22.232  0.00  0.00    +0.170 HD
ENDBRANCH  17   7
ENDBRANCH  15   5
ENDBRANCH  12  15
ENDBRANCH  10  12
BRANCH  11  20
ATOM     20  C   UNL     1      -3.729   5.666  25.212  0.00  0.00    +0.124 C 
BRANCH  20  24
ATOM      3  O   UNL     1      -1.297   5.636  25.048  0.00  0.00    -0.251 OA
ATOM     24  C   UNL     1      -2.331   5.239  25.564  0.00  0.00    +0.305 C 
BRANCH  24   1
ATOM      1  O   UNL     1      -2.373   4.323  26.567  0.00  0.00    -0.481 OA
ATOM     40  H   UNL     1      -3.258   4.282  26.987  0.00  0.00    +0.295 HD
ENDBRANCH  24   1
ENDBRANCH  20  24
ENDBRANCH  11  20
TORSDOF 8
ENDMDL
MODEL 4
REMARK VINA RESULT:      14.0      1.956      2.801
REMARK  Name = 28960006
REMARK  8 active torsions:
REMARK  status: ('A' for Active; 'I' for Inactive)
REMARK    1  A    between atoms: O_1  and  C_24
REMARK    2  A    between atoms: N_5  and  C_15
REMARK    3  A    between atoms: N_7  and  C_17
REMARK    4  A    between atoms: N_9  and  C_31
REMARK    5  A    between atoms: C_10  and  C_12
REMARK    6  A    between atoms: C_11  and  C_20
REMARK    7  A    between atoms: C_12  and  C_15
REMARK    8  A    between atoms: C_20  and  C_24
REMARK                            x       y       z     vdW  Elec       q    Type
REMARK                         _______ _______ _______ _____ _____    ______ ____
ROOT
ATOM      2  O   UNL     1      -4.665  -1.744  24.607  0.00  0.00    -0.252 OA
ATOM      6  N   UNL     1      -4.842   0.504  24.098  0.00  0.00    -0.285 N 
ATOM      9  N   UNL     1      -2.747  -0.577  24.023  0.00  0.00    -0.269 N 
ATOM     10  C   UNL     1      -4.555   2.887  24.724  0.00  0.00    +0.011 C 
ATOM     11  C   UNL     1      -6.071   2.945  25.053  0.00  0.00    +0.006 C 
ATOM     13  C   UNL     1      -4.300   1.801  23.664  0.00  0.00    +0.113 C 
ATOM     14  C   UNL     1      -6.632   1.557  25.413  0.00  0.00    +0.023 C 
ATOM     16  C   UNL     1      -6.283   0.518  24.349  0.00  0.00    +0.109 C 
ATOM     23  C   UNL     1      -4.116  -0.695  24.259  0.00  0.00    +0.306 C 
ATOM     39  H   UNL     1      -2.428   0.125  23.366  0.00  0.00    +0.156 HD
ENDROOT
BRANCH   9  31
ATOM     31  C   UNL     1      -1.704  -1.330  24.618  0.00  0.00    +0.035 A 
ATOM     33  C   UNL     1      -1.052  -0.845  25.751  0.00  0.00    +0.023 A 
ATOM     34  C   UNL     1      -1.330  -2.557  24.070  0.00  0.00    +0.023 A 
ATOM     35  C   UNL     1      -0.025  -1.587  26.336  0.00  0.00    +0.002 A 
ATOM     36  C   UNL     1      -0.305  -3.299  24.655  0.00  0.00    +0.002 A 
ATOM     37  C   UNL     1       0.348  -2.814  25.788  0.00  0.00    +0.000 A 
ENDBRANCH   9  31
BRANCH  10  12
ATOM     12  C   UNL     1      -3.659   2.662  25.948  0.00  0.00    +0.020 C 
BRANCH  12  15
ATOM     15  C   UNL     1      -2.316   3.355  25.773  0.00  0.00    +0.085 C 
BRANCH  15   5
ATOM      5  N   UNL     1      -1.358   2.436  25.159  0.00  0.00    -0.302 NA
ATOM     17  C   UNL     1       1.046   1.740  23.643  0.00  0.00    +0.095 C 
ATOM     18  C   UNL     1      -0.027   2.604  25.759  0.00  0.00    +0.086 C 
ATOM     19  C   UNL     1      -1.313   2.636  23.704  0.00  0.00    +0.086 C 
ATOM     21  C   UNL     1       0.975   1.612  25.166  0.00  0.00    +0.040 C 
ATOM     22  C   UNL     1      -0.355   1.646  23.040  0.00  0.00    +0.040 C 
BRANCH  17   7
ATOM      4  O   UNL     1       0.390  -0.531  21.771  0.00  0.00    -0.247 OA
ATOM      7  N   UNL     1       1.917   0.739  23.078  0.00  0.00    -0.289 N 
ATOM      8  N   UNL     1       2.697  -1.034  21.906  0.00  0.00    -0.306 N 
ATOM     25  C   UNL     1       3.294   0.639  23.311  0.00  0.00    +0.070 A 
ATOM     26  C   UNL     1       1.513  -0.300  22.198  0.00  0.00    +0.328 A 
ATOM     27  C   UNL     1       3.766  -0.454  22.587  0.00  0.00    +0.067 A 
ATOM     28  C   UNL     1       4.136   1.411  24.084  0.00  0.00    +0.028 A 
ATOM     29  C   UNL     1       5.092  -0.830  22.598  0.00  0.00    +0.028 A 
ATOM     30  C   UNL     1       5.487   1.048  24.112  0.00  0.00    +0.002 A 
ATOM     32  C   UNL     1       5.960  -0.060  23.377  0.00  0.00    +0.002 A 
ATOM     38  H   UNL     1       2.764  -1.846  21.305  0.00  0.00    +0.170 HD
ENDBRANCH  17   7
ENDBRANCH  15   5
ENDBRANCH  12  15
ENDBRANCH  10  12
BRANCH  11  20
ATOM     20  C   UNL     1      -6.411   3.963  26.141  0.00  0.00    +0.124 C 
BRANCH  20  24
ATOM      3  O   UNL     1      -6.546   6.099  24.974  0.00  0.00    -0.251 OA
ATOM     24  C   UNL     1      -5.979   5.351  25.757  0.00  0.00    +0.305 C 
BRANCH  24   1
ATOM      1  O   UNL     1      -4.837   5.674  26.418  0.00  0.00    -0.481 OA
ATOM     40  H   UNL     1      -4.783   5.228  27.291  0.00  0.00    +0.295 HD
ENDBRANCH  24   1
ENDBRANCH  20  24
ENDBRANCH  11  20
TORSDOF 8
ENDMDL
