MODEL 1
REMARK VINA RESULT:      -2.8      0.000      0.000
REMARK  Name = 51137187
REMARK  4 active torsions:
REMARK  status: ('A' for Active; 'I' for Inactive)
REMARK    1  A    between atoms: N_3  and  C_7
REMARK    2  A    between atoms: C_9  and  C_16
REMARK    3  A    between atoms: C_17  and  C_18
REMARK    4  A    between atoms: C_19  and  C_20
REMARK                            x       y       z     vdW  Elec       q    Type
REMARK                         _______ _______ _______ _____ _____    ______ ____
ROOT
ATOM      3  N   UNL     1      -0.904   0.524  23.226  0.00  0.00    -0.299 NA
ATOM      8  C   UNL     1       0.386   0.892  22.638  0.00  0.00    +0.097 C 
ATOM      9  C   UNL     1       1.264  -0.326  22.952  0.00  0.00    +0.092 C 
ATOM     10  C   UNL     1      -0.571  -0.070  24.521  0.00  0.00    +0.085 C 
ATOM     11  C   UNL     1       0.613  -0.968  24.189  0.00  0.00    +0.029 C 
ENDROOT
BRANCH   3   7
ATOM      2  O   UNL     1      -4.233   4.167  26.894  0.00  0.00    -0.276 OA
ATOM      4  N   UNL     1      -3.791   3.146  24.854  0.00  0.00    -0.302 N 
ATOM      7  C   UNL     1      -1.805   1.667  23.354  0.00  0.00    +0.060 C 
ATOM     12  C   UNL     1      -3.257   1.182  23.459  0.00  0.00    +0.038 C 
ATOM     13  C   UNL     1      -1.427   2.500  24.585  0.00  0.00    +0.038 C 
ATOM     14  C   UNL     1      -4.210   2.355  23.690  0.00  0.00    +0.109 C 
ATOM     15  C   UNL     1      -2.415   3.646  24.793  0.00  0.00    +0.109 C 
ATOM     17  C   UNL     1      -4.599   3.469  25.944  0.00  0.00    +0.212 C 
ATOM     18  C   UNL     1      -6.001   2.915  25.933  0.00  0.00    +0.109 C 
ENDBRANCH   3   7
BRANCH   9  16
ATOM      1  O   UNL     1       3.547  -0.954  23.577  0.00  0.00    -0.425 OA
ATOM      5  N   UNL     1       3.343   1.160  22.873  0.00  0.00    -0.112 NA
ATOM      6  N   UNL     1       4.671   0.941  23.190  0.00  0.00    -0.113 NA
ATOM     16  C   UNL     1       2.725   0.028  23.114  0.00  0.00    +0.222 A 
ATOM     19  C   UNL     1       4.743  -0.304  23.596  0.00  0.00    +0.214 A 
ATOM     20  C   UNL     1       5.908  -1.073  24.052  0.00  0.00    +0.111 C 
ENDBRANCH   9  16
TORSDOF 2
ENDMDL
MODEL 2
REMARK VINA RESULT:      -2.8      1.270      1.713
REMARK  Name = 51137187
REMARK  4 active torsions:
REMARK  status: ('A' for Active; 'I' for Inactive)
REMARK    1  A    between atoms: N_3  and  C_7
REMARK    2  A    between atoms: C_9  and  C_16
REMARK    3  A    between atoms: C_17  and  C_18
REMARK    4  A    between atoms: C_19  and  C_20
REMARK                            x       y       z     vdW  Elec       q    Type
REMARK                         _______ _______ _______ _____ _____    ______ ____
ROOT
ATOM      3  N   UNL     1      -0.647   0.464  23.452  0.00  0.00    -0.299 NA
ATOM      8  C   UNL     1       0.623   1.188  23.541  0.00  0.00    +0.097 C 
ATOM      9  C   UNL     1       1.534   0.397  22.593  0.00  0.00    +0.092 C 
ATOM     10  C   UNL     1      -0.277  -0.951  23.489  0.00  0.00    +0.085 C 
ATOM     11  C   UNL     1       0.921  -1.013  22.549  0.00  0.00    +0.029 C 
ENDROOT
BRANCH   3   7
ATOM      2  O   UNL     1      -6.376   1.921  25.144  0.00  0.00    -0.276 OA
ATOM      4  N   UNL     1      -4.068   1.996  25.404  0.00  0.00    -0.302 N 
ATOM      7  C   UNL     1      -1.570   0.825  24.525  0.00  0.00    +0.060 C 
ATOM     12  C   UNL     1      -1.780   2.345  24.549  0.00  0.00    +0.038 C 
ATOM     13  C   UNL     1      -2.909   0.102  24.333  0.00  0.00    +0.038 C 
ATOM     14  C   UNL     1      -2.816   2.738  25.602  0.00  0.00    +0.109 C 
ATOM     15  C   UNL     1      -3.922   0.539  25.389  0.00  0.00    +0.109 C 
ATOM     17  C   UNL     1      -5.333   2.569  25.275  0.00  0.00    +0.212 C 
ATOM     18  C   UNL     1      -5.399   4.075  25.296  0.00  0.00    +0.109 C 
ENDBRANCH   3   7
BRANCH   9  16
ATOM      1  O   UNL     1       3.545  -0.720  23.433  0.00  0.00    -0.425 OA
ATOM      5  N   UNL     1       3.825   1.456  22.999  0.00  0.00    -0.112 NA
ATOM      6  N   UNL     1       5.027   0.955  23.461  0.00  0.00    -0.113 NA
ATOM     16  C   UNL     1       2.989   0.444  22.998  0.00  0.00    +0.222 A 
ATOM     19  C   UNL     1       4.817  -0.318  23.702  0.00  0.00    +0.214 A 
ATOM     20  C   UNL     1       5.743  -1.340  24.205  0.00  0.00    +0.111 C 
ENDBRANCH   9  16
TORSDOF 2
ENDMDL
MODEL 3
REMARK VINA RESULT:      -1.4      1.763      2.169
REMARK  Name = 51137187
REMARK  4 active torsions:
REMARK  status: ('A' for Active; 'I' for Inactive)
REMARK    1  A    between atoms: N_3  and  C_7
REMARK    2  A    between atoms: C_9  and  C_16
REMARK    3  A    between atoms: C_17  and  C_18
REMARK    4  A    between atoms: C_19  and  C_20
REMARK                            x       y       z     vdW  Elec       q    Type
REMARK                         _______ _______ _______ _____ _____    ______ ____
ROOT
ATOM      3  N   UNL     1       0.145   0.849  23.372  0.00  0.00    -0.299 NA
ATOM      8  C   UNL     1       1.531   1.023  23.813  0.00  0.00    +0.097 C 
ATOM      9  C   UNL     1       2.334   0.369  22.682  0.00  0.00    +0.092 C 
ATOM     10  C   UNL     1       0.083  -0.521  22.864  0.00  0.00    +0.085 C 
ATOM     11  C   UNL     1       1.362  -0.640  22.046  0.00  0.00    +0.029 C 
ENDROOT
BRANCH   3   7
ATOM      2  O   UNL     1      -5.702   0.741  25.270  0.00  0.00    -0.276 OA
ATOM      4  N   UNL     1      -3.530   1.566  25.329  0.00  0.00    -0.302 N 
ATOM      7  C   UNL     1      -0.815   1.088  24.447  0.00  0.00    +0.060 C 
ATOM     12  C   UNL     1      -1.495   2.449  24.251  0.00  0.00    +0.038 C 
ATOM     13  C   UNL     1      -1.861  -0.034  24.477  0.00  0.00    +0.038 C 
ATOM     14  C   UNL     1      -2.574   2.680  25.309  0.00  0.00    +0.109 C 
ATOM     15  C   UNL     1      -2.931   0.245  25.530  0.00  0.00    +0.109 C 
ATOM     17  C   UNL     1      -4.915   1.690  25.215  0.00  0.00    +0.212 C 
ATOM     18  C   UNL     1      -5.454   3.082  25.007  0.00  0.00    +0.109 C 
ENDBRANCH   3   7
BRANCH   9  16
ATOM      1  O   UNL     1       4.753   0.554  23.014  0.00  0.00    -0.425 OA
ATOM      5  N   UNL     1       3.887  -1.394  23.690  0.00  0.00    -0.112 NA
ATOM      6  N   UNL     1       5.247  -1.423  23.934  0.00  0.00    -0.113 NA
ATOM     16  C   UNL     1       3.644  -0.221  23.154  0.00  0.00    +0.222 A 
ATOM     19  C   UNL     1       5.712  -0.267  23.524  0.00  0.00    +0.214 A 
ATOM     20  C   UNL     1       7.086   0.249  23.542  0.00  0.00    +0.111 C 
ENDBRANCH   9  16
TORSDOF 2
ENDMDL
MODEL 4
REMARK VINA RESULT:      -0.7      1.533      7.834
REMARK  Name = 51137187
REMARK  4 active torsions:
REMARK  status: ('A' for Active; 'I' for Inactive)
REMARK    1  A    between atoms: N_3  and  C_7
REMARK    2  A    between atoms: C_9  and  C_16
REMARK    3  A    between atoms: C_17  and  C_18
REMARK    4  A    between atoms: C_19  and  C_20
REMARK                            x       y       z     vdW  Elec       q    Type
REMARK                         _______ _______ _______ _____ _____    ______ ____
ROOT
ATOM      3  N   UNL     1       0.065   2.252  23.890  0.00  0.00    -0.299 NA
ATOM      8  C   UNL     1      -1.315   2.006  23.463  0.00  0.00    +0.097 C 
ATOM      9  C   UNL     1      -2.139   2.646  24.587  0.00  0.00    +0.092 C 
ATOM     10  C   UNL     1       0.071   1.963  25.324  0.00  0.00    +0.085 C 
ATOM     11  C   UNL     1      -1.208   2.631  25.812  0.00  0.00    +0.029 C 
ENDROOT
BRANCH   3   7
ATOM      2  O   UNL     1       4.345  -2.160  24.012  0.00  0.00    -0.276 OA
ATOM      4  N   UNL     1       3.385  -0.244  23.114  0.00  0.00    -0.302 N 
ATOM      7  C   UNL     1       1.029   1.437  23.154  0.00  0.00    +0.060 C 
ATOM     12  C   UNL     1       2.438   2.025  23.307  0.00  0.00    +0.038 C 
ATOM     13  C   UNL     1       0.993  -0.009  23.664  0.00  0.00    +0.038 C 
ATOM     14  C   UNL     1       3.478   1.137  22.625  0.00  0.00    +0.109 C 
ATOM     15  C   UNL     1       2.061  -0.856  22.976  0.00  0.00    +0.109 C 
ATOM     17  C   UNL     1       4.441  -0.987  23.641  0.00  0.00    +0.212 C 
ATOM     18  C   UNL     1       5.771  -0.285  23.754  0.00  0.00    +0.109 C 
ENDBRANCH   3   7
BRANCH   9  16
ATOM      1  O   UNL     1      -4.368   2.609  25.602  0.00  0.00    -0.425 OA
ATOM      5  N   UNL     1      -3.922   0.835  24.314  0.00  0.00    -0.112 NA
ATOM      6  N   UNL     1      -5.201   0.686  24.818  0.00  0.00    -0.113 NA
ATOM     16  C   UNL     1      -3.475   1.970  24.797  0.00  0.00    +0.222 A 
ATOM     19  C   UNL     1      -5.419   1.744  25.564  0.00  0.00    +0.214 A 
ATOM     20  C   UNL     1      -6.610   2.113  26.339  0.00  0.00    +0.111 C 
ENDBRANCH   9  16
TORSDOF 2
ENDMDL
MODEL 5
REMARK VINA RESULT:       0.1      2.933      3.781
REMARK  Name = 51137187
REMARK  4 active torsions:
REMARK  status: ('A' for Active; 'I' for Inactive)
REMARK    1  A    between atoms: N_3  and  C_7
REMARK    2  A    between atoms: C_9  and  C_16
REMARK    3  A    between atoms: C_17  and  C_18
REMARK    4  A    between atoms: C_19  and  C_20
REMARK                            x       y       z     vdW  Elec       q    Type
REMARK                         _______ _______ _______ _____ _____    ______ ____
ROOT
ATOM      3  N   UNL     1      -1.236   1.663  24.937  0.00  0.00    -0.299 NA
ATOM      8  C   UNL     1      -0.019   0.853  24.850  0.00  0.00    +0.097 C 
ATOM      9  C   UNL     1       0.990   1.819  24.216  0.00  0.00    +0.092 C 
ATOM     10  C   UNL     1      -1.308   2.372  23.659  0.00  0.00    +0.085 C 
ATOM     11  C   UNL     1       0.129   2.833  23.444  0.00  0.00    +0.029 C 
ENDROOT
BRANCH   3   7
ATOM      2  O   UNL     1      -3.888  -3.884  24.920  0.00  0.00    -0.276 OA
ATOM      4  N   UNL     1      -3.957  -1.565  24.777  0.00  0.00    -0.302 N 
ATOM      7  C   UNL     1      -2.427   0.856  25.192  0.00  0.00    +0.060 C 
ATOM     12  C   UNL     1      -3.177   0.596  23.879  0.00  0.00    +0.038 C 
ATOM     13  C   UNL     1      -2.031  -0.468  25.856  0.00  0.00    +0.038 C 
ATOM     14  C   UNL     1      -4.374  -0.327  24.107  0.00  0.00    +0.109 C 
ATOM     15  C   UNL     1      -3.250  -1.370  26.044  0.00  0.00    +0.109 C 
ATOM     17  C   UNL     1      -4.218  -2.857  24.320  0.00  0.00    +0.212 C 
ATOM     18  C   UNL     1      -4.948  -2.975  23.006  0.00  0.00    +0.109 C 
ENDBRANCH   3   7
BRANCH   9  16
ATOM      1  O   UNL     1       3.323   1.182  23.833  0.00  0.00    -0.425 OA
ATOM      5  N   UNL     1       1.905   0.430  22.275  0.00  0.00    -0.112 NA
ATOM      6  N   UNL     1       3.175   0.001  21.938  0.00  0.00    -0.113 NA
ATOM     16  C   UNL     1       2.039   1.114  23.386  0.00  0.00    +0.222 A 
ATOM     19  C   UNL     1       3.970   0.463  22.874  0.00  0.00    +0.214 A 
ATOM     20  C   UNL     1       5.422   0.311  23.027  0.00  0.00    +0.111 C 
ENDBRANCH   9  16
TORSDOF 2
ENDMDL
MODEL 6
REMARK VINA RESULT:       0.5      1.941      7.478
REMARK  Name = 51137187
REMARK  4 active torsions:
REMARK  status: ('A' for Active; 'I' for Inactive)
REMARK    1  A    between atoms: N_3  and  C_7
REMARK    2  A    between atoms: C_9  and  C_16
REMARK    3  A    between atoms: C_17  and  C_18
REMARK    4  A    between atoms: C_19  and  C_20
REMARK                            x       y       z     vdW  Elec       q    Type
REMARK                         _______ _______ _______ _____ _____    ______ ____
ROOT
ATOM      3  N   UNL     1      -0.834  -1.279  24.776  0.00  0.00    -0.299 NA
ATOM      8  C   UNL     1      -1.373   0.075  24.919  0.00  0.00    +0.097 C 
ATOM      9  C   UNL     1      -2.735  -0.167  25.582  0.00  0.00    +0.092 C 
ATOM     10  C   UNL     1      -1.962  -2.085  24.309  0.00  0.00    +0.085 C 
ATOM     11  C   UNL     1      -3.110  -1.606  25.189  0.00  0.00    +0.029 C 
ENDROOT
BRANCH   3   7
ATOM      2  O   UNL     1       5.118  -0.111  23.771  0.00  0.00    -0.276 OA
ATOM      4  N   UNL     1       2.927  -0.409  23.058  0.00  0.00    -0.302 N 
ATOM      7  C   UNL     1       0.304  -1.333  23.862  0.00  0.00    +0.060 C 
ATOM     12  C   UNL     1       0.504   0.032  23.190  0.00  0.00    +0.038 C 
ATOM     13  C   UNL     1       1.571  -1.746  24.622  0.00  0.00    +0.038 C 
ATOM     14  C   UNL     1       1.747   0.028  22.301  0.00  0.00    +0.109 C 
ATOM     15  C   UNL     1       2.792  -1.715  23.706  0.00  0.00    +0.109 C 
ATOM     17  C   UNL     1       4.127   0.295  23.158  0.00  0.00    +0.212 C 
ATOM     18  C   UNL     1       4.186   1.633  22.466  0.00  0.00    +0.109 C 
ENDBRANCH   3   7
BRANCH   9  16
ATOM      1  O   UNL     1      -3.289   2.069  24.754  0.00  0.00    -0.425 OA
ATOM      5  N   UNL     1      -5.072   0.823  25.276  0.00  0.00    -0.112 NA
ATOM      6  N   UNL     1      -5.525   2.049  24.826  0.00  0.00    -0.113 NA
ATOM     16  C   UNL     1      -3.762   0.880  25.216  0.00  0.00    +0.222 A 
ATOM     19  C   UNL     1      -4.452   2.744  24.533  0.00  0.00    +0.214 A 
ATOM     20  C   UNL     1      -4.336   4.110  24.010  0.00  0.00    +0.111 C 
ENDBRANCH   9  16
TORSDOF 2
ENDMDL
MODEL 7
REMARK VINA RESULT:       0.9      1.375      7.727
REMARK  Name = 51137187
REMARK  4 active torsions:
REMARK  status: ('A' for Active; 'I' for Inactive)
REMARK    1  A    between atoms: N_3  and  C_7
REMARK    2  A    between atoms: C_9  and  C_16
REMARK    3  A    between atoms: C_17  and  C_18
REMARK    4  A    between atoms: C_19  and  C_20
REMARK                            x       y       z     vdW  Elec       q    Type
REMARK                         _______ _______ _______ _____ _____    ______ ____
ROOT
ATOM      3  N   UNL     1      -0.735   0.376  23.937  0.00  0.00    -0.299 NA
ATOM      8  C   UNL     1      -0.935   1.509  24.843  0.00  0.00    +0.097 C 
ATOM      9  C   UNL     1      -2.414   1.381  25.229  0.00  0.00    +0.092 C 
ATOM     10  C   UNL     1      -1.919   0.367  23.079  0.00  0.00    +0.085 C 
ATOM     11  C   UNL     1      -3.055   0.607  24.065  0.00  0.00    +0.029 C 
ENDROOT
BRANCH   3   7
ATOM      2  O   UNL     1       5.151  -1.271  23.264  0.00  0.00    -0.276 OA
ATOM      4  N   UNL     1       3.382   0.212  22.996  0.00  0.00    -0.302 N 
ATOM      7  C   UNL     1       0.505   0.486  23.172  0.00  0.00    +0.060 C 
ATOM     12  C   UNL     1       1.450   1.490  23.845  0.00  0.00    +0.038 C 
ATOM     13  C   UNL     1       1.176  -0.888  23.058  0.00  0.00    +0.038 C 
ATOM     14  C   UNL     1       2.793   1.551  23.116  0.00  0.00    +0.109 C 
ATOM     15  C   UNL     1       2.523  -0.781  22.345  0.00  0.00    +0.109 C 
ATOM     17  C   UNL     1       4.665  -0.145  23.409  0.00  0.00    +0.212 C 
ATOM     18  C   UNL     1       5.486   0.931  24.073  0.00  0.00    +0.109 C 
ENDBRANCH   3   7
BRANCH   9  16
ATOM      1  O   UNL     1      -4.389   2.826  25.276  0.00  0.00    -0.425 OA
ATOM      5  N   UNL     1      -2.527   3.804  26.037  0.00  0.00    -0.112 NA
ATOM      6  N   UNL     1      -3.555   4.723  26.119  0.00  0.00    -0.113 NA
ATOM     16  C   UNL     1      -3.059   2.712  25.540  0.00  0.00    +0.222 A 
ATOM     19  C   UNL     1      -4.623   4.110  25.664  0.00  0.00    +0.214 A 
ATOM     20  C   UNL     1      -5.998   4.606  25.525  0.00  0.00    +0.111 C 
ENDBRANCH   9  16
TORSDOF 2
ENDMDL
MODEL 8
REMARK VINA RESULT:       0.9      2.063      3.109
REMARK  Name = 51137187
REMARK  4 active torsions:
REMARK  status: ('A' for Active; 'I' for Inactive)
REMARK    1  A    between atoms: N_3  and  C_7
REMARK    2  A    between atoms: C_9  and  C_16
REMARK    3  A    between atoms: C_17  and  C_18
REMARK    4  A    between atoms: C_19  and  C_20
REMARK                            x       y       z     vdW  Elec       q    Type
REMARK                         _______ _______ _______ _____ _____    ______ ____
ROOT
ATOM      3  N   UNL     1      -1.288   3.873  25.172  0.00  0.00    -0.299 NA
ATOM      8  C   UNL     1      -0.900   2.467  25.038  0.00  0.00    +0.097 C 
ATOM      9  C   UNL     1       0.591   2.555  24.691  0.00  0.00    +0.092 C 
ATOM     10  C   UNL     1      -0.636   4.551  24.052  0.00  0.00    +0.085 C 
ATOM     11  C   UNL     1       0.762   3.946  24.055  0.00  0.00    +0.029 C 
ENDROOT
BRANCH   3   7
ATOM      2  O   UNL     1      -6.817   1.837  26.931  0.00  0.00    -0.276 OA
ATOM      4  N   UNL     1      -5.407   2.979  25.479  0.00  0.00    -0.302 N 
ATOM      7  C   UNL     1      -2.738   4.055  25.165  0.00  0.00    +0.060 C 
ATOM     12  C   UNL     1      -3.374   3.160  24.093  0.00  0.00    +0.038 C 
ATOM     13  C   UNL     1      -3.315   3.729  26.548  0.00  0.00    +0.038 C 
ATOM     14  C   UNL     1      -4.899   3.262  24.131  0.00  0.00    +0.109 C 
ATOM     15  C   UNL     1      -4.840   3.819  26.537  0.00  0.00    +0.109 C 
ATOM     17  C   UNL     1      -6.380   2.031  25.793  0.00  0.00    +0.212 C 
ATOM     18  C   UNL     1      -6.911   1.204  24.649  0.00  0.00    +0.109 C 
ENDBRANCH   3   7
BRANCH   9  16
ATOM      1  O   UNL     1       2.362   1.439  23.421  0.00  0.00    -0.425 OA
ATOM      5  N   UNL     1       0.410   0.346  23.418  0.00  0.00    -0.112 NA
ATOM      6  N   UNL     1       1.312  -0.389  22.672  0.00  0.00    -0.113 NA
ATOM     16  C   UNL     1       1.066   1.403  23.836  0.00  0.00    +0.222 A 
ATOM     19  C   UNL     1       2.437   0.286  22.700  0.00  0.00    +0.214 A 
ATOM     20  C   UNL     1       3.731  -0.026  22.081  0.00  0.00    +0.111 C 
ENDBRANCH   9  16
TORSDOF 2
ENDMDL
