MODEL 1
REMARK VINA RESULT:      -5.7      0.000      0.000
REMARK  Name = 75536665
REMARK  10 active torsions:
REMARK  status: ('A' for Active; 'I' for Inactive)
REMARK    1  A    between atoms: S_1  and  N_9
REMARK    2  A    between atoms: S_1  and  C_17
REMARK    3  A    between atoms: O_3  and  C_11
REMARK    4  A    between atoms: O_6  and  C_23
REMARK    5  A    between atoms: N_8  and  C_10
REMARK    6  A    between atoms: N_8  and  C_15
REMARK    7  A    between atoms: N_9  and  C_14
REMARK    8  A    between atoms: C_12  and  C_14
REMARK    9  A    between atoms: C_15  and  C_16
REMARK   10  A    between atoms: C_22  and  C_23
REMARK                            x       y       z     vdW  Elec       q    Type
REMARK                         _______ _______ _______ _____ _____    ______ ____
ROOT
ATOM      2  O   UNL     1       0.723   0.246  23.173  0.00  0.00    -0.371 OA
ATOM     10  C   UNL     1       0.566   1.735  25.017  0.00  0.00    +0.111 C 
ATOM     11  C   UNL     1      -0.559   0.720  25.103  0.00  0.00    +0.164 C 
ATOM     12  C   UNL     1      -0.013  -0.398  24.226  0.00  0.00    +0.164 C 
ATOM     13  C   UNL     1       0.974   1.609  23.559  0.00  0.00    +0.181 C 
ENDROOT
BRANCH  11   3
ATOM      3  O   UNL     1      -0.800   0.284  26.427  0.00  0.00    -0.388 OA
ATOM     25  H   UNL     1      -0.202   0.768  27.022  0.00  0.00    +0.210 HD
ENDBRANCH  11   3
BRANCH  10   8
ATOM      8  N   UNL     1       0.164   3.085  25.378  0.00  0.00    -0.305 NA
ATOM     24  H   UNL     1       0.994   3.675  25.435  0.00  0.00    +0.123 HD
BRANCH   8  15
ATOM     15  C   UNL     1      -0.746   3.644  24.386  0.00  0.00    +0.116 C 
BRANCH  15  16
ATOM     16  C   UNL     1      -2.176   3.256  24.656  0.00  0.00    -0.034 A 
ATOM     18  C   UNL     1      -2.847   2.412  23.772  0.00  0.00    +0.006 A 
ATOM     19  C   UNL     1      -2.829   3.742  25.788  0.00  0.00    +0.006 A 
ATOM     20  C   UNL     1      -4.171   2.052  24.021  0.00  0.00    +0.015 A 
ATOM     21  C   UNL     1      -4.153   3.382  26.038  0.00  0.00    +0.015 A 
ATOM     22  C   UNL     1      -4.825   2.537  25.155  0.00  0.00    +0.059 A 
BRANCH  22  23
ATOM      7  O   UNL     1      -7.035   1.843  24.557  0.00  0.00    -0.245 OA
ATOM     23  C   UNL     1      -6.205   2.163  25.415  0.00  0.00    +0.337 C 
BRANCH  23   6
ATOM      6  O   UNL     1      -6.512   2.195  26.741  0.00  0.00    -0.477 OA
ATOM     27  H   UNL     1      -6.046   1.490  27.241  0.00  0.00    +0.295 HD
ENDBRANCH  23   6
ENDBRANCH  22  23
ENDBRANCH  15  16
ENDBRANCH   8  15
ENDBRANCH  10   8
BRANCH  12  14
ATOM     14  C   UNL     1      -1.098  -1.277  23.631  0.00  0.00    +0.139 C 
BRANCH  14   9
ATOM      9  N   UNL     1      -1.614  -2.196  24.665  0.00  0.00    -0.192 NA
ATOM     26  H   UNL     1      -1.189  -3.132  24.629  0.00  0.00    +0.148 HD
BRANCH   9   1
ATOM      1  S   UNL     1      -3.266  -2.126  25.088  0.00  0.00    +0.027 S 
ATOM      4  O   UNL     1      -3.444  -1.264  26.240  0.00  0.00    -0.158 OA
ATOM      5  O   UNL     1      -3.798  -3.476  25.083  0.00  0.00    -0.158 OA
ATOM     17  C   UNL     1      -3.932  -1.287  23.668  0.00  0.00    +0.214 C 
ENDBRANCH   9   1
ENDBRANCH  14   9
ENDBRANCH  12  14
TORSDOF 9
ENDMDL
MODEL 2
REMARK VINA RESULT:      -4.8      1.769      5.076
REMARK  Name = 75536665
REMARK  10 active torsions:
REMARK  status: ('A' for Active; 'I' for Inactive)
REMARK    1  A    between atoms: S_1  and  N_9
REMARK    2  A    between atoms: S_1  and  C_17
REMARK    3  A    between atoms: O_3  and  C_11
REMARK    4  A    between atoms: O_6  and  C_23
REMARK    5  A    between atoms: N_8  and  C_10
REMARK    6  A    between atoms: N_8  and  C_15
REMARK    7  A    between atoms: N_9  and  C_14
REMARK    8  A    between atoms: C_12  and  C_14
REMARK    9  A    between atoms: C_15  and  C_16
REMARK   10  A    between atoms: C_22  and  C_23
REMARK                            x       y       z     vdW  Elec       q    Type
REMARK                         _______ _______ _______ _____ _____    ______ ____
ROOT
ATOM      2  O   UNL     1      -5.893   2.107  25.759  0.00  0.00    -0.371 OA
ATOM     10  C   UNL     1      -4.416   3.782  24.949  0.00  0.00    +0.111 C 
ATOM     11  C   UNL     1      -4.013   2.441  24.365  0.00  0.00    +0.164 C 
ATOM     12  C   UNL     1      -5.301   1.648  24.532  0.00  0.00    +0.164 C 
ATOM     13  C   UNL     1      -5.271   3.350  26.129  0.00  0.00    +0.181 C 
ENDROOT
BRANCH  11   3
ATOM      3  O   UNL     1      -3.622   2.534  23.008  0.00  0.00    -0.388 OA
ATOM     25  H   UNL     1      -3.058   1.770  22.800  0.00  0.00    +0.210 HD
ENDBRANCH  11   3
BRANCH  10   8
ATOM      8  N   UNL     1      -3.288   4.612  25.342  0.00  0.00    -0.305 NA
ATOM     24  H   UNL     1      -3.637   5.444  25.817  0.00  0.00    +0.123 HD
BRANCH   8  15
ATOM     15  C   UNL     1      -2.396   3.892  26.243  0.00  0.00    +0.116 C 
BRANCH  15  16
ATOM     16  C   UNL     1      -1.376   3.078  25.490  0.00  0.00    -0.034 A 
ATOM     18  C   UNL     1      -0.622   3.671  24.479  0.00  0.00    +0.006 A 
ATOM     19  C   UNL     1      -1.189   1.733  25.803  0.00  0.00    +0.006 A 
ATOM     20  C   UNL     1       0.323   2.919  23.781  0.00  0.00    +0.015 A 
ATOM     21  C   UNL     1      -0.244   0.980  25.106  0.00  0.00    +0.015 A 
ATOM     22  C   UNL     1       0.512   1.572  24.094  0.00  0.00    +0.059 A 
BRANCH  22  23
ATOM      7  O   UNL     1       1.289  -0.309  22.837  0.00  0.00    -0.245 OA
ATOM     23  C   UNL     1       1.496   0.787  23.368  0.00  0.00    +0.337 C 
BRANCH  23   6
ATOM      6  O   UNL     1       2.714   1.394  23.321  0.00  0.00    -0.477 OA
ATOM     27  H   UNL     1       3.007   1.694  24.209  0.00  0.00    +0.295 HD
ENDBRANCH  23   6
ENDBRANCH  22  23
ENDBRANCH  15  16
ENDBRANCH   8  15
ENDBRANCH  10   8
BRANCH  12  14
ATOM     14  C   UNL     1      -5.078   0.148  24.600  0.00  0.00    +0.139 C 
BRANCH  14   9
ATOM      9  N   UNL     1      -3.703  -0.168  24.167  0.00  0.00    -0.192 NA
ATOM     26  H   UNL     1      -3.537   0.014  23.169  0.00  0.00    +0.148 HD
BRANCH   9   1
ATOM      1  S   UNL     1      -2.913  -1.526  24.835  0.00  0.00    +0.027 S 
ATOM      4  O   UNL     1      -3.062  -1.522  26.277  0.00  0.00    -0.158 OA
ATOM      5  O   UNL     1      -1.603  -1.640  24.225  0.00  0.00    -0.158 OA
ATOM     17  C   UNL     1      -3.919  -2.841  24.184  0.00  0.00    +0.214 C 
ENDBRANCH   9   1
ENDBRANCH  14   9
ENDBRANCH  12  14
TORSDOF 9
ENDMDL
MODEL 3
REMARK VINA RESULT:      -4.8      2.591      5.469
REMARK  Name = 75536665
REMARK  10 active torsions:
REMARK  status: ('A' for Active; 'I' for Inactive)
REMARK    1  A    between atoms: S_1  and  N_9
REMARK    2  A    between atoms: S_1  and  C_17
REMARK    3  A    between atoms: O_3  and  C_11
REMARK    4  A    between atoms: O_6  and  C_23
REMARK    5  A    between atoms: N_8  and  C_10
REMARK    6  A    between atoms: N_8  and  C_15
REMARK    7  A    between atoms: N_9  and  C_14
REMARK    8  A    between atoms: C_12  and  C_14
REMARK    9  A    between atoms: C_15  and  C_16
REMARK   10  A    between atoms: C_22  and  C_23
REMARK                            x       y       z     vdW  Elec       q    Type
REMARK                         _______ _______ _______ _____ _____    ______ ____
ROOT
ATOM      2  O   UNL     1      -3.310   4.634  23.918  0.00  0.00    -0.371 OA
ATOM     10  C   UNL     1      -4.805   3.809  25.568  0.00  0.00    +0.111 C 
ATOM     11  C   UNL     1      -3.392   3.775  26.119  0.00  0.00    +0.164 C 
ATOM     12  C   UNL     1      -2.698   4.780  25.211  0.00  0.00    +0.164 C 
ATOM     13  C   UNL     1      -4.543   3.910  24.074  0.00  0.00    +0.181 C 
ENDROOT
BRANCH  11   3
ATOM      3  O   UNL     1      -3.329   4.161  27.479  0.00  0.00    -0.388 OA
ATOM     25  H   UNL     1      -3.082   5.101  27.519  0.00  0.00    +0.210 HD
ENDBRANCH  11   3
BRANCH  10   8
ATOM      8  N   UNL     1      -5.599   2.644  25.925  0.00  0.00    -0.305 NA
ATOM     24  H   UNL     1      -6.531   2.950  26.205  0.00  0.00    +0.123 HD
BRANCH   8  15
ATOM     15  C   UNL     1      -5.722   1.728  24.797  0.00  0.00    +0.116 C 
BRANCH  15  16
ATOM     16  C   UNL     1      -4.592   0.733  24.758  0.00  0.00    -0.034 A 
ATOM     18  C   UNL     1      -4.472  -0.225  25.765  0.00  0.00    +0.006 A 
ATOM     19  C   UNL     1      -3.666   0.770  23.717  0.00  0.00    +0.006 A 
ATOM     20  C   UNL     1      -3.426  -1.147  25.730  0.00  0.00    +0.015 A 
ATOM     21  C   UNL     1      -2.620  -0.152  23.681  0.00  0.00    +0.015 A 
ATOM     22  C   UNL     1      -2.499  -1.110  24.687  0.00  0.00    +0.059 A 
BRANCH  22  23
ATOM      7  O   UNL     1      -1.376  -3.093  23.956  0.00  0.00    -0.245 OA
ATOM     23  C   UNL     1      -1.408  -2.071  24.650  0.00  0.00    +0.337 C 
BRANCH  23   6
ATOM      6  O   UNL     1      -0.385  -1.728  25.480  0.00  0.00    -0.477 OA
ATOM     27  H   UNL     1       0.205  -1.057  25.074  0.00  0.00    +0.295 HD
ENDBRANCH  23   6
ENDBRANCH  22  23
ENDBRANCH  15  16
ENDBRANCH   8  15
ENDBRANCH  10   8
BRANCH  12  14
ATOM     14  C   UNL     1      -1.201   4.555  25.099  0.00  0.00    +0.139 C 
BRANCH  14   9
ATOM      9  N   UNL     1      -0.942   3.224  24.516  0.00  0.00    -0.192 NA
ATOM     26  H   UNL     1      -1.731   2.858  23.967  0.00  0.00    +0.148 HD
BRANCH   9   1
ATOM      1  S   UNL     1      -0.046   2.084  25.414  0.00  0.00    +0.027 S 
ATOM      4  O   UNL     1      -0.942   1.115  26.015  0.00  0.00    -0.158 OA
ATOM      5  O   UNL     1       0.924   2.798  26.222  0.00  0.00    -0.158 OA
ATOM     17  C   UNL     1       0.847   1.268  24.110  0.00  0.00    +0.214 C 
ENDBRANCH   9   1
ENDBRANCH  14   9
ENDBRANCH  12  14
TORSDOF 9
ENDMDL
MODEL 4
REMARK VINA RESULT:      -4.6      2.368      4.324
REMARK  Name = 75536665
REMARK  10 active torsions:
REMARK  status: ('A' for Active; 'I' for Inactive)
REMARK    1  A    between atoms: S_1  and  N_9
REMARK    2  A    between atoms: S_1  and  C_17
REMARK    3  A    between atoms: O_3  and  C_11
REMARK    4  A    between atoms: O_6  and  C_23
REMARK    5  A    between atoms: N_8  and  C_10
REMARK    6  A    between atoms: N_8  and  C_15
REMARK    7  A    between atoms: N_9  and  C_14
REMARK    8  A    between atoms: C_12  and  C_14
REMARK    9  A    between atoms: C_15  and  C_16
REMARK   10  A    between atoms: C_22  and  C_23
REMARK                            x       y       z     vdW  Elec       q    Type
REMARK                         _______ _______ _______ _____ _____    ______ ____
ROOT
ATOM      2  O   UNL     1      -3.273  -2.301  23.882  0.00  0.00    -0.371 OA
ATOM     10  C   UNL     1      -1.288  -1.976  25.145  0.00  0.00    +0.111 C 
ATOM     11  C   UNL     1      -2.294  -0.903  25.519  0.00  0.00    +0.164 C 
ATOM     12  C   UNL     1      -3.595  -1.549  25.065  0.00  0.00    +0.164 C 
ATOM     13  C   UNL     1      -1.845  -2.460  23.816  0.00  0.00    +0.181 C 
ENDROOT
BRANCH  11   3
ATOM      3  O   UNL     1      -2.299  -0.622  26.905  0.00  0.00    -0.388 OA
ATOM     25  H   UNL     1      -1.687  -1.236  27.344  0.00  0.00    +0.210 HD
ENDBRANCH  11   3
BRANCH  10   8
ATOM      8  N   UNL     1       0.078  -1.486  25.040  0.00  0.00    -0.305 NA
ATOM     24  H   UNL     1       0.703  -2.276  24.878  0.00  0.00    +0.123 HD
BRANCH   8  15
ATOM     15  C   UNL     1       0.213  -0.543  23.937  0.00  0.00    +0.116 C 
BRANCH  15  16
ATOM     16  C   UNL     1      -0.295   0.827  24.305  0.00  0.00    -0.034 A 
ATOM     18  C   UNL     1       0.156   1.447  25.470  0.00  0.00    +0.006 A 
ATOM     19  C   UNL     1      -1.217   1.473  23.483  0.00  0.00    +0.006 A 
ATOM     20  C   UNL     1      -0.314   2.714  25.812  0.00  0.00    +0.015 A 
ATOM     21  C   UNL     1      -1.687   2.741  23.824  0.00  0.00    +0.015 A 
ATOM     22  C   UNL     1      -1.236   3.362  24.989  0.00  0.00    +0.059 A 
BRANCH  22  23
ATOM      7  O   UNL     1      -1.215   5.755  25.001  0.00  0.00    -0.245 OA
ATOM     23  C   UNL     1      -1.727   4.684  25.345  0.00  0.00    +0.337 C 
BRANCH  23   6
ATOM      6  O   UNL     1      -2.845   4.632  26.120  0.00  0.00    -0.477 OA
ATOM     27  H   UNL     1      -3.610   4.259  25.632  0.00  0.00    +0.295 HD
ENDBRANCH  23   6
ENDBRANCH  22  23
ENDBRANCH  15  16
ENDBRANCH   8  15
ENDBRANCH  10   8
BRANCH  12  14
ATOM     14  C   UNL     1      -4.688  -0.543  24.752  0.00  0.00    +0.139 C 
BRANCH  14   9
ATOM      9  N   UNL     1      -4.365   0.752  25.384  0.00  0.00    -0.192 NA
ATOM     26  H   UNL     1      -3.931   0.656  26.311  0.00  0.00    +0.148 HD
BRANCH   9   1
ATOM      1  S   UNL     1      -5.430   2.068  25.173  0.00  0.00    +0.027 S 
ATOM      4  O   UNL     1      -5.348   2.956  26.315  0.00  0.00    -0.158 OA
ATOM      5  O   UNL     1      -6.710   1.553  24.724  0.00  0.00    -0.158 OA
ATOM     17  C   UNL     1      -4.671   2.884  23.788  0.00  0.00    +0.214 C 
ENDBRANCH   9   1
ENDBRANCH  14   9
ENDBRANCH  12  14
TORSDOF 9
ENDMDL
MODEL 5
REMARK VINA RESULT:      -4.6      2.555      4.327
REMARK  Name = 75536665
REMARK  10 active torsions:
REMARK  status: ('A' for Active; 'I' for Inactive)
REMARK    1  A    between atoms: S_1  and  N_9
REMARK    2  A    between atoms: S_1  and  C_17
REMARK    3  A    between atoms: O_3  and  C_11
REMARK    4  A    between atoms: O_6  and  C_23
REMARK    5  A    between atoms: N_8  and  C_10
REMARK    6  A    between atoms: N_8  and  C_15
REMARK    7  A    between atoms: N_9  and  C_14
REMARK    8  A    between atoms: C_12  and  C_14
REMARK    9  A    between atoms: C_15  and  C_16
REMARK   10  A    between atoms: C_22  and  C_23
REMARK                            x       y       z     vdW  Elec       q    Type
REMARK                         _______ _______ _______ _____ _____    ______ ____
ROOT
ATOM      2  O   UNL     1      -0.586   4.997  24.625  0.00  0.00    -0.371 OA
ATOM     10  C   UNL     1      -2.319   4.218  26.050  0.00  0.00    +0.111 C 
ATOM     11  C   UNL     1      -1.546   3.028  25.514  0.00  0.00    +0.164 C 
ATOM     12  C   UNL     1      -0.237   3.687  25.104  0.00  0.00    +0.164 C 
ATOM     13  C   UNL     1      -1.921   5.303  25.063  0.00  0.00    +0.181 C 
ENDROOT
BRANCH  11   3
ATOM      3  O   UNL     1      -1.348   2.022  26.489  0.00  0.00    -0.388 OA
ATOM     25  H   UNL     1      -1.052   2.448  27.312  0.00  0.00    +0.210 HD
ENDBRANCH  11   3
BRANCH  10   8
ATOM      8  N   UNL     1      -3.756   4.004  26.107  0.00  0.00    -0.305 NA
ATOM     24  H   UNL     1      -4.211   4.874  26.383  0.00  0.00    +0.123 HD
BRANCH   8  15
ATOM     15  C   UNL     1      -4.277   3.592  24.809  0.00  0.00    +0.116 C 
BRANCH  15  16
ATOM     16  C   UNL     1      -4.144   2.106  24.599  0.00  0.00    -0.034 A 
ATOM     18  C   UNL     1      -4.727   1.220  25.504  0.00  0.00    +0.006 A 
ATOM     19  C   UNL     1      -3.437   1.617  23.501  0.00  0.00    +0.006 A 
ATOM     20  C   UNL     1      -4.604  -0.156  25.311  0.00  0.00    +0.015 A 
ATOM     21  C   UNL     1      -3.315   0.241  23.307  0.00  0.00    +0.015 A 
ATOM     22  C   UNL     1      -3.898  -0.646  24.212  0.00  0.00    +0.059 A 
BRANCH  22  23
ATOM      7  O   UNL     1      -4.674  -2.835  23.636  0.00  0.00    -0.245 OA
ATOM     23  C   UNL     1      -3.770  -2.080  24.009  0.00  0.00    +0.337 C 
BRANCH  23   6
ATOM      6  O   UNL     1      -2.514  -2.533  24.277  0.00  0.00    -0.477 OA
ATOM     27  H   UNL     1      -2.449  -3.507  24.179  0.00  0.00    +0.295 HD
ENDBRANCH  23   6
ENDBRANCH  22  23
ENDBRANCH  15  16
ENDBRANCH   8  15
ENDBRANCH  10   8
BRANCH  12  14
ATOM     14  C   UNL     1       0.506   2.926  24.021  0.00  0.00    +0.139 C 
BRANCH  14   9
ATOM      9  N   UNL     1       0.833   1.570  24.504  0.00  0.00    -0.192 NA
ATOM     26  H   UNL     1       1.724   1.523  25.016  0.00  0.00    +0.148 HD
BRANCH   9   1
ATOM      1  S   UNL     1       0.442   0.224  23.531  0.00  0.00    +0.027 S 
ATOM      4  O   UNL     1      -0.436   0.634  22.453  0.00  0.00    -0.158 OA
ATOM      5  O   UNL     1       0.084  -0.881  24.400  0.00  0.00    -0.158 OA
ATOM     17  C   UNL     1       2.035  -0.146  22.830  0.00  0.00    +0.214 C 
ENDBRANCH   9   1
ENDBRANCH  14   9
ENDBRANCH  12  14
TORSDOF 9
ENDMDL
MODEL 6
REMARK VINA RESULT:      -4.1      2.326      4.319
REMARK  Name = 75536665
REMARK  10 active torsions:
REMARK  status: ('A' for Active; 'I' for Inactive)
REMARK    1  A    between atoms: S_1  and  N_9
REMARK    2  A    between atoms: S_1  and  C_17
REMARK    3  A    between atoms: O_3  and  C_11
REMARK    4  A    between atoms: O_6  and  C_23
REMARK    5  A    between atoms: N_8  and  C_10
REMARK    6  A    between atoms: N_8  and  C_15
REMARK    7  A    between atoms: N_9  and  C_14
REMARK    8  A    between atoms: C_12  and  C_14
REMARK    9  A    between atoms: C_15  and  C_16
REMARK   10  A    between atoms: C_22  and  C_23
REMARK                            x       y       z     vdW  Elec       q    Type
REMARK                         _______ _______ _______ _____ _____    ______ ____
ROOT
ATOM      2  O   UNL     1      -0.468   0.883  25.882  0.00  0.00    -0.371 OA
ATOM     10  C   UNL     1      -0.198  -1.023  24.490  0.00  0.00    +0.111 C 
ATOM     11  C   UNL     1      -0.066   0.230  23.645  0.00  0.00    +0.164 C 
ATOM     12  C   UNL     1       0.266   1.268  24.708  0.00  0.00    +0.164 C 
ATOM     13  C   UNL     1      -0.900  -0.480  25.724  0.00  0.00    +0.181 C 
ENDROOT
BRANCH  11   3
ATOM      3  O   UNL     1       0.955   0.126  22.671  0.00  0.00    -0.388 OA
ATOM     25  H   UNL     1       0.577  -0.281  21.873  0.00  0.00    +0.210 HD
ENDBRANCH  11   3
BRANCH  10   8
ATOM      8  N   UNL     1      -0.941  -2.090  23.839  0.00  0.00    -0.305 NA
ATOM     24  H   UNL     1      -0.332  -2.901  23.730  0.00  0.00    +0.123 HD
BRANCH   8  15
ATOM     15  C   UNL     1      -2.104  -2.477  24.630  0.00  0.00    +0.116 C 
BRANCH  15  16
ATOM     16  C   UNL     1      -3.088  -1.345  24.768  0.00  0.00    -0.034 A 
ATOM     18  C   UNL     1      -3.637  -1.048  26.015  0.00  0.00    +0.006 A 
ATOM     19  C   UNL     1      -3.451  -0.595  23.650  0.00  0.00    +0.006 A 
ATOM     20  C   UNL     1      -4.548   0.000  26.145  0.00  0.00    +0.015 A 
ATOM     21  C   UNL     1      -4.361   0.454  23.779  0.00  0.00    +0.015 A 
ATOM     22  C   UNL     1      -4.911   0.752  25.026  0.00  0.00    +0.059 A 
BRANCH  22  23
ATOM      7  O   UNL     1      -6.922   1.952  24.538  0.00  0.00    -0.245 OA
ATOM     23  C   UNL     1      -5.860   1.844  25.160  0.00  0.00    +0.337 C 
BRANCH  23   6
ATOM      6  O   UNL     1      -5.459   2.773  26.071  0.00  0.00    -0.477 OA
ATOM     27  H   UNL     1      -6.153   3.447  26.235  0.00  0.00    +0.295 HD
ENDBRANCH  23   6
ENDBRANCH  22  23
ENDBRANCH  15  16
ENDBRANCH   8  15
ENDBRANCH  10   8
BRANCH  12  14
ATOM     14  C   UNL     1      -0.113   2.682  24.306  0.00  0.00    +0.139 C 
BRANCH  14   9
ATOM      9  N   UNL     1      -1.574   2.769  24.117  0.00  0.00    -0.192 NA
ATOM     26  H   UNL     1      -1.869   2.629  23.142  0.00  0.00    +0.148 HD
BRANCH   9   1
ATOM      1  S   UNL     1      -2.463   3.907  25.027  0.00  0.00    +0.027 S 
ATOM      4  O   UNL     1      -2.581   3.457  26.400  0.00  0.00    -0.158 OA
ATOM      5  O   UNL     1      -3.639   4.283  24.266  0.00  0.00    -0.158 OA
ATOM     17  C   UNL     1      -1.347   5.291  24.998  0.00  0.00    +0.214 C 
ENDBRANCH   9   1
ENDBRANCH  14   9
ENDBRANCH  12  14
TORSDOF 9
ENDMDL
MODEL 7
REMARK VINA RESULT:      -4.0      2.411      4.854
REMARK  Name = 75536665
REMARK  10 active torsions:
REMARK  status: ('A' for Active; 'I' for Inactive)
REMARK    1  A    between atoms: S_1  and  N_9
REMARK    2  A    between atoms: S_1  and  C_17
REMARK    3  A    between atoms: O_3  and  C_11
REMARK    4  A    between atoms: O_6  and  C_23
REMARK    5  A    between atoms: N_8  and  C_10
REMARK    6  A    between atoms: N_8  and  C_15
REMARK    7  A    between atoms: N_9  and  C_14
REMARK    8  A    between atoms: C_12  and  C_14
REMARK    9  A    between atoms: C_15  and  C_16
REMARK   10  A    between atoms: C_22  and  C_23
REMARK                            x       y       z     vdW  Elec       q    Type
REMARK                         _______ _______ _______ _____ _____    ______ ____
ROOT
ATOM      2  O   UNL     1      -2.058   3.517  26.578  0.00  0.00    -0.371 OA
ATOM     10  C   UNL     1       0.058   3.045  25.607  0.00  0.00    +0.111 C 
ATOM     11  C   UNL     1      -0.845   3.660  24.554  0.00  0.00    +0.164 C 
ATOM     12  C   UNL     1      -1.881   4.356  25.425  0.00  0.00    +0.164 C 
ATOM     13  C   UNL     1      -0.957   2.594  26.645  0.00  0.00    +0.181 C 
ENDROOT
BRANCH  11   3
ATOM      3  O   UNL     1      -0.161   4.572  23.716  0.00  0.00    -0.388 OA
ATOM     25  H   UNL     1       0.466   5.078  24.262  0.00  0.00    +0.210 HD
ENDBRANCH  11   3
BRANCH  10   8
ATOM      8  N   UNL     1       0.880   1.954  25.108  0.00  0.00    -0.305 NA
ATOM     24  H   UNL     1       0.869   1.193  25.787  0.00  0.00    +0.123 HD
BRANCH   8  15
ATOM     15  C   UNL     1       0.374   1.458  23.834  0.00  0.00    +0.116 C 
BRANCH  15  16
ATOM     16  C   UNL     1      -0.680   0.399  24.024  0.00  0.00    -0.034 A 
ATOM     18  C   UNL     1      -0.318  -0.875  24.459  0.00  0.00    +0.006 A 
ATOM     19  C   UNL     1      -2.018   0.693  23.764  0.00  0.00    +0.006 A 
ATOM     20  C   UNL     1      -1.293  -1.856  24.636  0.00  0.00    +0.015 A 
ATOM     21  C   UNL     1      -2.995  -0.287  23.941  0.00  0.00    +0.015 A 
ATOM     22  C   UNL     1      -2.633  -1.562  24.377  0.00  0.00    +0.059 A 
BRANCH  22  23
ATOM      7  O   UNL     1      -3.628  -3.471  25.420  0.00  0.00    -0.245 OA
ATOM     23  C   UNL     1      -3.650  -2.584  24.560  0.00  0.00    +0.337 C 
BRANCH  23   6
ATOM      6  O   UNL     1      -4.670  -2.470  23.666  0.00  0.00    -0.477 OA
ATOM     27  H   UNL     1      -5.048  -3.344  23.429  0.00  0.00    +0.295 HD
ENDBRANCH  23   6
ENDBRANCH  22  23
ENDBRANCH  15  16
ENDBRANCH   8  15
ENDBRANCH  10   8
BRANCH  12  14
ATOM     14  C   UNL     1      -3.214   4.557  24.727  0.00  0.00    +0.139 C 
BRANCH  14   9
ATOM      9  N   UNL     1      -3.984   3.298  24.757  0.00  0.00    -0.192 NA
ATOM     26  H   UNL     1      -3.970   2.788  23.864  0.00  0.00    +0.148 HD
BRANCH   9   1
ATOM      1  S   UNL     1      -5.440   3.236  25.645  0.00  0.00    +0.027 S 
ATOM      4  O   UNL     1      -6.177   4.472  25.470  0.00  0.00    -0.158 OA
ATOM      5  O   UNL     1      -5.146   2.730  26.972  0.00  0.00    -0.158 OA
ATOM     17  C   UNL     1      -6.305   1.954  24.767  0.00  0.00    +0.214 C 
ENDBRANCH   9   1
ENDBRANCH  14   9
ENDBRANCH  12  14
TORSDOF 9
ENDMDL
MODEL 8
REMARK VINA RESULT:      -3.9      2.254      4.308
REMARK  Name = 75536665
REMARK  10 active torsions:
REMARK  status: ('A' for Active; 'I' for Inactive)
REMARK    1  A    between atoms: S_1  and  N_9
REMARK    2  A    between atoms: S_1  and  C_17
REMARK    3  A    between atoms: O_3  and  C_11
REMARK    4  A    between atoms: O_6  and  C_23
REMARK    5  A    between atoms: N_8  and  C_10
REMARK    6  A    between atoms: N_8  and  C_15
REMARK    7  A    between atoms: N_9  and  C_14
REMARK    8  A    between atoms: C_12  and  C_14
REMARK    9  A    between atoms: C_15  and  C_16
REMARK   10  A    between atoms: C_22  and  C_23
REMARK                            x       y       z     vdW  Elec       q    Type
REMARK                         _______ _______ _______ _____ _____    ______ ____
ROOT
ATOM      2  O   UNL     1      -1.014  -0.458  26.198  0.00  0.00    -0.371 OA
ATOM     10  C   UNL     1      -2.411  -2.173  25.333  0.00  0.00    +0.111 C 
ATOM     11  C   UNL     1      -1.552  -1.621  24.211  0.00  0.00    +0.164 C 
ATOM     12  C   UNL     1      -0.419  -0.978  24.997  0.00  0.00    +0.164 C 
ATOM     13  C   UNL     1      -2.309  -1.061  26.364  0.00  0.00    +0.181 C 
ENDROOT
BRANCH  11   3
ATOM      3  O   UNL     1      -1.083  -2.629  23.337  0.00  0.00    -0.388 OA
ATOM     25  H   UNL     1      -0.131  -2.751  23.494  0.00  0.00    +0.210 HD
ENDBRANCH  11   3
BRANCH  10   8
ATOM      8  N   UNL     1      -3.782  -2.453  24.936  0.00  0.00    -0.305 NA
ATOM     24  H   UNL     1      -4.405  -2.233  25.713  0.00  0.00    +0.123 HD
BRANCH   8  15
ATOM     15  C   UNL     1      -4.168  -1.650  23.781  0.00  0.00    +0.116 C 
BRANCH  15  16
ATOM     16  C   UNL     1      -4.361  -0.201  24.146  0.00  0.00    -0.034 A 
ATOM     18  C   UNL     1      -5.212   0.145  25.195  0.00  0.00    +0.006 A 
ATOM     19  C   UNL     1      -3.691   0.793  23.435  0.00  0.00    +0.006 A 
ATOM     20  C   UNL     1      -5.392   1.486  25.534  0.00  0.00    +0.015 A 
ATOM     21  C   UNL     1      -3.870   2.134  23.773  0.00  0.00    +0.015 A 
ATOM     22  C   UNL     1      -4.720   2.481  24.823  0.00  0.00    +0.059 A 
BRANCH  22  23
ATOM      7  O   UNL     1      -5.930   4.363  25.672  0.00  0.00    -0.245 OA
ATOM     23  C   UNL     1      -4.907   3.879  25.175  0.00  0.00    +0.337 C 
BRANCH  23   6
ATOM      6  O   UNL     1      -3.810   4.636  24.900  0.00  0.00    -0.477 OA
ATOM     27  H   UNL     1      -4.049   5.567  24.700  0.00  0.00    +0.295 HD
ENDBRANCH  23   6
ENDBRANCH  22  23
ENDBRANCH  15  16
ENDBRANCH   8  15
ENDBRANCH  10   8
BRANCH  12  14
ATOM     14  C   UNL     1       0.276   0.141  24.243  0.00  0.00    +0.139 C 
BRANCH  14   9
ATOM      9  N   UNL     1      -0.613   1.318  24.172  0.00  0.00    -0.192 NA
ATOM     26  H   UNL     1      -0.840   1.601  23.210  0.00  0.00    +0.148 HD
BRANCH   9   1
ATOM      1  S   UNL     1      -0.419   2.574  25.311  0.00  0.00    +0.027 S 
ATOM      4  O   UNL     1       0.845   2.421  26.004  0.00  0.00    -0.158 OA
ATOM      5  O   UNL     1      -1.658   2.716  26.052  0.00  0.00    -0.158 OA
ATOM     17  C   UNL     1      -0.284   3.979  24.228  0.00  0.00    +0.214 C 
ENDBRANCH   9   1
ENDBRANCH  14   9
ENDBRANCH  12  14
TORSDOF 9
ENDMDL
MODEL 9
REMARK VINA RESULT:      -3.8      2.911      4.607
REMARK  Name = 75536665
REMARK  10 active torsions:
REMARK  status: ('A' for Active; 'I' for Inactive)
REMARK    1  A    between atoms: S_1  and  N_9
REMARK    2  A    between atoms: S_1  and  C_17
REMARK    3  A    between atoms: O_3  and  C_11
REMARK    4  A    between atoms: O_6  and  C_23
REMARK    5  A    between atoms: N_8  and  C_10
REMARK    6  A    between atoms: N_8  and  C_15
REMARK    7  A    between atoms: N_9  and  C_14
REMARK    8  A    between atoms: C_12  and  C_14
REMARK    9  A    between atoms: C_15  and  C_16
REMARK   10  A    between atoms: C_22  and  C_23
REMARK                            x       y       z     vdW  Elec       q    Type
REMARK                         _______ _______ _______ _____ _____    ______ ____
ROOT
ATOM      2  O   UNL     1       0.160   3.535  23.701  0.00  0.00    -0.371 OA
ATOM     10  C   UNL     1      -1.343   3.805  25.520  0.00  0.00    +0.111 C 
ATOM     11  C   UNL     1      -0.791   2.391  25.539  0.00  0.00    +0.164 C 
ATOM     12  C   UNL     1       0.473   2.559  24.708  0.00  0.00    +0.164 C 
ATOM     13  C   UNL     1      -1.039   4.227  24.092  0.00  0.00    +0.181 C 
ENDROOT
BRANCH  11   3
ATOM      3  O   UNL     1      -0.506   1.935  26.847  0.00  0.00    -0.388 OA
ATOM     25  H   UNL     1      -0.943   2.529  27.480  0.00  0.00    +0.210 HD
ENDBRANCH  11   3
BRANCH  10   8
ATOM      8  N   UNL     1      -2.758   3.883  25.844  0.00  0.00    -0.305 NA
ATOM     24  H   UNL     1      -2.988   4.844  26.100  0.00  0.00    +0.123 HD
BRANCH   8  15
ATOM     15  C   UNL     1      -3.580   3.489  24.706  0.00  0.00    +0.116 C 
BRANCH  15  16
ATOM     16  C   UNL     1      -3.680   1.991  24.581  0.00  0.00    -0.034 A 
ATOM     18  C   UNL     1      -3.161   1.350  23.456  0.00  0.00    +0.006 A 
ATOM     19  C   UNL     1      -4.292   1.246  25.588  0.00  0.00    +0.006 A 
ATOM     20  C   UNL     1      -3.253  -0.037  23.339  0.00  0.00    +0.015 A 
ATOM     21  C   UNL     1      -4.384  -0.140  25.472  0.00  0.00    +0.015 A 
ATOM     22  C   UNL     1      -3.865  -0.783  24.348  0.00  0.00    +0.059 A 
BRANCH  22  23
ATOM      7  O   UNL     1      -3.439  -3.048  24.989  0.00  0.00    -0.245 OA
ATOM     23  C   UNL     1      -3.962  -2.228  24.226  0.00  0.00    +0.337 C 
BRANCH  23   6
ATOM      6  O   UNL     1      -4.711  -2.612  23.156  0.00  0.00    -0.477 OA
ATOM     27  H   UNL     1      -4.249  -2.439  22.307  0.00  0.00    +0.295 HD
ENDBRANCH  23   6
ENDBRANCH  22  23
ENDBRANCH  15  16
ENDBRANCH   8  15
ENDBRANCH  10   8
BRANCH  12  14
ATOM     14  C   UNL     1       0.933   1.270  24.049  0.00  0.00    +0.139 C 
BRANCH  14   9
ATOM      9  N   UNL     1       2.215   1.500  23.354  0.00  0.00    -0.192 NA
ATOM     26  H   UNL     1       2.324   2.460  23.003  0.00  0.00    +0.148 HD
BRANCH   9   1
ATOM      1  S   UNL     1       2.868   0.257  22.384  0.00  0.00    +0.027 S 
ATOM      4  O   UNL     1       4.117   0.697  21.793  0.00  0.00    -0.158 OA
ATOM      5  O   UNL     1       1.807  -0.284  21.557  0.00  0.00    -0.158 OA
ATOM     17  C   UNL     1       3.248  -0.960  23.624  0.00  0.00    +0.214 C 
ENDBRANCH   9   1
ENDBRANCH  14   9
ENDBRANCH  12  14
TORSDOF 9
ENDMDL
MODEL 10
REMARK VINA RESULT:      -3.4      3.183      4.597
REMARK  Name = 75536665
REMARK  10 active torsions:
REMARK  status: ('A' for Active; 'I' for Inactive)
REMARK    1  A    between atoms: S_1  and  N_9
REMARK    2  A    between atoms: S_1  and  C_17
REMARK    3  A    between atoms: O_3  and  C_11
REMARK    4  A    between atoms: O_6  and  C_23
REMARK    5  A    between atoms: N_8  and  C_10
REMARK    6  A    between atoms: N_8  and  C_15
REMARK    7  A    between atoms: N_9  and  C_14
REMARK    8  A    between atoms: C_12  and  C_14
REMARK    9  A    between atoms: C_15  and  C_16
REMARK   10  A    between atoms: C_22  and  C_23
REMARK                            x       y       z     vdW  Elec       q    Type
REMARK                         _______ _______ _______ _____ _____    ______ ____
ROOT
ATOM      2  O   UNL     1       0.808  -0.820  22.764  0.00  0.00    -0.371 OA
ATOM     10  C   UNL     1       0.412   1.050  24.174  0.00  0.00    +0.111 C 
ATOM     11  C   UNL     1       1.825   1.131  23.628  0.00  0.00    +0.164 C 
ATOM     12  C   UNL     1       1.721   0.231  22.406  0.00  0.00    +0.164 C 
ATOM     13  C   UNL     1       0.083  -0.415  23.938  0.00  0.00    +0.181 C 
ENDROOT
BRANCH  11   3
ATOM      3  O   UNL     1       2.201   2.450  23.282  0.00  0.00    -0.388 OA
ATOM     25  H   UNL     1       1.763   3.064  23.896  0.00  0.00    +0.210 HD
ENDBRANCH  11   3
BRANCH  10   8
ATOM      8  N   UNL     1       0.302   1.437  25.571  0.00  0.00    -0.305 NA
ATOM     24  H   UNL     1       1.225   1.391  26.003  0.00  0.00    +0.123 HD
BRANCH   8  15
ATOM     15  C   UNL     1      -0.212   2.795  25.700  0.00  0.00    +0.116 C 
BRANCH  15  16
ATOM     16  C   UNL     1      -1.715   2.837  25.610  0.00  0.00    -0.034 A 
ATOM     18  C   UNL     1      -2.407   1.774  25.032  0.00  0.00    +0.006 A 
ATOM     19  C   UNL     1      -2.413   3.938  26.104  0.00  0.00    +0.006 A 
ATOM     20  C   UNL     1      -3.799   1.811  24.948  0.00  0.00    +0.015 A 
ATOM     21  C   UNL     1      -3.805   3.976  26.021  0.00  0.00    +0.015 A 
ATOM     22  C   UNL     1      -4.498   2.912  25.443  0.00  0.00    +0.059 A 
BRANCH  22  23
ATOM      7  O   UNL     1      -6.673   2.010  25.016  0.00  0.00    -0.245 OA
ATOM     23  C   UNL     1      -5.949   2.952  25.356  0.00  0.00    +0.337 C 
BRANCH  23   6
ATOM      6  O   UNL     1      -6.458   4.168  25.697  0.00  0.00    -0.477 OA
ATOM     27  H   UNL     1      -6.993   4.556  24.972  0.00  0.00    +0.295 HD
ENDBRANCH  23   6
ENDBRANCH  22  23
ENDBRANCH  15  16
ENDBRANCH   8  15
ENDBRANCH  10   8
BRANCH  12  14
ATOM     14  C   UNL     1       3.052  -0.367  21.985  0.00  0.00    +0.139 C 
BRANCH  14   9
ATOM      9  N   UNL     1       4.151   0.519  22.415  0.00  0.00    -0.192 NA
ATOM     26  H   UNL     1       4.516   1.114  21.660  0.00  0.00    +0.148 HD
BRANCH   9   1
ATOM      1  S   UNL     1       5.290  -0.060  23.546  0.00  0.00    +0.027 S 
ATOM      4  O   UNL     1       5.245   0.747  24.749  0.00  0.00    -0.158 OA
ATOM      5  O   UNL     1       6.545  -0.291  22.855  0.00  0.00    -0.158 OA
ATOM     17  C   UNL     1       4.593  -1.651  23.927  0.00  0.00    +0.214 C 
ENDBRANCH   9   1
ENDBRANCH  14   9
ENDBRANCH  12  14
TORSDOF 9
ENDMDL
