MODEL 1
REMARK VINA RESULT:       4.8      0.000      0.000
REMARK  Name = 40779501
REMARK  9 active torsions:
REMARK  status: ('A' for Active; 'I' for Inactive)
REMARK    1  A    between atoms: O_3  and  C_30
REMARK    2  A    between atoms: O_3  and  C_33
REMARK    3  A    between atoms: O_4  and  C_32
REMARK    4  A    between atoms: O_4  and  C_34
REMARK    5  A    between atoms: N_6  and  C_21
REMARK    6  A    between atoms: N_7  and  C_17
REMARK    7  A    between atoms: C_11  and  C_18
REMARK    8  A    between atoms: C_12  and  C_17
REMARK    9  A    between atoms: C_20  and  C_23
REMARK                            x       y       z     vdW  Elec       q    Type
REMARK                         _______ _______ _______ _____ _____    ______ ____
ROOT
ATOM      5  N   UNL     1      -5.852   3.216  24.346  0.00  0.00    -0.297 NA
ATOM     10  C   UNL     1      -4.094   3.910  26.139  0.00  0.00    +0.002 C 
ATOM     11  C   UNL     1      -3.509   4.076  24.709  0.00  0.00    +0.055 C 
ATOM     12  C   UNL     1      -5.734   2.154  25.381  0.00  0.00    +0.074 C 
ATOM     13  C   UNL     1      -4.555   2.451  26.334  0.00  0.00    +0.024 C 
ATOM     14  C   UNL     1      -5.355   4.798  26.210  0.00  0.00    +0.019 C 
ATOM     15  C   UNL     1      -4.532   3.457  23.714  0.00  0.00    +0.094 C 
ATOM     16  C   UNL     1      -6.277   4.465  25.024  0.00  0.00    +0.085 C 
ENDROOT
BRANCH  11  18
ATOM      6  N   UNL     1      -0.994   4.397  24.582  0.00  0.00    -0.270 N 
ATOM      8  N   UNL     1       0.168   3.779  24.310  0.00  0.00    -0.171 NA
ATOM     18  C   UNL     1      -2.089   3.592  24.453  0.00  0.00    +0.044 A 
ATOM     19  C   UNL     1      -1.608   2.364  24.070  0.00  0.00    +0.053 A 
ATOM     20  C   UNL     1      -0.213   2.538  23.999  0.00  0.00    +0.093 A 
ATOM     21  C   UNL     1      -0.981   5.789  24.965  0.00  0.00    +0.172 C 
BRANCH  20  23
ATOM     23  C   UNL     1       0.761   1.542  23.637  0.00  0.00    +0.006 A 
ATOM     26  C   UNL     1       2.104   1.896  23.501  0.00  0.00    +0.059 A 
ATOM     27  C   UNL     1       0.362   0.223  23.421  0.00  0.00    +0.014 A 
ATOM     30  C   UNL     1       3.048   0.930  23.149  0.00  0.00    +0.162 A 
ATOM     31  C   UNL     1       1.306  -0.743  23.069  0.00  0.00    +0.050 A 
ATOM     32  C   UNL     1       2.648  -0.389  22.933  0.00  0.00    +0.162 A 
BRANCH  30   3
ATOM      3  O   UNL     1       4.355   1.288  23.020  0.00  0.00    -0.491 OA
ATOM     33  C   UNL     1       5.278   0.721  23.947  0.00  0.00    +0.277 C 
ENDBRANCH  30   3
BRANCH  32   4
ATOM      4  O   UNL     1       3.560  -1.340  22.590  0.00  0.00    -0.491 OA
ATOM     34  C   UNL     1       4.262  -1.979  23.655  0.00  0.00    +0.277 C 
ENDBRANCH  32   4
ENDBRANCH  20  23
ENDBRANCH  11  18
BRANCH  12  17
ATOM     17  C   UNL     1      -5.637   0.755  24.772  0.00  0.00    +0.124 C 
BRANCH  17   7
ATOM      1  O   UNL     1      -4.669  -1.689  23.764  0.00  0.00    -0.253 OA
ATOM      2  O   UNL     1      -0.149  -2.463  25.620  0.00  0.00    -0.377 OA
ATOM      7  N   UNL     1      -4.421   0.093  25.188  0.00  0.00    -0.298 N 
ATOM      9  N   UNL     1      -2.811  -1.637  25.151  0.00  0.00    -0.281 N 
ATOM     22  C   UNL     1      -4.011  -1.116  24.640  0.00  0.00    +0.302 C 
ATOM     24  C   UNL     1      -2.308  -2.912  24.634  0.00  0.00    +0.137 C 
ATOM     25  C   UNL     1      -2.050  -1.103  26.290  0.00  0.00    +0.137 C 
ATOM     28  C   UNL     1      -0.805  -2.856  24.414  0.00  0.00    +0.179 C 
ATOM     29  C   UNL     1      -0.552  -1.149  26.010  0.00  0.00    +0.179 C 
ATOM     35  H   UNL     1      -3.921   0.525  25.952  0.00  0.00    +0.150 HD
ENDBRANCH  17   7
ENDBRANCH  12  17
TORSDOF 6
ENDMDL
MODEL 2
REMARK VINA RESULT:       6.6      1.298      2.111
REMARK  Name = 40779501
REMARK  9 active torsions:
REMARK  status: ('A' for Active; 'I' for Inactive)
REMARK    1  A    between atoms: O_3  and  C_30
REMARK    2  A    between atoms: O_3  and  C_33
REMARK    3  A    between atoms: O_4  and  C_32
REMARK    4  A    between atoms: O_4  and  C_34
REMARK    5  A    between atoms: N_6  and  C_21
REMARK    6  A    between atoms: N_7  and  C_17
REMARK    7  A    between atoms: C_11  and  C_18
REMARK    8  A    between atoms: C_12  and  C_17
REMARK    9  A    between atoms: C_20  and  C_23
REMARK                            x       y       z     vdW  Elec       q    Type
REMARK                         _______ _______ _______ _____ _____    ______ ____
ROOT
ATOM      5  N   UNL     1      -4.983   3.762  24.711  0.00  0.00    -0.297 NA
ATOM     10  C   UNL     1      -2.649   4.053  25.829  0.00  0.00    +0.002 C 
ATOM     11  C   UNL     1      -2.493   3.768  24.310  0.00  0.00    +0.055 C 
ATOM     12  C   UNL     1      -4.891   2.908  25.925  0.00  0.00    +0.074 C 
ATOM     13  C   UNL     1      -3.451   2.908  26.483  0.00  0.00    +0.024 C 
ATOM     14  C   UNL     1      -3.500   5.334  25.957  0.00  0.00    +0.019 C 
ATOM     15  C   UNL     1      -3.903   3.409  23.758  0.00  0.00    +0.094 C 
ATOM     16  C   UNL     1      -4.788   5.171  25.132  0.00  0.00    +0.085 C 
ENDROOT
BRANCH  11  18
ATOM      6  N   UNL     1      -1.724   1.604  23.230  0.00  0.00    -0.270 N 
ATOM      8  N   UNL     1      -0.644   0.863  22.928  0.00  0.00    -0.171 NA
ATOM     18  C   UNL     1      -1.430   2.772  23.871  0.00  0.00    +0.044 A 
ATOM     19  C   UNL     1      -0.062   2.796  23.996  0.00  0.00    +0.053 A 
ATOM     20  C   UNL     1       0.368   1.597  23.398  0.00  0.00    +0.093 A 
ATOM     21  C   UNL     1      -3.036   1.119  22.869  0.00  0.00    +0.172 C 
BRANCH  20  23
ATOM     23  C   UNL     1       1.727   1.138  23.270  0.00  0.00    +0.006 A 
ATOM     26  C   UNL     1       2.023  -0.216  23.423  0.00  0.00    +0.059 A 
ATOM     27  C   UNL     1       2.746   2.048  22.992  0.00  0.00    +0.014 A 
ATOM     30  C   UNL     1       3.340  -0.661  23.300  0.00  0.00    +0.162 A 
ATOM     31  C   UNL     1       4.063   1.603  22.868  0.00  0.00    +0.050 A 
ATOM     32  C   UNL     1       4.359   0.249  23.022  0.00  0.00    +0.162 A 
BRANCH  30   3
ATOM      3  O   UNL     1       3.617  -1.985  23.453  0.00  0.00    -0.491 OA
ATOM     33  C   UNL     1       4.738  -2.325  24.266  0.00  0.00    +0.277 C 
ENDBRANCH  30   3
BRANCH  32   4
ATOM      4  O   UNL     1       5.649  -0.172  22.898  0.00  0.00    -0.491 OA
ATOM     34  C   UNL     1       6.612   0.424  23.765  0.00  0.00    +0.277 C 
ENDBRANCH  32   4
ENDBRANCH  20  23
ENDBRANCH  11  18
BRANCH  12  17
ATOM     17  C   UNL     1      -5.408   1.490  25.681  0.00  0.00    +0.124 C 
BRANCH  17   7
ATOM      1  O   UNL     1      -5.243  -0.886  24.179  0.00  0.00    -0.253 OA
ATOM      2  O   UNL     1      -0.778  -2.887  24.908  0.00  0.00    -0.377 OA
ATOM      7  N   UNL     1      -4.329   0.529  25.737  0.00  0.00    -0.298 N 
ATOM      9  N   UNL     1      -3.209  -1.462  25.131  0.00  0.00    -0.281 N 
ATOM     22  C   UNL     1      -4.322  -0.623  24.961  0.00  0.00    +0.302 C 
ATOM     24  C   UNL     1      -3.123  -2.702  24.358  0.00  0.00    +0.137 C 
ATOM     25  C   UNL     1      -2.151  -1.304  26.140  0.00  0.00    +0.137 C 
ATOM     28  C   UNL     1      -1.714  -2.920  23.830  0.00  0.00    +0.179 C 
ATOM     29  C   UNL     1      -0.781  -1.608  25.543  0.00  0.00    +0.179 C 
ATOM     35  H   UNL     1      -3.613   0.709  26.425  0.00  0.00    +0.150 HD
ENDBRANCH  17   7
ENDBRANCH  12  17
TORSDOF 6
ENDMDL
MODEL 3
REMARK VINA RESULT:       8.4      2.374      4.249
REMARK  Name = 40779501
REMARK  9 active torsions:
REMARK  status: ('A' for Active; 'I' for Inactive)
REMARK    1  A    between atoms: O_3  and  C_30
REMARK    2  A    between atoms: O_3  and  C_33
REMARK    3  A    between atoms: O_4  and  C_32
REMARK    4  A    between atoms: O_4  and  C_34
REMARK    5  A    between atoms: N_6  and  C_21
REMARK    6  A    between atoms: N_7  and  C_17
REMARK    7  A    between atoms: C_11  and  C_18
REMARK    8  A    between atoms: C_12  and  C_17
REMARK    9  A    between atoms: C_20  and  C_23
REMARK                            x       y       z     vdW  Elec       q    Type
REMARK                         _______ _______ _______ _____ _____    ______ ____
ROOT
ATOM      5  N   UNL     1      -4.872   2.767  26.107  0.00  0.00    -0.297 NA
ATOM     10  C   UNL     1      -4.729   1.464  23.857  0.00  0.00    +0.002 C 
ATOM     11  C   UNL     1      -3.904   0.741  24.957  0.00  0.00    +0.055 C 
ATOM     12  C   UNL     1      -4.510   3.696  25.004  0.00  0.00    +0.074 C 
ATOM     13  C   UNL     1      -4.218   2.912  23.706  0.00  0.00    +0.024 C 
ATOM     14  C   UNL     1      -6.182   1.546  24.371  0.00  0.00    +0.019 C 
ATOM     15  C   UNL     1      -3.872   1.675  26.201  0.00  0.00    +0.094 C 
ATOM     16  C   UNL     1      -6.187   2.164  25.780  0.00  0.00    +0.085 C 
ENDROOT
BRANCH  11  18
ATOM      6  N   UNL     1      -2.228  -1.113  24.516  0.00  0.00    -0.270 N 
ATOM      8  N   UNL     1      -0.952  -1.367  24.179  0.00  0.00    -0.171 NA
ATOM     18  C   UNL     1      -2.523   0.217  24.592  0.00  0.00    +0.044 A 
ATOM     19  C   UNL     1      -1.358   0.878  24.285  0.00  0.00    +0.053 A 
ATOM     20  C   UNL     1      -0.426  -0.147  24.039  0.00  0.00    +0.093 A 
ATOM     21  C   UNL     1      -3.128  -2.216  24.756  0.00  0.00    +0.172 C 
BRANCH  20  23
ATOM     23  C   UNL     1       0.958   0.016  23.676  0.00  0.00    +0.006 A 
ATOM     26  C   UNL     1       1.830  -1.071  23.744  0.00  0.00    +0.059 A 
ATOM     27  C   UNL     1       1.426   1.261  23.256  0.00  0.00    +0.014 A 
ATOM     30  C   UNL     1       3.171  -0.912  23.393  0.00  0.00    +0.162 A 
ATOM     31  C   UNL     1       2.767   1.420  22.904  0.00  0.00    +0.050 A 
ATOM     32  C   UNL     1       3.639   0.333  22.974  0.00  0.00    +0.162 A 
BRANCH  30   3
ATOM      3  O   UNL     1       4.013  -1.980  23.465  0.00  0.00    -0.491 OA
ATOM     33  C   UNL     1       5.201  -1.819  24.237  0.00  0.00    +0.277 C 
ENDBRANCH  30   3
BRANCH  32   4
ATOM      4  O   UNL     1       4.945   0.501  22.627  0.00  0.00    -0.491 OA
ATOM     34  C   UNL     1       5.857   0.828  23.674  0.00  0.00    +0.277 C 
ENDBRANCH  32   4
ENDBRANCH  20  23
ENDBRANCH  11  18
BRANCH  12  17
ATOM     17  C   UNL     1      -3.355   4.626  25.381  0.00  0.00    +0.124 C 
BRANCH  17   7
ATOM      1  O   UNL     1      -0.650   4.139  24.772  0.00  0.00    -0.253 OA
ATOM      2  O   UNL     1       1.552   2.304  28.805  0.00  0.00    -0.377 OA
ATOM      7  N   UNL     1      -2.406   3.950  26.237  0.00  0.00    -0.298 N 
ATOM      9  N   UNL     1      -0.285   3.071  26.798  0.00  0.00    -0.281 N 
ATOM     22  C   UNL     1      -1.083   3.748  25.862  0.00  0.00    +0.302 C 
ATOM     24  C   UNL     1       1.121   2.809  26.482  0.00  0.00    +0.137 C 
ATOM     25  C   UNL     1      -0.753   2.443  28.043  0.00  0.00    +0.137 C 
ATOM     28  C   UNL     1       2.009   3.069  27.689  0.00  0.00    +0.179 C 
ATOM     29  C   UNL     1       0.231   2.696  29.180  0.00  0.00    +0.179 C 
ATOM     35  H   UNL     1      -2.778   3.570  27.096  0.00  0.00    +0.150 HD
ENDBRANCH  17   7
ENDBRANCH  12  17
TORSDOF 6
ENDMDL
