MODEL 1
REMARK VINA RESULT:       6.3      0.000      0.000
REMARK  Name = 11913200
REMARK  7 active torsions:
REMARK  status: ('A' for Active; 'I' for Inactive)
REMARK    1  A    between atoms: O_7  and  C_35
REMARK    2  A    between atoms: O_7  and  C_36
REMARK    3  A    between atoms: N_8  and  C_14
REMARK    4  A    between atoms: N_9  and  C_15
REMARK    5  A    between atoms: C_18  and  C_20
REMARK    6  A    between atoms: C_21  and  C_28
REMARK    7  A    between atoms: C_29  and  C_32
REMARK                            x       y       z     vdW  Elec       q    Type
REMARK                         _______ _______ _______ _____ _____    ______ ____
ROOT
ATOM      4  O   UNL     1      -2.910  -1.221  26.184  0.00  0.00    -0.370 OA
ATOM      5  O   UNL     1      -4.248  -1.422  23.372  0.00  0.00    -0.370 OA
ATOM     12  C   UNL     1      -2.961  -0.963  23.820  0.00  0.00    +0.171 C 
ATOM     13  C   UNL     1      -3.169  -0.260  25.147  0.00  0.00    +0.171 C 
ATOM     14  C   UNL     1      -2.074  -2.139  24.162  0.00  0.00    +0.130 C 
ATOM     15  C   UNL     1      -4.631   0.120  25.138  0.00  0.00    +0.130 C 
ATOM     16  C   UNL     1      -2.491  -2.457  25.587  0.00  0.00    +0.185 C 
ATOM     17  C   UNL     1      -5.255  -0.975  24.292  0.00  0.00    +0.185 C 
ENDROOT
BRANCH  15   9
ATOM      9  N   UNL     1      -4.805   1.406  24.500  0.00  0.00    -0.306 N 
ATOM     10  N   UNL     1      -2.838   2.266  25.447  0.00  0.00    -0.214 NA
ATOM     11  N   UNL     1      -4.203   3.618  23.992  0.00  0.00    -0.223 NA
ATOM     19  C   UNL     1      -3.922   2.461  24.650  0.00  0.00    +0.216 A 
ATOM     21  C   UNL     1      -1.998   3.316  25.573  0.00  0.00    +0.076 A 
ATOM     24  C   UNL     1      -3.322   4.625  24.162  0.00  0.00    +0.116 A 
ATOM     25  C   UNL     1      -2.192   4.530  24.948  0.00  0.00    +0.048 A 
ATOM     38  H   UNL     1      -5.580   1.546  23.861  0.00  0.00    +0.149 HD
BRANCH  21  28
ATOM     28  C   UNL     1      -0.854   3.087  26.422  0.00  0.00    +0.001 A 
ATOM     30  C   UNL     1      -1.023   2.940  27.800  0.00  0.00    +0.013 A 
ATOM     31  C   UNL     1       0.426   3.011  25.867  0.00  0.00    +0.013 A 
ATOM     33  C   UNL     1       0.084   2.720  28.621  0.00  0.00    +0.046 A 
ATOM     34  C   UNL     1       1.532   2.790  26.689  0.00  0.00    +0.046 A 
ATOM     35  C   UNL     1       1.361   2.645  28.065  0.00  0.00    +0.120 A 
BRANCH  35   7
ATOM      7  O   UNL     1       2.441   2.431  28.866  0.00  0.00    -0.495 OA
ATOM     36  C   UNL     1       2.185   1.958  30.187  0.00  0.00    +0.277 C 
ENDBRANCH  35   7
ENDBRANCH  21  28
ENDBRANCH  15   9
BRANCH  14   8
ATOM      6  O   UNL     1      -0.976   0.247  23.002  0.00  0.00    -0.270 OA
ATOM      8  N   UNL     1      -0.679  -1.778  24.094  0.00  0.00    -0.304 N 
ATOM     18  C   UNL     1      -0.242  -0.597  23.510  0.00  0.00    +0.244 C 
ATOM     37  H   UNL     1      -0.008  -2.480  24.389  0.00  0.00    +0.149 HD
BRANCH  18  20
ATOM     20  C   UNL     1       1.228  -0.384  23.496  0.00  0.00    +0.037 A 
ATOM     22  C   UNL     1       2.059  -1.441  23.805  0.00  0.00    +0.013 A 
ATOM     23  C   UNL     1       1.716   0.866  23.173  0.00  0.00    +0.013 A 
ATOM     26  C   UNL     1       3.439  -1.240  23.789  0.00  0.00    +0.013 A 
ATOM     27  C   UNL     1       3.095   1.067  23.157  0.00  0.00    +0.013 A 
ATOM     29  C   UNL     1       3.957   0.014  23.465  0.00  0.00    +0.055 A 
BRANCH  29  32
ATOM      1  F   UNL     1       5.800   1.521  23.697  0.00  0.00    -0.166 F 
ATOM      2  F   UNL     1       6.019  -0.086  22.258  0.00  0.00    -0.166 F 
ATOM      3  F   UNL     1       6.083  -0.521  24.387  0.00  0.00    -0.166 F 
ATOM     32  C   UNL     1       5.433   0.229  23.450  0.00  0.00    +0.417 C 
ENDBRANCH  29  32
ENDBRANCH  18  20
ENDBRANCH  14   8
TORSDOF 6
ENDMDL
