MODEL 1
REMARK VINA RESULT:      17.1      0.000      0.000
REMARK  Name = 44716456
REMARK  9 active torsions:
REMARK  status: ('A' for Active; 'I' for Inactive)
REMARK    1  A    between atoms: O_4  and  C_23
REMARK    2  A    between atoms: O_4  and  C_35
REMARK    3  A    between atoms: O_6  and  C_34
REMARK    4  A    between atoms: O_6  and  C_40
REMARK    5  A    between atoms: N_9  and  C_14
REMARK    6  A    between atoms: N_9  and  C_24
REMARK    7  A    between atoms: C_12  and  C_20
REMARK    8  A    between atoms: C_16  and  C_23
REMARK    9  A    between atoms: C_24  and  C_32
REMARK                            x       y       z     vdW  Elec       q    Type
REMARK                         _______ _______ _______ _____ _____    ______ ____
ROOT
ATOM      7  N   UNL     1      -1.208   1.468  25.577  0.00  0.00    -0.274 NA
ATOM      8  N   UNL     1      -3.850  -0.115  23.427  0.00  0.00    -0.356 N 
ATOM     11  C   UNL     1      -2.139   1.519  24.408  0.00  0.00    +0.106 C 
ATOM     12  C   UNL     1      -0.537   2.773  25.807  0.00  0.00    +0.090 C 
ATOM     13  C   UNL     1      -3.207   2.606  24.610  0.00  0.00    +0.044 C 
ATOM     14  C   UNL     1      -2.549   3.972  24.803  0.00  0.00    +0.058 C 
ATOM     15  C   UNL     1      -1.573   3.909  25.977  0.00  0.00    +0.042 C 
ATOM     16  C   UNL     1      -0.294   0.294  25.539  0.00  0.00    +0.172 C 
ATOM     17  C   UNL     1      -2.758   0.169  24.198  0.00  0.00    +0.038 A 
ATOM     18  C   UNL     1      -1.058  -1.055  25.566  0.00  0.00    +0.068 C 
ATOM     19  C   UNL     1      -2.270  -1.017  24.703  0.00  0.00    -0.016 A 
ATOM     21  C   UNL     1      -3.118  -2.064  24.249  0.00  0.00    +0.003 A 
ATOM     22  C   UNL     1      -4.102  -1.470  23.452  0.00  0.00    +0.047 A 
ATOM     27  C   UNL     1      -3.148  -3.461  24.433  0.00  0.00    +0.010 A 
ATOM     28  C   UNL     1      -5.116  -2.208  22.831  0.00  0.00    +0.026 A 
ATOM     29  C   UNL     1      -4.157  -4.211  23.819  0.00  0.00    +0.001 A 
ATOM     33  C   UNL     1      -5.125  -3.592  23.031  0.00  0.00    +0.002 A 
ATOM     41  H   UNL     1      -4.398   0.562  22.914  0.00  0.00    +0.166 HD
ENDROOT
BRANCH  12  20
ATOM     20  C   UNL     1       0.378   2.795  27.030  0.00  0.00    -0.030 A 
ATOM     25  C   UNL     1      -0.122   2.442  28.283  0.00  0.00    +0.009 A 
ATOM     26  C   UNL     1       1.715   3.168  26.892  0.00  0.00    +0.009 A 
ATOM     30  C   UNL     1       0.714   2.462  29.399  0.00  0.00    +0.046 A 
ATOM     31  C   UNL     1       2.552   3.189  28.009  0.00  0.00    +0.046 A 
ATOM     34  C   UNL     1       2.051   2.835  29.261  0.00  0.00    +0.130 A 
BRANCH  34   6
ATOM      6  O   UNL     1       2.867   2.855  30.350  0.00  0.00    -0.406 OA
BRANCH   6  40
ATOM      1  F   UNL     1       2.980   0.611  30.571  0.00  0.00    -0.133 F 
ATOM      2  F   UNL     1       3.785   1.844  32.185  0.00  0.00    -0.133 F 
ATOM      3  F   UNL     1       1.603   1.703  31.870  0.00  0.00    -0.133 F 
ATOM     40  C   UNL     1       2.806   1.761  31.259  0.00  0.00    +0.575 C 
ENDBRANCH   6  40
ENDBRANCH  34   6
ENDBRANCH  12  20
BRANCH  16  23
ATOM      5  O   UNL     1       1.373   1.306  24.120  0.00  0.00    -0.249 OA
ATOM     23  C   UNL     1       0.615   0.373  24.344  0.00  0.00    +0.325 C 
BRANCH  23   4
ATOM      4  O   UNL     1       0.454  -0.742  23.576  0.00  0.00    -0.467 OA
ATOM     35  C   UNL     1       0.916  -0.631  22.226  0.00  0.00    +0.280 C 
ENDBRANCH  23   4
ENDBRANCH  16  23
BRANCH  14   9
ATOM      9  N   UNL     1      -3.569   4.994  25.027  0.00  0.00    -0.309 NA
ATOM     42  H   UNL     1      -3.707   5.119  26.030  0.00  0.00    +0.123 HD
BRANCH   9  24
ATOM     24  C   UNL     1      -4.834   4.598  24.427  0.00  0.00    +0.118 C 
BRANCH  24  32
ATOM     10  N   UNL     1      -6.058   2.341  27.210  0.00  0.00    -0.263 NA
ATOM     32  C   UNL     1      -5.443   3.415  25.133  0.00  0.00    -0.015 A 
ATOM     36  C   UNL     1      -5.937   2.329  24.417  0.00  0.00    +0.008 A 
ATOM     37  C   UNL     1      -5.527   3.372  26.515  0.00  0.00    +0.115 A 
ATOM     38  C   UNL     1      -6.491   1.251  25.096  0.00  0.00    +0.020 A 
ATOM     39  C   UNL     1      -6.528   1.304  26.481  0.00  0.00    +0.111 A 
ENDBRANCH  24  32
ENDBRANCH   9  24
ENDBRANCH  14   9
TORSDOF 8
ENDMDL
MODEL 2
REMARK VINA RESULT:      17.4      3.308      6.261
REMARK  Name = 44716456
REMARK  9 active torsions:
REMARK  status: ('A' for Active; 'I' for Inactive)
REMARK    1  A    between atoms: O_4  and  C_23
REMARK    2  A    between atoms: O_4  and  C_35
REMARK    3  A    between atoms: O_6  and  C_34
REMARK    4  A    between atoms: O_6  and  C_40
REMARK    5  A    between atoms: N_9  and  C_14
REMARK    6  A    between atoms: N_9  and  C_24
REMARK    7  A    between atoms: C_12  and  C_20
REMARK    8  A    between atoms: C_16  and  C_23
REMARK    9  A    between atoms: C_24  and  C_32
REMARK                            x       y       z     vdW  Elec       q    Type
REMARK                         _______ _______ _______ _____ _____    ______ ____
ROOT
ATOM      7  N   UNL     1      -0.121   0.804  24.267  0.00  0.00    -0.274 NA
ATOM      8  N   UNL     1      -3.701   1.856  24.697  0.00  0.00    -0.356 N 
ATOM     11  C   UNL     1      -1.511   0.529  24.744  0.00  0.00    +0.106 C 
ATOM     12  C   UNL     1       0.754  -0.389  24.393  0.00  0.00    +0.090 C 
ATOM     13  C   UNL     1      -2.135  -0.638  23.963  0.00  0.00    +0.044 C 
ATOM     14  C   UNL     1      -1.281  -1.897  24.112  0.00  0.00    +0.058 C 
ATOM     15  C   UNL     1       0.147  -1.606  23.654  0.00  0.00    +0.042 C 
ATOM     16  C   UNL     1       0.449   2.059  24.830  0.00  0.00    +0.172 C 
ATOM     17  C   UNL     1      -2.338   1.776  24.630  0.00  0.00    +0.038 A 
ATOM     18  C   UNL     1      -0.374   3.313  24.439  0.00  0.00    +0.068 C 
ATOM     19  C   UNL     1      -1.838   3.054  24.508  0.00  0.00    -0.016 A 
ATOM     21  C   UNL     1      -2.941   3.949  24.465  0.00  0.00    +0.003 A 
ATOM     22  C   UNL     1      -4.098   3.172  24.584  0.00  0.00    +0.047 A 
ATOM     27  C   UNL     1      -3.074   5.347  24.339  0.00  0.00    +0.010 A 
ATOM     28  C   UNL     1      -5.382   3.727  24.582  0.00  0.00    +0.026 A 
ATOM     29  C   UNL     1      -4.353   5.914  24.335  0.00  0.00    +0.001 A 
ATOM     33  C   UNL     1      -5.488   5.115  24.454  0.00  0.00    +0.002 A 
ATOM     41  H   UNL     1      -4.330   1.074  24.810  0.00  0.00    +0.166 HD
ENDROOT
BRANCH  12  20
ATOM     20  C   UNL     1       2.170  -0.183  23.860  0.00  0.00    -0.030 A 
ATOM     25  C   UNL     1       2.509   1.011  23.222  0.00  0.00    +0.009 A 
ATOM     26  C   UNL     1       3.124  -1.188  24.011  0.00  0.00    +0.009 A 
ATOM     30  C   UNL     1       3.801   1.199  22.735  0.00  0.00    +0.046 A 
ATOM     31  C   UNL     1       4.418  -1.000  23.523  0.00  0.00    +0.046 A 
ATOM     34  C   UNL     1       4.757   0.193  22.886  0.00  0.00    +0.130 A 
BRANCH  34   6
ATOM      6  O   UNL     1       6.019   0.377  22.411  0.00  0.00    -0.406 OA
BRANCH   6  40
ATOM      1  F   UNL     1       6.697  -0.773  24.231  0.00  0.00    -0.133 F 
ATOM      2  F   UNL     1       7.350  -1.477  22.268  0.00  0.00    -0.133 F 
ATOM      3  F   UNL     1       8.191   0.377  23.126  0.00  0.00    -0.133 F 
ATOM     40  C   UNL     1       7.077  -0.373  22.996  0.00  0.00    +0.575 C 
ENDBRANCH   6  40
ENDBRANCH  34   6
ENDBRANCH  12  20
BRANCH  16  23
ATOM      5  O   UNL     1      -0.055   1.169  27.015  0.00  0.00    -0.249 OA
ATOM     23  C   UNL     1       0.584   1.950  26.324  0.00  0.00    +0.325 C 
BRANCH  23   4
ATOM      4  O   UNL     1       1.514   2.845  26.762  0.00  0.00    -0.467 OA
ATOM     35  C   UNL     1       1.753   2.842  28.173  0.00  0.00    +0.280 C 
ENDBRANCH  23   4
ENDBRANCH  16  23
BRANCH  14   9
ATOM      9  N   UNL     1      -1.863  -2.993  23.339  0.00  0.00    -0.309 NA
ATOM     42  H   UNL     1      -1.994  -2.691  22.373  0.00  0.00    +0.123 HD
BRANCH   9  24
ATOM     24  C   UNL     1      -3.154  -3.380  23.887  0.00  0.00    +0.118 C 
BRANCH  24  32
ATOM     10  N   UNL     1      -5.368  -0.379  24.540  0.00  0.00    -0.263 NA
ATOM     32  C   UNL     1      -3.823  -2.238  24.605  0.00  0.00    -0.015 A 
ATOM     36  C   UNL     1      -3.545  -1.968  25.941  0.00  0.00    +0.008 A 
ATOM     37  C   UNL     1      -4.735  -1.420  23.955  0.00  0.00    +0.115 A 
ATOM     38  C   UNL     1      -4.177  -0.906  26.576  0.00  0.00    +0.020 A 
ATOM     39  C   UNL     1      -5.072  -0.148  25.839  0.00  0.00    +0.111 A 
ENDBRANCH  24  32
ENDBRANCH   9  24
ENDBRANCH  14   9
TORSDOF 8
ENDMDL
