MODEL 1
REMARK VINA RESULT:       1.9      0.000      0.000
REMARK  Name = 40779521
REMARK  10 active torsions:
REMARK  status: ('A' for Active; 'I' for Inactive)
REMARK    1  A    between atoms: O_2  and  C_27
REMARK    2  A    between atoms: O_2  and  C_30
REMARK    3  A    between atoms: O_3  and  C_29
REMARK    4  A    between atoms: O_3  and  C_31
REMARK    5  A    between atoms: N_5  and  C_15
REMARK    6  A    between atoms: N_6  and  C_23
REMARK    7  A    between atoms: C_9  and  C_16
REMARK    8  A    between atoms: C_10  and  C_15
REMARK    9  A    between atoms: C_17  and  C_21
REMARK   10  A    between atoms: C_22  and  C_24
REMARK                            x       y       z     vdW  Elec       q    Type
REMARK                         _______ _______ _______ _____ _____    ______ ____
ROOT
ATOM      4  N   UNL     1      -5.526   2.069  26.294  0.00  0.00    -0.297 NA
ATOM      8  C   UNL     1      -4.884   1.712  23.796  0.00  0.00    +0.002 C 
ATOM      9  C   UNL     1      -4.294   0.576  24.675  0.00  0.00    +0.055 C 
ATOM     10  C   UNL     1      -4.960   3.322  25.732  0.00  0.00    +0.074 C 
ATOM     11  C   UNL     1      -4.384   3.075  24.320  0.00  0.00    +0.024 C 
ATOM     12  C   UNL     1      -6.414   1.682  23.996  0.00  0.00    +0.019 C 
ATOM     13  C   UNL     1      -4.544   0.963  26.162  0.00  0.00    +0.094 C 
ATOM     14  C   UNL     1      -6.728   1.718  25.503  0.00  0.00    +0.085 C 
ENDROOT
BRANCH   9  16
ATOM      6  N   UNL     1      -2.437  -1.148  24.533  0.00  0.00    -0.270 N 
ATOM      7  N   UNL     1      -1.130  -1.318  24.272  0.00  0.00    -0.171 NA
ATOM     16  C   UNL     1      -2.855   0.145  24.425  0.00  0.00    +0.044 A 
ATOM     20  C   UNL     1      -1.745   0.872  24.071  0.00  0.00    +0.053 A 
ATOM     22  C   UNL     1      -0.712  -0.082  23.990  0.00  0.00    +0.093 A 
ATOM     23  C   UNL     1      -3.241  -2.294  24.888  0.00  0.00    +0.172 C 
BRANCH  22  24
ATOM     24  C   UNL     1       0.665   0.166  23.651  0.00  0.00    +0.006 A 
ATOM     25  C   UNL     1       1.539  -0.904  23.460  0.00  0.00    +0.059 A 
ATOM     26  C   UNL     1       1.125   1.476  23.514  0.00  0.00    +0.014 A 
ATOM     27  C   UNL     1       2.873  -0.664  23.132  0.00  0.00    +0.162 A 
ATOM     28  C   UNL     1       2.459   1.715  23.187  0.00  0.00    +0.050 A 
ATOM     29  C   UNL     1       3.333   0.646  22.995  0.00  0.00    +0.162 A 
BRANCH  27   2
ATOM      2  O   UNL     1       3.718  -1.717  22.947  0.00  0.00    -0.491 OA
ATOM     30  C   UNL     1       4.625  -2.013  24.007  0.00  0.00    +0.277 C 
ENDBRANCH  27   2
BRANCH  29   3
ATOM      3  O   UNL     1       4.635   0.893  22.674  0.00  0.00    -0.491 OA
ATOM     31  C   UNL     1       5.586   0.834  23.735  0.00  0.00    +0.277 C 
ENDBRANCH  29   3
ENDBRANCH  22  24
ENDBRANCH   9  16
BRANCH  10  15
ATOM     15  C   UNL     1      -3.930   3.966  26.663  0.00  0.00    +0.123 C 
BRANCH  15   5
ATOM      1  O   UNL     1      -1.322   2.679  26.669  0.00  0.00    -0.276 OA
ATOM      5  N   UNL     1      -2.761   4.359  25.936  0.00  0.00    -0.314 N 
ATOM     21  C   UNL     1      -1.551   3.680  26.000  0.00  0.00    +0.216 C 
ATOM     32  H   UNL     1      -2.817   5.203  25.373  0.00  0.00    +0.149 HD
BRANCH  21  17
ATOM     17  C   UNL     1      -0.466   4.266  25.159  0.00  0.00    +0.075 C 
ATOM     18  C   UNL     1      -0.689   4.418  23.682  0.00  0.00    +0.013 C 
ATOM     19  C   UNL     1      -0.659   5.631  24.566  0.00  0.00    +0.013 C 
ENDBRANCH  21  17
ENDBRANCH  15   5
ENDBRANCH  10  15
TORSDOF 7
ENDMDL
MODEL 2
REMARK VINA RESULT:       2.2      1.785      4.180
REMARK  Name = 40779521
REMARK  10 active torsions:
REMARK  status: ('A' for Active; 'I' for Inactive)
REMARK    1  A    between atoms: O_2  and  C_27
REMARK    2  A    between atoms: O_2  and  C_30
REMARK    3  A    between atoms: O_3  and  C_29
REMARK    4  A    between atoms: O_3  and  C_31
REMARK    5  A    between atoms: N_5  and  C_15
REMARK    6  A    between atoms: N_6  and  C_23
REMARK    7  A    between atoms: C_9  and  C_16
REMARK    8  A    between atoms: C_10  and  C_15
REMARK    9  A    between atoms: C_17  and  C_21
REMARK   10  A    between atoms: C_22  and  C_24
REMARK                            x       y       z     vdW  Elec       q    Type
REMARK                         _______ _______ _______ _____ _____    ______ ____
ROOT
ATOM      4  N   UNL     1      -5.681   2.723  24.201  0.00  0.00    -0.297 NA
ATOM      8  C   UNL     1      -4.005   3.279  26.114  0.00  0.00    +0.002 C 
ATOM      9  C   UNL     1      -3.379   3.607  24.731  0.00  0.00    +0.055 C 
ATOM     10  C   UNL     1      -5.564   1.566  25.126  0.00  0.00    +0.074 C 
ATOM     11  C   UNL     1      -4.426   1.796  26.145  0.00  0.00    +0.024 C 
ATOM     12  C   UNL     1      -5.294   4.121  26.230  0.00  0.00    +0.019 C 
ATOM     13  C   UNL     1      -4.349   3.064  23.642  0.00  0.00    +0.094 C 
ATOM     14  C   UNL     1      -6.166   3.883  24.983  0.00  0.00    +0.085 C 
ENDROOT
BRANCH   9  16
ATOM      6  N   UNL     1      -0.888   4.061  24.550  0.00  0.00    -0.270 N 
ATOM      7  N   UNL     1       0.304   3.496  24.292  0.00  0.00    -0.171 NA
ATOM     16  C   UNL     1      -1.936   3.191  24.478  0.00  0.00    +0.044 A 
ATOM     20  C   UNL     1      -1.393   1.974  24.149  0.00  0.00    +0.053 A 
ATOM     22  C   UNL     1      -0.010   2.222  24.048  0.00  0.00    +0.093 A 
ATOM     23  C   UNL     1      -0.949   5.470  24.863  0.00  0.00    +0.172 C 
BRANCH  22  24
ATOM     24  C   UNL     1       1.015   1.265  23.721  0.00  0.00    +0.006 A 
ATOM     25  C   UNL     1       2.314   1.699  23.457  0.00  0.00    +0.059 A 
ATOM     26  C   UNL     1       0.709  -0.095  23.668  0.00  0.00    +0.014 A 
ATOM     27  C   UNL     1       3.307   0.773  23.140  0.00  0.00    +0.162 A 
ATOM     28  C   UNL     1       1.703  -1.021  23.351  0.00  0.00    +0.050 A 
ATOM     29  C   UNL     1       3.002  -0.587  23.087  0.00  0.00    +0.162 A 
BRANCH  27   2
ATOM      2  O   UNL     1       4.573   1.208  22.884  0.00  0.00    -0.491 OA
ATOM     30  C   UNL     1       5.581   0.860  23.831  0.00  0.00    +0.277 C 
ENDBRANCH  27   2
BRANCH  29   3
ATOM      3  O   UNL     1       3.964  -1.502  22.779  0.00  0.00    -0.491 OA
ATOM     31  C   UNL     1       4.670  -2.091  23.869  0.00  0.00    +0.277 C 
ENDBRANCH  29   3
ENDBRANCH  22  24
ENDBRANCH   9  16
BRANCH  10  15
ATOM     15  C   UNL     1      -5.404   0.238  24.382  0.00  0.00    +0.123 C 
BRANCH  15   5
ATOM      1  O   UNL     1      -4.611  -2.471  23.681  0.00  0.00    -0.276 OA
ATOM      5  N   UNL     1      -4.310  -0.516  24.914  0.00  0.00    -0.314 N 
ATOM     21  C   UNL     1      -4.003  -1.812  24.517  0.00  0.00    +0.216 C 
ATOM     32  H   UNL     1      -3.753  -0.086  25.647  0.00  0.00    +0.149 HD
BRANCH  21  17
ATOM     17  C   UNL     1      -2.819  -2.406  25.203  0.00  0.00    +0.075 C 
ATOM     18  C   UNL     1      -1.528  -2.538  24.449  0.00  0.00    +0.013 C 
ATOM     19  C   UNL     1      -1.655  -1.523  25.547  0.00  0.00    +0.013 C 
ENDBRANCH  21  17
ENDBRANCH  15   5
ENDBRANCH  10  15
TORSDOF 7
ENDMDL
MODEL 3
REMARK VINA RESULT:       3.0      1.211      1.812
REMARK  Name = 40779521
REMARK  10 active torsions:
REMARK  status: ('A' for Active; 'I' for Inactive)
REMARK    1  A    between atoms: O_2  and  C_27
REMARK    2  A    between atoms: O_2  and  C_30
REMARK    3  A    between atoms: O_3  and  C_29
REMARK    4  A    between atoms: O_3  and  C_31
REMARK    5  A    between atoms: N_5  and  C_15
REMARK    6  A    between atoms: N_6  and  C_23
REMARK    7  A    between atoms: C_9  and  C_16
REMARK    8  A    between atoms: C_10  and  C_15
REMARK    9  A    between atoms: C_17  and  C_21
REMARK   10  A    between atoms: C_22  and  C_24
REMARK                            x       y       z     vdW  Elec       q    Type
REMARK                         _______ _______ _______ _____ _____    ______ ____
ROOT
ATOM      4  N   UNL     1      -5.300   2.345  26.431  0.00  0.00    -0.297 NA
ATOM      8  C   UNL     1      -4.951   1.717  23.928  0.00  0.00    +0.002 C 
ATOM      9  C   UNL     1      -4.546   0.532  24.847  0.00  0.00    +0.055 C 
ATOM     10  C   UNL     1      -4.530   3.413  25.743  0.00  0.00    +0.074 C 
ATOM     11  C   UNL     1      -4.134   2.967  24.318  0.00  0.00    +0.024 C 
ATOM     12  C   UNL     1      -6.432   2.030  24.231  0.00  0.00    +0.019 C 
ATOM     13  C   UNL     1      -4.589   1.048  26.315  0.00  0.00    +0.094 C 
ATOM     14  C   UNL     1      -6.609   2.218  25.748  0.00  0.00    +0.085 C 
ENDROOT
BRANCH   9  16
ATOM      6  N   UNL     1      -3.220  -1.539  24.222  0.00  0.00    -0.270 N 
ATOM      7  N   UNL     1      -1.983  -2.006  23.980  0.00  0.00    -0.171 NA
ATOM     16  C   UNL     1      -3.255  -0.212  24.534  0.00  0.00    +0.044 A 
ATOM     20  C   UNL     1      -1.952   0.219  24.495  0.00  0.00    +0.053 A 
ATOM     22  C   UNL     1      -1.213  -0.928  24.148  0.00  0.00    +0.093 A 
ATOM     23  C   UNL     1      -4.345  -2.442  24.136  0.00  0.00    +0.172 C 
BRANCH  22  24
ATOM     24  C   UNL     1       0.214  -1.014  23.975  0.00  0.00    +0.006 A 
ATOM     25  C   UNL     1       0.852  -0.204  23.036  0.00  0.00    +0.059 A 
ATOM     26  C   UNL     1       0.957  -1.908  24.746  0.00  0.00    +0.014 A 
ATOM     27  C   UNL     1       2.234  -0.287  22.868  0.00  0.00    +0.162 A 
ATOM     28  C   UNL     1       2.340  -1.991  24.577  0.00  0.00    +0.050 A 
ATOM     29  C   UNL     1       2.978  -1.181  23.639  0.00  0.00    +0.162 A 
BRANCH  27   2
ATOM      2  O   UNL     1       2.847   0.510  21.948  0.00  0.00    -0.491 OA
ATOM     30  C   UNL     1       3.913   1.335  22.414  0.00  0.00    +0.277 C 
ENDBRANCH  27   2
BRANCH  29   3
ATOM      3  O   UNL     1       4.329  -1.270  23.484  0.00  0.00    -0.491 OA
ATOM     31  C   UNL     1       5.136  -0.555  24.417  0.00  0.00    +0.277 C 
ENDBRANCH  29   3
ENDBRANCH  22  24
ENDBRANCH   9  16
BRANCH  10  15
ATOM     15  C   UNL     1      -3.316   3.871  26.554  0.00  0.00    +0.123 C 
BRANCH  15   5
ATOM      1  O   UNL     1      -1.571   5.730  25.156  0.00  0.00    -0.276 OA
ATOM      5  N   UNL     1      -2.098   3.573  25.863  0.00  0.00    -0.314 N 
ATOM     21  C   UNL     1      -1.324   4.532  25.220  0.00  0.00    +0.216 C 
ATOM     32  H   UNL     1      -1.809   2.601  25.815  0.00  0.00    +0.149 HD
BRANCH  21  17
ATOM     17  C   UNL     1      -0.094   3.997  24.565  0.00  0.00    +0.075 C 
ATOM     18  C   UNL     1       0.398   2.630  24.942  0.00  0.00    +0.013 C 
ATOM     19  C   UNL     1      -0.220   2.860  23.593  0.00  0.00    +0.013 C 
ENDBRANCH  21  17
ENDBRANCH  15   5
ENDBRANCH  10  15
TORSDOF 7
ENDMDL
MODEL 4
REMARK VINA RESULT:       5.1      1.944      3.676
REMARK  Name = 40779521
REMARK  10 active torsions:
REMARK  status: ('A' for Active; 'I' for Inactive)
REMARK    1  A    between atoms: O_2  and  C_27
REMARK    2  A    between atoms: O_2  and  C_30
REMARK    3  A    between atoms: O_3  and  C_29
REMARK    4  A    between atoms: O_3  and  C_31
REMARK    5  A    between atoms: N_5  and  C_15
REMARK    6  A    between atoms: N_6  and  C_23
REMARK    7  A    between atoms: C_9  and  C_16
REMARK    8  A    between atoms: C_10  and  C_15
REMARK    9  A    between atoms: C_17  and  C_21
REMARK   10  A    between atoms: C_22  and  C_24
REMARK                            x       y       z     vdW  Elec       q    Type
REMARK                         _______ _______ _______ _____ _____    ______ ____
ROOT
ATOM      4  N   UNL     1      -4.878   3.301  24.597  0.00  0.00    -0.297 NA
ATOM      8  C   UNL     1      -2.632   3.443  25.906  0.00  0.00    +0.002 C 
ATOM      9  C   UNL     1      -2.366   3.390  24.377  0.00  0.00    +0.055 C 
ATOM     10  C   UNL     1      -4.852   2.278  25.675  0.00  0.00    +0.074 C 
ATOM     11  C   UNL     1      -3.454   2.207  26.326  0.00  0.00    +0.024 C 
ATOM     12  C   UNL     1      -3.515   4.684  26.162  0.00  0.00    +0.019 C 
ATOM     13  C   UNL     1      -3.728   3.103  23.680  0.00  0.00    +0.094 C 
ATOM     14  C   UNL     1      -4.740   4.633  25.232  0.00  0.00    +0.085 C 
ENDROOT
BRANCH   9  16
ATOM      6  N   UNL     1      -1.493   1.360  23.127  0.00  0.00    -0.270 N 
ATOM      7  N   UNL     1      -0.379   0.694  22.781  0.00  0.00    -0.171 NA
ATOM     16  C   UNL     1      -1.256   2.479  23.871  0.00  0.00    +0.044 A 
ATOM     20  C   UNL     1       0.107   2.549  24.021  0.00  0.00    +0.053 A 
ATOM     22  C   UNL     1       0.595   1.425  23.329  0.00  0.00    +0.093 A 
ATOM     23  C   UNL     1      -2.779   0.855  22.705  0.00  0.00    +0.172 C 
BRANCH  22  24
ATOM     24  C   UNL     1       1.973   1.034  23.183  0.00  0.00    +0.006 A 
ATOM     25  C   UNL     1       2.324  -0.315  23.232  0.00  0.00    +0.059 A 
ATOM     26  C   UNL     1       2.957   2.005  22.993  0.00  0.00    +0.014 A 
ATOM     27  C   UNL     1       3.659  -0.694  23.091  0.00  0.00    +0.162 A 
ATOM     28  C   UNL     1       4.292   1.625  22.853  0.00  0.00    +0.050 A 
ATOM     29  C   UNL     1       4.643   0.277  22.901  0.00  0.00    +0.162 A 
BRANCH  27   2
ATOM      2  O   UNL     1       3.990  -2.015  23.139  0.00  0.00    -0.491 OA
ATOM     30  C   UNL     1       4.554  -2.497  24.358  0.00  0.00    +0.277 C 
ENDBRANCH  27   2
BRANCH  29   3
ATOM      3  O   UNL     1       5.951  -0.081  22.761  0.00  0.00    -0.491 OA
ATOM     31  C   UNL     1       6.744  -0.111  23.946  0.00  0.00    +0.277 C 
ENDBRANCH  29   3
ENDBRANCH  22  24
ENDBRANCH   9  16
BRANCH  10  15
ATOM     15  C   UNL     1      -5.324   0.906  25.187  0.00  0.00    +0.123 C 
BRANCH  15   5
ATOM      1  O   UNL     1      -4.744  -1.504  23.666  0.00  0.00    -0.276 OA
ATOM      5  N   UNL     1      -4.355  -0.104  25.488  0.00  0.00    -0.314 N 
ATOM     21  C   UNL     1      -4.145  -1.228  24.699  0.00  0.00    +0.216 C 
ATOM     32  H   UNL     1      -3.820  -0.004  26.346  0.00  0.00    +0.149 HD
BRANCH  21  17
ATOM     17  C   UNL     1      -3.083  -2.148  25.202  0.00  0.00    +0.075 C 
ATOM     18  C   UNL     1      -2.272  -2.937  24.215  0.00  0.00    +0.013 C 
ATOM     19  C   UNL     1      -1.642  -1.799  24.964  0.00  0.00    +0.013 C 
ENDBRANCH  21  17
ENDBRANCH  15   5
ENDBRANCH  10  15
TORSDOF 7
ENDMDL
MODEL 5
REMARK VINA RESULT:       5.7      1.482      2.246
REMARK  Name = 40779521
REMARK  10 active torsions:
REMARK  status: ('A' for Active; 'I' for Inactive)
REMARK    1  A    between atoms: O_2  and  C_27
REMARK    2  A    between atoms: O_2  and  C_30
REMARK    3  A    between atoms: O_3  and  C_29
REMARK    4  A    between atoms: O_3  and  C_31
REMARK    5  A    between atoms: N_5  and  C_15
REMARK    6  A    between atoms: N_6  and  C_23
REMARK    7  A    between atoms: C_9  and  C_16
REMARK    8  A    between atoms: C_10  and  C_15
REMARK    9  A    between atoms: C_17  and  C_21
REMARK   10  A    between atoms: C_22  and  C_24
REMARK                            x       y       z     vdW  Elec       q    Type
REMARK                         _______ _______ _______ _____ _____    ______ ____
ROOT
ATOM      4  N   UNL     1      -5.252   2.344  26.481  0.00  0.00    -0.297 NA
ATOM      8  C   UNL     1      -5.103   2.255  23.882  0.00  0.00    +0.002 C 
ATOM      9  C   UNL     1      -4.217   1.147  24.515  0.00  0.00    +0.055 C 
ATOM     10  C   UNL     1      -4.964   3.699  25.942  0.00  0.00    +0.074 C 
ATOM     11  C   UNL     1      -4.668   3.631  24.428  0.00  0.00    +0.024 C 
ATOM     12  C   UNL     1      -6.546   2.007  24.375  0.00  0.00    +0.019 C 
ATOM     13  C   UNL     1      -4.198   1.391  26.052  0.00  0.00    +0.094 C 
ATOM     14  C   UNL     1      -6.543   1.893  25.910  0.00  0.00    +0.085 C 
ENDROOT
BRANCH   9  16
ATOM      6  N   UNL     1      -2.405   1.478  22.768  0.00  0.00    -0.270 N 
ATOM      7  N   UNL     1      -1.139   1.166  22.444  0.00  0.00    -0.171 NA
ATOM     16  C   UNL     1      -2.821   0.932  23.947  0.00  0.00    +0.044 A 
ATOM     20  C   UNL     1      -1.753   0.213  24.426  0.00  0.00    +0.053 A 
ATOM     22  C   UNL     1      -0.746   0.394  23.459  0.00  0.00    +0.093 A 
ATOM     23  C   UNL     1      -3.176   2.319  21.882  0.00  0.00    +0.172 C 
BRANCH  22  24
ATOM     24  C   UNL     1       0.584  -0.158  23.487  0.00  0.00    +0.006 A 
ATOM     25  C   UNL     1       1.591   0.412  22.707  0.00  0.00    +0.059 A 
ATOM     26  C   UNL     1       0.865  -1.261  24.292  0.00  0.00    +0.014 A 
ATOM     27  C   UNL     1       2.879  -0.123  22.733  0.00  0.00    +0.162 A 
ATOM     28  C   UNL     1       2.153  -1.795  24.318  0.00  0.00    +0.050 A 
ATOM     29  C   UNL     1       3.160  -1.226  23.539  0.00  0.00    +0.162 A 
BRANCH  27   2
ATOM      2  O   UNL     1       3.855   0.442  21.968  0.00  0.00    -0.491 OA
ATOM     30  C   UNL     1       4.425   1.661  22.441  0.00  0.00    +0.277 C 
ENDBRANCH  27   2
BRANCH  29   3
ATOM      3  O   UNL     1       4.415  -1.756  23.573  0.00  0.00    -0.491 OA
ATOM     31  C   UNL     1       5.407  -1.027  24.292  0.00  0.00    +0.277 C 
ENDBRANCH  29   3
ENDBRANCH  22  24
ENDBRANCH   9  16
BRANCH  10  15
ATOM     15  C   UNL     1      -3.846   4.406  26.711  0.00  0.00    +0.123 C 
BRANCH  15   5
ATOM      1  O   UNL     1      -1.661   5.297  25.010  0.00  0.00    -0.276 OA
ATOM      5  N   UNL     1      -2.588   3.757  26.494  0.00  0.00    -0.314 N 
ATOM     21  C   UNL     1      -1.597   4.259  25.660  0.00  0.00    +0.216 C 
ATOM     32  H   UNL     1      -2.433   2.864  26.952  0.00  0.00    +0.149 HD
BRANCH  21  17
ATOM     17  C   UNL     1      -0.366   3.419  25.584  0.00  0.00    +0.075 C 
ATOM     18  C   UNL     1       0.385   3.109  26.846  0.00  0.00    +0.013 C 
ATOM     19  C   UNL     1      -0.395   2.030  26.153  0.00  0.00    +0.013 C 
ENDBRANCH  21  17
ENDBRANCH  15   5
ENDBRANCH  10  15
TORSDOF 7
ENDMDL
