MODEL 1
REMARK VINA RESULT:      -1.5      0.000      0.000
REMARK  Name = 56774592
REMARK  7 active torsions:
REMARK  status: ('A' for Active; 'I' for Inactive)
REMARK    1  A    between atoms: O_2  and  C_8
REMARK    2  A    between atoms: N_5  and  C_10
REMARK    3  A    between atoms: N_6  and  C_21
REMARK    4  A    between atoms: C_7  and  C_8
REMARK    5  A    between atoms: C_8  and  C_12
REMARK    6  A    between atoms: C_10  and  C_14
REMARK    7  A    between atoms: C_25  and  C_26
REMARK                            x       y       z     vdW  Elec       q    Type
REMARK                         _______ _______ _______ _____ _____    ______ ____
ROOT
ATOM      8  C   UNL     1      -3.471   3.719  24.306  0.00  0.00    +0.167 C 
ENDROOT
BRANCH   8   7
ATOM      1  O   UNL     1      -6.360   3.903  24.790  0.00  0.00    -0.369 OA
ATOM      3  O   UNL     1      -6.049   0.321  25.126  0.00  0.00    -0.273 OA
ATOM      5  N   UNL     1      -4.530   1.986  25.707  0.00  0.00    -0.287 N 
ATOM      7  C   UNL     1      -4.177   3.409  25.629  0.00  0.00    +0.135 C 
ATOM      9  C   UNL     1      -5.426   4.267  25.799  0.00  0.00    +0.185 C 
ATOM     11  C   UNL     1      -5.758   1.512  25.249  0.00  0.00    +0.242 C 
ATOM     13  C   UNL     1      -6.811   2.580  24.972  0.00  0.00    +0.255 C 
BRANCH   5  10
ATOM     10  C   UNL     1      -3.486   1.055  26.110  0.00  0.00    +0.143 C 
BRANCH  10  14
ATOM     14  C   UNL     1      -3.574  -0.245  25.365  0.00  0.00    -0.030 A 
ATOM     19  C   UNL     1      -3.854  -0.250  23.999  0.00  0.00    +0.005 A 
ATOM     20  C   UNL     1      -3.375  -1.449  26.040  0.00  0.00    +0.005 A 
ATOM     22  C   UNL     1      -3.936  -1.458  23.307  0.00  0.00    +0.000 A 
ATOM     23  C   UNL     1      -3.456  -2.659  25.349  0.00  0.00    +0.000 A 
ATOM     24  C   UNL     1      -3.737  -2.663  23.982  0.00  0.00    +0.000 A 
ENDBRANCH  10  14
ENDBRANCH   5  10
ENDBRANCH   8   7
BRANCH   8  12
ATOM     12  C   UNL     1      -2.107   3.081  24.236  0.00  0.00    -0.017 A 
ATOM     15  C   UNL     1      -1.147   3.379  25.203  0.00  0.00    +0.008 A 
ATOM     16  C   UNL     1      -1.805   2.192  23.204  0.00  0.00    +0.008 A 
ATOM     17  C   UNL     1       0.115   2.788  25.138  0.00  0.00    +0.023 A 
ATOM     18  C   UNL     1      -0.543   1.601  23.139  0.00  0.00    +0.023 A 
ATOM     21  C   UNL     1       0.417   1.900  24.106  0.00  0.00    +0.034 A 
BRANCH  21   6
ATOM      4  O   UNL     1       1.500  -0.153  22.209  0.00  0.00    -0.270 OA
ATOM      6  N   UNL     1       1.679   1.309  24.041  0.00  0.00    -0.282 N 
ATOM     25  C   UNL     1       2.137   0.349  23.129  0.00  0.00    +0.248 C 
ATOM     33  H   UNL     1       2.336   1.671  24.727  0.00  0.00    +0.155 HD
BRANCH  25  26
ATOM     26  C   UNL     1       3.553  -0.068  23.298  0.00  0.00    +0.037 A 
ATOM     27  C   UNL     1       4.582   0.842  23.058  0.00  0.00    +0.013 A 
ATOM     28  C   UNL     1       3.852  -1.371  23.697  0.00  0.00    +0.013 A 
ATOM     29  C   UNL     1       5.911   0.450  23.219  0.00  0.00    +0.001 A 
ATOM     30  C   UNL     1       5.181  -1.763  23.859  0.00  0.00    +0.001 A 
ATOM     31  C   UNL     1       6.211  -0.853  23.619  0.00  0.00    +0.000 A 
ENDBRANCH  25  26
ENDBRANCH  21   6
ENDBRANCH   8  12
BRANCH   8   2
ATOM      2  O   UNL     1      -4.270   3.252  23.226  0.00  0.00    -0.385 OA
ATOM     32  H   UNL     1      -4.007   3.711  22.411  0.00  0.00    +0.210 HD
ENDBRANCH   8   2
TORSDOF 7
ENDMDL
MODEL 2
REMARK VINA RESULT:      -1.5      0.055      1.228
REMARK  Name = 56774592
REMARK  7 active torsions:
REMARK  status: ('A' for Active; 'I' for Inactive)
REMARK    1  A    between atoms: O_2  and  C_8
REMARK    2  A    between atoms: N_5  and  C_10
REMARK    3  A    between atoms: N_6  and  C_21
REMARK    4  A    between atoms: C_7  and  C_8
REMARK    5  A    between atoms: C_8  and  C_12
REMARK    6  A    between atoms: C_10  and  C_14
REMARK    7  A    between atoms: C_25  and  C_26
REMARK                            x       y       z     vdW  Elec       q    Type
REMARK                         _______ _______ _______ _____ _____    ______ ____
ROOT
ATOM      8  C   UNL     1      -3.438   3.715  24.288  0.00  0.00    +0.167 C 
ENDROOT
BRANCH   8   7
ATOM      1  O   UNL     1      -6.320   3.947  24.791  0.00  0.00    -0.369 OA
ATOM      3  O   UNL     1      -6.061   0.364  25.154  0.00  0.00    -0.273 OA
ATOM      5  N   UNL     1      -4.513   2.010  25.710  0.00  0.00    -0.287 N 
ATOM      7  C   UNL     1      -4.138   3.426  25.618  0.00  0.00    +0.135 C 
ATOM      9  C   UNL     1      -5.372   4.305  25.791  0.00  0.00    +0.185 C 
ATOM     11  C   UNL     1      -5.751   1.551  25.265  0.00  0.00    +0.242 C 
ATOM     13  C   UNL     1      -6.789   2.633  24.987  0.00  0.00    +0.255 C 
BRANCH   5  10
ATOM     10  C   UNL     1      -3.480   1.065  26.112  0.00  0.00    +0.143 C 
BRANCH  10  14
ATOM     14  C   UNL     1      -3.572  -0.226  25.354  0.00  0.00    -0.030 A 
ATOM     19  C   UNL     1      -3.372  -1.439  26.014  0.00  0.00    +0.005 A 
ATOM     20  C   UNL     1      -3.859  -0.214  23.989  0.00  0.00    +0.005 A 
ATOM     22  C   UNL     1      -3.459  -2.640  25.309  0.00  0.00    +0.000 A 
ATOM     23  C   UNL     1      -3.945  -1.415  23.283  0.00  0.00    +0.000 A 
ATOM     24  C   UNL     1      -3.745  -2.628  23.943  0.00  0.00    +0.000 A 
ENDBRANCH  10  14
ENDBRANCH   5  10
ENDBRANCH   8   7
BRANCH   8  12
ATOM     12  C   UNL     1      -2.077   3.070  24.219  0.00  0.00    -0.017 A 
ATOM     15  C   UNL     1      -1.093   3.417  25.145  0.00  0.00    +0.008 A 
ATOM     16  C   UNL     1      -1.802   2.125  23.230  0.00  0.00    +0.008 A 
ATOM     17  C   UNL     1       0.166   2.820  25.082  0.00  0.00    +0.023 A 
ATOM     18  C   UNL     1      -0.543   1.528  23.167  0.00  0.00    +0.023 A 
ATOM     21  C   UNL     1       0.441   1.875  24.093  0.00  0.00    +0.034 A 
BRANCH  21   6
ATOM      4  O   UNL     1       1.541  -0.125  22.150  0.00  0.00    -0.270 OA
ATOM      6  N   UNL     1       1.701   1.279  24.030  0.00  0.00    -0.282 N 
ATOM     25  C   UNL     1       2.166   0.344  23.095  0.00  0.00    +0.248 C 
ATOM     33  H   UNL     1       2.348   1.614  24.736  0.00  0.00    +0.155 HD
BRANCH  25  26
ATOM     26  C   UNL     1       3.577  -0.088  23.274  0.00  0.00    +0.037 A 
ATOM     27  C   UNL     1       3.861  -1.376  23.727  0.00  0.00    +0.013 A 
ATOM     28  C   UNL     1       4.618   0.796  22.989  0.00  0.00    +0.013 A 
ATOM     29  C   UNL     1       5.185  -1.781  23.893  0.00  0.00    +0.001 A 
ATOM     30  C   UNL     1       5.942   0.391  23.155  0.00  0.00    +0.001 A 
ATOM     31  C   UNL     1       6.226  -0.897  23.607  0.00  0.00    +0.000 A 
ENDBRANCH  25  26
ENDBRANCH  21   6
ENDBRANCH   8  12
BRANCH   8   2
ATOM      2  O   UNL     1      -4.245   3.237  23.217  0.00  0.00    -0.385 OA
ATOM     32  H   UNL     1      -5.121   2.994  23.560  0.00  0.00    +0.210 HD
ENDBRANCH   8   2
TORSDOF 7
ENDMDL
MODEL 3
REMARK VINA RESULT:      -1.2      1.353      2.004
REMARK  Name = 56774592
REMARK  7 active torsions:
REMARK  status: ('A' for Active; 'I' for Inactive)
REMARK    1  A    between atoms: O_2  and  C_8
REMARK    2  A    between atoms: N_5  and  C_10
REMARK    3  A    between atoms: N_6  and  C_21
REMARK    4  A    between atoms: C_7  and  C_8
REMARK    5  A    between atoms: C_8  and  C_12
REMARK    6  A    between atoms: C_10  and  C_14
REMARK    7  A    between atoms: C_25  and  C_26
REMARK                            x       y       z     vdW  Elec       q    Type
REMARK                         _______ _______ _______ _____ _____    ______ ____
ROOT
ATOM      8  C   UNL     1      -3.528   3.491  25.982  0.00  0.00    +0.167 C 
ENDROOT
BRANCH   8   7
ATOM      1  O   UNL     1      -3.230   3.962  23.100  0.00  0.00    -0.369 OA
ATOM      3  O   UNL     1      -3.382   0.356  22.979  0.00  0.00    -0.273 OA
ATOM      5  N   UNL     1      -4.466   1.822  24.426  0.00  0.00    -0.287 N 
ATOM      7  C   UNL     1      -4.587   3.201  24.915  0.00  0.00    +0.135 C 
ATOM      9  C   UNL     1      -4.476   4.179  23.751  0.00  0.00    +0.185 C 
ATOM     11  C   UNL     1      -3.663   1.502  23.333  0.00  0.00    +0.242 C 
ATOM     13  C   UNL     1      -3.189   2.688  22.499  0.00  0.00    +0.255 C 
BRANCH   5  10
ATOM     10  C   UNL     1      -5.067   0.767  25.230  0.00  0.00    +0.143 C 
BRANCH  10  14
ATOM     14  C   UNL     1      -4.382  -0.552  25.030  0.00  0.00    -0.030 A 
ATOM     19  C   UNL     1      -3.407  -0.977  25.933  0.00  0.00    +0.005 A 
ATOM     20  C   UNL     1      -4.720  -1.355  23.941  0.00  0.00    +0.005 A 
ATOM     22  C   UNL     1      -2.771  -2.205  25.747  0.00  0.00    +0.000 A 
ATOM     23  C   UNL     1      -4.084  -2.583  23.754  0.00  0.00    +0.000 A 
ATOM     24  C   UNL     1      -3.109  -3.007  24.657  0.00  0.00    +0.000 A 
ENDBRANCH  10  14
ENDBRANCH   5  10
ENDBRANCH   8   7
BRANCH   8  12
ATOM     12  C   UNL     1      -2.186   2.914  25.610  0.00  0.00    -0.017 A 
ATOM     15  C   UNL     1      -1.899   1.577  25.890  0.00  0.00    +0.008 A 
ATOM     16  C   UNL     1      -1.230   3.716  24.987  0.00  0.00    +0.008 A 
ATOM     17  C   UNL     1      -0.658   1.043  25.545  0.00  0.00    +0.023 A 
ATOM     18  C   UNL     1       0.012   3.182  24.642  0.00  0.00    +0.023 A 
ATOM     21  C   UNL     1       0.298   1.846  24.922  0.00  0.00    +0.034 A 
BRANCH  21   6
ATOM      4  O   UNL     1       1.072   0.044  22.654  0.00  0.00    -0.270 OA
ATOM      6  N   UNL     1       1.540   1.312  24.578  0.00  0.00    -0.282 N 
ATOM     25  C   UNL     1       1.849   0.470  23.501  0.00  0.00    +0.248 C 
ATOM     33  H   UNL     1       2.299   1.623  25.177  0.00  0.00    +0.155 HD
BRANCH  25  26
ATOM     26  C   UNL     1       3.280   0.089  23.380  0.00  0.00    +0.037 A 
ATOM     27  C   UNL     1       4.202   0.994  22.855  0.00  0.00    +0.013 A 
ATOM     28  C   UNL     1       3.702  -1.176  23.791  0.00  0.00    +0.013 A 
ATOM     29  C   UNL     1       5.546   0.636  22.744  0.00  0.00    +0.001 A 
ATOM     30  C   UNL     1       5.046  -1.534  23.680  0.00  0.00    +0.001 A 
ATOM     31  C   UNL     1       5.967  -0.628  23.156  0.00  0.00    +0.000 A 
ENDBRANCH  25  26
ENDBRANCH  21   6
ENDBRANCH   8  12
BRANCH   8   2
ATOM      2  O   UNL     1      -3.408   4.898  26.157  0.00  0.00    -0.385 OA
ATOM     32  H   UNL     1      -4.205   5.235  26.600  0.00  0.00    +0.210 HD
ENDBRANCH   8   2
TORSDOF 7
ENDMDL
MODEL 4
REMARK VINA RESULT:       0.3      1.470      3.655
REMARK  Name = 56774592
REMARK  7 active torsions:
REMARK  status: ('A' for Active; 'I' for Inactive)
REMARK    1  A    between atoms: O_2  and  C_8
REMARK    2  A    between atoms: N_5  and  C_10
REMARK    3  A    between atoms: N_6  and  C_21
REMARK    4  A    between atoms: C_7  and  C_8
REMARK    5  A    between atoms: C_8  and  C_12
REMARK    6  A    between atoms: C_10  and  C_14
REMARK    7  A    between atoms: C_25  and  C_26
REMARK                            x       y       z     vdW  Elec       q    Type
REMARK                         _______ _______ _______ _____ _____    ______ ____
ROOT
ATOM      8  C   UNL     1      -4.794  -0.006  24.653  0.00  0.00    +0.167 C 
ENDROOT
BRANCH   8   7
ATOM      1  O   UNL     1      -6.548   1.762  26.205  0.00  0.00    -0.369 OA
ATOM      3  O   UNL     1      -3.663   3.931  26.095  0.00  0.00    -0.273 OA
ATOM      5  N   UNL     1      -4.430   2.428  24.492  0.00  0.00    -0.287 N 
ATOM      7  C   UNL     1      -5.358   1.335  24.177  0.00  0.00    +0.135 C 
ATOM      9  C   UNL     1      -6.721   1.610  24.801  0.00  0.00    +0.185 C 
ATOM     11  C   UNL     1      -4.506   3.127  25.695  0.00  0.00    +0.242 C 
ATOM     13  C   UNL     1      -5.784   2.910  26.499  0.00  0.00    +0.255 C 
BRANCH   5  10
ATOM     10  C   UNL     1      -3.308   2.640  23.588  0.00  0.00    +0.143 C 
BRANCH  10  14
ATOM     14  C   UNL     1      -2.254   3.519  24.196  0.00  0.00    -0.030 A 
ATOM     19  C   UNL     1      -2.373   4.907  24.119  0.00  0.00    +0.005 A 
ATOM     20  C   UNL     1      -1.157   2.947  24.839  0.00  0.00    +0.005 A 
ATOM     22  C   UNL     1      -1.393   5.723  24.685  0.00  0.00    +0.000 A 
ATOM     23  C   UNL     1      -0.176   3.763  25.405  0.00  0.00    +0.000 A 
ATOM     24  C   UNL     1      -0.294   5.151  25.328  0.00  0.00    +0.000 A 
ENDBRANCH  10  14
ENDBRANCH   5  10
ENDBRANCH   8   7
BRANCH   8  12
ATOM     12  C   UNL     1      -3.293  -0.063  24.522  0.00  0.00    -0.017 A 
ATOM     15  C   UNL     1      -2.500  -0.246  25.654  0.00  0.00    +0.008 A 
ATOM     16  C   UNL     1      -2.698   0.068  23.267  0.00  0.00    +0.008 A 
ATOM     17  C   UNL     1      -1.111  -0.298  25.532  0.00  0.00    +0.023 A 
ATOM     18  C   UNL     1      -1.310   0.015  23.145  0.00  0.00    +0.023 A 
ATOM     21  C   UNL     1      -0.516  -0.168  24.278  0.00  0.00    +0.034 A 
BRANCH  21   6
ATOM      4  O   UNL     1       1.211  -0.265  21.830  0.00  0.00    -0.270 OA
ATOM      6  N   UNL     1       0.873  -0.219  24.156  0.00  0.00    -0.282 N 
ATOM     25  C   UNL     1       1.634  -0.264  22.981  0.00  0.00    +0.248 C 
ATOM     33  H   UNL     1       1.363  -0.178  25.044  0.00  0.00    +0.155 HD
BRANCH  25  26
ATOM     26  C   UNL     1       3.107  -0.284  23.176  0.00  0.00    +0.037 A 
ATOM     27  C   UNL     1       3.873   0.829  22.831  0.00  0.00    +0.013 A 
ATOM     28  C   UNL     1       3.724  -1.418  23.705  0.00  0.00    +0.013 A 
ATOM     29  C   UNL     1       5.255   0.810  23.017  0.00  0.00    +0.001 A 
ATOM     30  C   UNL     1       5.107  -1.438  23.890  0.00  0.00    +0.001 A 
ATOM     31  C   UNL     1       5.872  -0.324  23.546  0.00  0.00    +0.000 A 
ENDBRANCH  25  26
ENDBRANCH  21   6
ENDBRANCH   8  12
BRANCH   8   2
ATOM      2  O   UNL     1      -5.160  -0.214  26.013  0.00  0.00    -0.385 OA
ATOM     32  H   UNL     1      -4.431   0.074  26.588  0.00  0.00    +0.210 HD
ENDBRANCH   8   2
TORSDOF 7
ENDMDL
