MODEL 1
REMARK VINA RESULT:       3.9      0.000      0.000
REMARK  Name = 26742249
REMARK  10 active torsions:
REMARK  status: ('A' for Active; 'I' for Inactive)
REMARK    1  A    between atoms: O_1  and  C_9
REMARK    2  A    between atoms: O_3  and  C_27
REMARK    3  A    between atoms: O_3  and  C_29
REMARK    4  A    between atoms: O_4  and  C_28
REMARK    5  A    between atoms: N_6  and  C_14
REMARK    6  A    between atoms: N_7  and  C_8
REMARK    7  A    between atoms: C_14  and  C_15
REMARK    8  A    between atoms: C_16  and  C_19
REMARK    9  A    between atoms: C_22  and  C_28
REMARK   10  A    between atoms: C_29  and  C_30
REMARK                            x       y       z     vdW  Elec       q    Type
REMARK                         _______ _______ _______ _____ _____    ______ ____
ROOT
ATOM      6  N   UNL     1      -5.263   2.523  25.472  0.00  0.00    -0.296 NA
ATOM      8  C   UNL     1      -3.054   3.590  26.037  0.00  0.00    +0.116 C 
ATOM      9  C   UNL     1      -3.421   4.924  25.368  0.00  0.00    +0.136 C 
ATOM     10  C   UNL     1      -4.217   2.698  26.495  0.00  0.00    +0.109 C 
ATOM     11  C   UNL     1      -4.729   5.551  25.851  0.00  0.00    +0.034 C 
ATOM     12  C   UNL     1      -5.953   4.937  25.177  0.00  0.00    +0.018 C 
ATOM     13  C   UNL     1      -6.328   3.527  25.631  0.00  0.00    +0.085 C 
ENDROOT
BRANCH   8   7
ATOM      2  O   UNL     1      -0.509   2.461  26.730  0.00  0.00    -0.270 OA
ATOM      7  N   UNL     1      -2.174   2.837  25.162  0.00  0.00    -0.305 N 
ATOM     16  C   UNL     1      -0.963   2.334  25.596  0.00  0.00    +0.244 C 
ATOM     36  H   UNL     1      -2.482   2.701  24.206  0.00  0.00    +0.149 HD
BRANCH  16  19
ATOM     19  C   UNL     1      -0.167   1.609  24.572  0.00  0.00    +0.037 A 
ATOM     23  C   UNL     1       1.030   2.155  24.105  0.00  0.00    +0.016 A 
ATOM     24  C   UNL     1      -0.616   0.385  24.076  0.00  0.00    +0.016 A 
ATOM     25  C   UNL     1       1.776   1.476  23.142  0.00  0.00    +0.046 A 
ATOM     26  C   UNL     1       0.130  -0.293  23.113  0.00  0.00    +0.046 A 
ATOM     27  C   UNL     1       1.326   0.252  22.646  0.00  0.00    +0.121 A 
BRANCH  27   3
ATOM      3  O   UNL     1       2.055  -0.411  21.706  0.00  0.00    -0.487 OA
BRANCH   3  29
ATOM     29  C   UNL     1       3.360   0.091  21.424  0.00  0.00    +0.264 C 
BRANCH  29  30
ATOM     30  C   UNL     1       4.241  -0.133  22.618  0.00  0.00    -0.010 A 
ATOM     31  C   UNL     1       4.299  -1.392  23.216  0.00  0.00    +0.007 A 
ATOM     32  C   UNL     1       5.002   0.918  23.130  0.00  0.00    +0.007 A 
ATOM     33  C   UNL     1       5.118  -1.600  24.325  0.00  0.00    +0.000 A 
ATOM     34  C   UNL     1       5.821   0.710  24.240  0.00  0.00    +0.000 A 
ATOM     35  C   UNL     1       5.878  -0.549  24.837  0.00  0.00    +0.000 A 
ENDBRANCH  29  30
ENDBRANCH   3  29
ENDBRANCH  27   3
ENDBRANCH  16  19
ENDBRANCH   8   7
BRANCH   9   1
ATOM      1  O   UNL     1      -2.351   5.838  25.640  0.00  0.00    -0.390 OA
ATOM     37  H   UNL     1      -1.758   5.834  24.870  0.00  0.00    +0.210 HD
ENDBRANCH   9   1
BRANCH   6  14
ATOM     14  C   UNL     1      -5.848   1.182  25.590  0.00  0.00    +0.119 C 
BRANCH  14  15
ATOM     15  C   UNL     1      -4.851   0.103  25.259  0.00  0.00    -0.033 A 
ATOM     17  C   UNL     1      -4.011  -0.398  26.254  0.00  0.00    +0.006 A 
ATOM     18  C   UNL     1      -4.766  -0.394  23.958  0.00  0.00    +0.006 A 
ATOM     20  C   UNL     1      -3.088  -1.397  25.948  0.00  0.00    +0.015 A 
ATOM     21  C   UNL     1      -3.841  -1.393  23.653  0.00  0.00    +0.015 A 
ATOM     22  C   UNL     1      -3.002  -1.895  24.648  0.00  0.00    +0.059 A 
BRANCH  22  28
ATOM      5  O   UNL     1      -2.161  -3.774  23.430  0.00  0.00    -0.245 OA
ATOM     28  C   UNL     1      -2.039  -2.936  24.329  0.00  0.00    +0.337 C 
BRANCH  28   4
ATOM      4  O   UNL     1      -0.947  -2.901  25.141  0.00  0.00    -0.477 OA
ATOM     38  H   UNL     1      -0.351  -2.154  24.919  0.00  0.00    +0.295 HD
ENDBRANCH  28   4
ENDBRANCH  22  28
ENDBRANCH  14  15
ENDBRANCH   6  14
TORSDOF 10
ENDMDL
MODEL 2
REMARK VINA RESULT:       6.6      2.271      7.654
REMARK  Name = 26742249
REMARK  10 active torsions:
REMARK  status: ('A' for Active; 'I' for Inactive)
REMARK    1  A    between atoms: O_1  and  C_9
REMARK    2  A    between atoms: O_3  and  C_27
REMARK    3  A    between atoms: O_3  and  C_29
REMARK    4  A    between atoms: O_4  and  C_28
REMARK    5  A    between atoms: N_6  and  C_14
REMARK    6  A    between atoms: N_7  and  C_8
REMARK    7  A    between atoms: C_14  and  C_15
REMARK    8  A    between atoms: C_16  and  C_19
REMARK    9  A    between atoms: C_22  and  C_28
REMARK   10  A    between atoms: C_29  and  C_30
REMARK                            x       y       z     vdW  Elec       q    Type
REMARK                         _______ _______ _______ _____ _____    ______ ____
ROOT
ATOM      6  N   UNL     1       2.716  -1.468  24.342  0.00  0.00    -0.296 NA
ATOM      8  C   UNL     1       2.390   0.510  22.820  0.00  0.00    +0.116 C 
ATOM      9  C   UNL     1       3.829   1.014  23.012  0.00  0.00    +0.136 C 
ATOM     10  C   UNL     1       2.135  -0.981  23.079  0.00  0.00    +0.109 C 
ATOM     11  C   UNL     1       4.919  -0.017  22.717  0.00  0.00    +0.034 C 
ATOM     12  C   UNL     1       5.152  -0.968  23.888  0.00  0.00    +0.018 C 
ATOM     13  C   UNL     1       4.065  -2.016  24.124  0.00  0.00    +0.085 C 
ENDROOT
BRANCH   8   7
ATOM      2  O   UNL     1      -0.456   0.712  22.516  0.00  0.00    -0.270 OA
ATOM      7  N   UNL     1       1.487   1.310  23.628  0.00  0.00    -0.305 N 
ATOM     16  C   UNL     1       0.125   1.337  23.397  0.00  0.00    +0.244 C 
ATOM     36  H   UNL     1       1.901   1.861  24.371  0.00  0.00    +0.149 HD
BRANCH  16  19
ATOM     19  C   UNL     1      -0.658   2.226  24.294  0.00  0.00    +0.037 A 
ATOM     23  C   UNL     1      -1.462   1.676  25.293  0.00  0.00    +0.016 A 
ATOM     24  C   UNL     1      -0.591   3.611  24.136  0.00  0.00    +0.016 A 
ATOM     25  C   UNL     1      -2.198   2.510  26.134  0.00  0.00    +0.046 A 
ATOM     26  C   UNL     1      -1.328   4.444  24.977  0.00  0.00    +0.046 A 
ATOM     27  C   UNL     1      -2.131   3.894  25.976  0.00  0.00    +0.121 A 
BRANCH  27   3
ATOM      3  O   UNL     1      -2.850   4.708  26.796  0.00  0.00    -0.487 OA
BRANCH   3  29
ATOM     29  C   UNL     1      -4.167   5.057  26.372  0.00  0.00    +0.264 C 
BRANCH  29  30
ATOM     30  C   UNL     1      -4.817   3.856  25.750  0.00  0.00    -0.010 A 
ATOM     31  C   UNL     1      -5.706   3.080  26.493  0.00  0.00    +0.007 A 
ATOM     32  C   UNL     1      -4.532   3.517  24.427  0.00  0.00    +0.007 A 
ATOM     33  C   UNL     1      -6.310   1.965  25.914  0.00  0.00    +0.000 A 
ATOM     34  C   UNL     1      -5.136   2.401  23.848  0.00  0.00    +0.000 A 
ATOM     35  C   UNL     1      -6.025   1.625  24.592  0.00  0.00    +0.000 A 
ENDBRANCH  29  30
ENDBRANCH   3  29
ENDBRANCH  27   3
ENDBRANCH  16  19
ENDBRANCH   8   7
BRANCH   9   1
ATOM      1  O   UNL     1       4.006   2.127  22.126  0.00  0.00    -0.390 OA
ATOM     37  H   UNL     1       3.392   2.010  21.382  0.00  0.00    +0.210 HD
ENDBRANCH   9   1
BRANCH   6  14
ATOM     14  C   UNL     1       1.859  -2.517  24.907  0.00  0.00    +0.119 C 
BRANCH  14  15
ATOM     15  C   UNL     1       0.403  -2.134  24.870  0.00  0.00    -0.033 A 
ATOM     17  C   UNL     1      -0.138  -1.353  25.892  0.00  0.00    +0.006 A 
ATOM     18  C   UNL     1      -0.404  -2.560  23.815  0.00  0.00    +0.006 A 
ATOM     20  C   UNL     1      -1.486  -0.998  25.858  0.00  0.00    +0.015 A 
ATOM     21  C   UNL     1      -1.753  -2.205  23.782  0.00  0.00    +0.015 A 
ATOM     22  C   UNL     1      -2.294  -1.423  24.803  0.00  0.00    +0.059 A 
BRANCH  22  28
ATOM      5  O   UNL     1      -4.453  -1.194  23.800  0.00  0.00    -0.245 OA
ATOM     28  C   UNL     1      -3.699  -1.053  24.768  0.00  0.00    +0.337 C 
BRANCH  28   4
ATOM      4  O   UNL     1      -4.127  -0.518  25.945  0.00  0.00    -0.477 OA
ATOM     38  H   UNL     1      -4.128   0.463  25.920  0.00  0.00    +0.295 HD
ENDBRANCH  28   4
ENDBRANCH  22  28
ENDBRANCH  14  15
ENDBRANCH   6  14
TORSDOF 10
ENDMDL
