MODEL 1
REMARK VINA RESULT:      -2.7      0.000      0.000
REMARK  Name = 75536984
REMARK  5 active torsions:
REMARK  status: ('A' for Active; 'I' for Inactive)
REMARK    1  A    between atoms: N_4  and  C_14
REMARK    2  A    between atoms: N_6  and  C_17
REMARK    3  A    between atoms: C_14  and  C_16
REMARK    4  A    between atoms: C_17  and  C_19
REMARK    5  A    between atoms: C_17  and  C_20
REMARK                            x       y       z     vdW  Elec       q    Type
REMARK                         _______ _______ _______ _____ _____    ______ ____
ROOT
ATOM      1  O   UNL     1      -3.588 -10.681  14.375  0.00  0.00    -0.252 OA
ATOM      2  O   UNL     1      -9.954  -9.399  12.001  0.00  0.00    -0.253 OA
ATOM      3  N   UNL     1      -5.298 -10.117  12.866  0.00  0.00    -0.278 N 
ATOM      4  N   UNL     1      -3.228 -10.443  12.056  0.00  0.00    -0.278 N 
ATOM      5  N   UNL     1      -7.804 -10.196  11.662  0.00  0.00    -0.282 N 
ATOM      6  N   UNL     1      -9.029  -9.181   9.914  0.00  0.00    -0.297 N 
ATOM      8  C   UNL     1      -5.398  -9.779  11.456  0.00  0.00    +0.112 C 
ATOM      9  C   UNL     1      -4.053 -10.215  10.883  0.00  0.00    +0.133 C 
ATOM     10  C   UNL     1      -6.611 -10.464  10.834  0.00  0.00    +0.133 C 
ATOM     11  C   UNL     1      -6.464  -9.995  13.723  0.00  0.00    +0.128 C 
ATOM     12  C   UNL     1      -7.675 -10.649  13.058  0.00  0.00    +0.128 C 
ATOM     13  C   UNL     1      -3.987 -10.440  13.243  0.00  0.00    +0.306 C 
ATOM     15  C   UNL     1      -8.995  -9.582  11.243  0.00  0.00    +0.303 C 
ATOM     24  H   UNL     1      -8.197  -9.205   9.342  0.00  0.00    +0.150 HD
ENDROOT
BRANCH   6  17
ATOM     17  C   UNL     1     -10.184  -8.529   9.337  0.00  0.00    +0.068 C 
ATOM     19  C   UNL     1     -10.719  -9.341   8.165  0.00  0.00    +0.027 C 
ATOM     20  C   UNL     1      -9.838  -7.107   8.911  0.00  0.00    +0.027 C 
ENDBRANCH   6  17
BRANCH   4  14
ATOM     14  C   UNL     1      -1.823 -10.772  11.952  0.00  0.00    +0.164 C 
BRANCH  14  16
ATOM      7  N   UNL     1      -0.919  -9.041  13.397  0.00  0.00    -0.258 NA
ATOM     16  C   UNL     1      -0.948  -9.569  12.152  0.00  0.00    +0.059 A 
ATOM     18  C   UNL     1      -0.228  -9.068  11.081  0.00  0.00    +0.025 A 
ATOM     21  C   UNL     1       0.574  -7.953  11.300  0.00  0.00    +0.003 A 
ATOM     22  C   UNL     1      -0.128  -7.959  13.573  0.00  0.00    +0.111 A 
ATOM     23  C   UNL     1       0.630  -7.382  12.567  0.00  0.00    +0.020 A 
ENDBRANCH  14  16
ENDBRANCH   4  14
TORSDOF 3
ENDMDL
MODEL 2
REMARK VINA RESULT:      -0.5     16.179     17.498
REMARK  Name = 75536984
REMARK  5 active torsions:
REMARK  status: ('A' for Active; 'I' for Inactive)
REMARK    1  A    between atoms: N_4  and  C_14
REMARK    2  A    between atoms: N_6  and  C_17
REMARK    3  A    between atoms: C_14  and  C_16
REMARK    4  A    between atoms: C_17  and  C_19
REMARK    5  A    between atoms: C_17  and  C_20
REMARK                            x       y       z     vdW  Elec       q    Type
REMARK                         _______ _______ _______ _____ _____    ______ ____
ROOT
ATOM      1  O   UNL     1       2.354   2.107  23.496  0.00  0.00    -0.252 OA
ATOM      2  O   UNL     1      -3.732   3.848  26.279  0.00  0.00    -0.253 OA
ATOM      3  N   UNL     1       0.064   2.005  24.012  0.00  0.00    -0.278 N 
ATOM      4  N   UNL     1       0.990   0.269  22.927  0.00  0.00    -0.278 N 
ATOM      5  N   UNL     1      -2.246   2.227  25.545  0.00  0.00    -0.282 N 
ATOM      6  N   UNL     1      -4.584   1.913  25.390  0.00  0.00    -0.297 N 
ATOM      8  C   UNL     1      -1.052   1.123  23.712  0.00  0.00    +0.112 C 
ATOM      9  C   UNL     1      -0.381  -0.140  23.179  0.00  0.00    +0.133 C 
ATOM     10  C   UNL     1      -1.909   0.915  24.957  0.00  0.00    +0.133 C 
ATOM     11  C   UNL     1      -0.173   3.262  24.700  0.00  0.00    +0.128 C 
ATOM     12  C   UNL     1      -1.072   3.034  25.915  0.00  0.00    +0.128 C 
ATOM     13  C   UNL     1       1.271   1.534  23.478  0.00  0.00    +0.306 C 
ATOM     15  C   UNL     1      -3.534   2.737  25.774  0.00  0.00    +0.303 C 
ATOM     24  H   UNL     1      -4.417   1.074  24.854  0.00  0.00    +0.150 HD
ENDROOT
BRANCH   6  17
ATOM     17  C   UNL     1      -5.967   2.302  25.557  0.00  0.00    +0.068 C 
ATOM     19  C   UNL     1      -6.498   1.806  26.895  0.00  0.00    +0.027 C 
ATOM     20  C   UNL     1      -6.812   1.781  24.401  0.00  0.00    +0.027 C 
ENDBRANCH   6  17
BRANCH   4  14
ATOM     14  C   UNL     1       1.951  -0.615  22.306  0.00  0.00    +0.164 C 
BRANCH  14  16
ATOM      7  N   UNL     1       3.722  -1.534  23.692  0.00  0.00    -0.258 NA
ATOM     16  C   UNL     1       3.311  -0.494  22.931  0.00  0.00    +0.059 A 
ATOM     18  C   UNL     1       4.063   0.647  22.705  0.00  0.00    +0.025 A 
ATOM     21  C   UNL     1       5.319   0.727  23.297  0.00  0.00    +0.003 A 
ATOM     22  C   UNL     1       4.948  -1.421  24.251  0.00  0.00    +0.111 A 
ATOM     23  C   UNL     1       5.776  -0.323  24.087  0.00  0.00    +0.020 A 
ENDBRANCH  14  16
ENDBRANCH   4  14
TORSDOF 3
ENDMDL
MODEL 3
REMARK VINA RESULT:       0.2     15.910     17.136
REMARK  Name = 75536984
REMARK  5 active torsions:
REMARK  status: ('A' for Active; 'I' for Inactive)
REMARK    1  A    between atoms: N_4  and  C_14
REMARK    2  A    between atoms: N_6  and  C_17
REMARK    3  A    between atoms: C_14  and  C_16
REMARK    4  A    between atoms: C_17  and  C_19
REMARK    5  A    between atoms: C_17  and  C_20
REMARK                            x       y       z     vdW  Elec       q    Type
REMARK                         _______ _______ _______ _____ _____    ______ ____
ROOT
ATOM      1  O   UNL     1       0.445  -2.108  24.424  0.00  0.00    -0.252 OA
ATOM      2  O   UNL     1      -4.846   1.987  26.172  0.00  0.00    -0.253 OA
ATOM      3  N   UNL     1      -0.922  -0.199  24.508  0.00  0.00    -0.278 N 
ATOM      4  N   UNL     1       0.766  -0.237  23.025  0.00  0.00    -0.278 N 
ATOM      5  N   UNL     1      -3.269   1.290  24.623  0.00  0.00    -0.282 N 
ATOM      6  N   UNL     1      -4.013   3.532  24.695  0.00  0.00    -0.297 N 
ATOM      8  C   UNL     1      -0.930   1.125  23.908  0.00  0.00    +0.112 C 
ATOM      9  C   UNL     1       0.067   1.008  22.759  0.00  0.00    +0.133 C 
ATOM     10  C   UNL     1      -2.347   1.505  23.489  0.00  0.00    +0.133 C 
ATOM     11  C   UNL     1      -1.881  -0.528  25.548  0.00  0.00    +0.128 C 
ATOM     12  C   UNL     1      -3.284  -0.095  25.123  0.00  0.00    +0.128 C 
ATOM     13  C   UNL     1       0.137  -0.988  24.037  0.00  0.00    +0.306 C 
ATOM     15  C   UNL     1      -4.095   2.251  25.226  0.00  0.00    +0.303 C 
ATOM     24  H   UNL     1      -3.300   3.771  24.021  0.00  0.00    +0.150 HD
ENDROOT
BRANCH   6  17
ATOM     17  C   UNL     1      -4.799   4.630  25.214  0.00  0.00    +0.068 C 
ATOM     19  C   UNL     1      -4.128   5.225  26.445  0.00  0.00    +0.027 C 
ATOM     20  C   UNL     1      -6.218   4.172  25.525  0.00  0.00    +0.027 C 
ENDBRANCH   6  17
BRANCH   4  14
ATOM     14  C   UNL     1       1.884  -0.675  22.219  0.00  0.00    +0.164 C 
BRANCH  14  16
ATOM      7  N   UNL     1       3.770  -1.417  23.560  0.00  0.00    -0.258 NA
ATOM     16  C   UNL     1       3.201  -0.392  22.885  0.00  0.00    +0.059 A 
ATOM     18  C   UNL     1       3.758   0.871  22.778  0.00  0.00    +0.025 A 
ATOM     21  C   UNL     1       4.978   1.100  23.404  0.00  0.00    +0.003 A 
ATOM     22  C   UNL     1       4.956  -1.158  24.155  0.00  0.00    +0.111 A 
ATOM     23  C   UNL     1       5.594   0.071  24.108  0.00  0.00    +0.020 A 
ENDBRANCH  14  16
ENDBRANCH   4  14
TORSDOF 3
ENDMDL
