MODEL 1
REMARK VINA RESULT:      -1.1      0.000      0.000
REMARK  Name = 28959856
REMARK  10 active torsions:
REMARK  status: ('A' for Active; 'I' for Inactive)
REMARK    1  A    between atoms: O_2  and  C_21
REMARK    2  A    between atoms: O_4  and  C_22
REMARK    3  A    between atoms: O_4  and  C_28
REMARK    4  A    between atoms: N_6  and  C_14
REMARK    5  A    between atoms: N_7  and  C_23
REMARK    6  A    between atoms: C_8  and  C_12
REMARK    7  A    between atoms: C_9  and  C_15
REMARK    8  A    between atoms: C_12  and  C_14
REMARK    9  A    between atoms: C_15  and  C_21
REMARK   10  A    between atoms: C_18  and  C_22
REMARK                            x       y       z     vdW  Elec       q    Type
REMARK                         _______ _______ _______ _____ _____    ______ ____
ROOT
ATOM      1  O   UNL     1      -5.920   4.435  25.375  0.00  0.00    -0.273 OA
ATOM      5  N   UNL     1      -4.486   2.619  25.583  0.00  0.00    -0.299 N 
ATOM      8  C   UNL     1      -3.152   0.766  24.604  0.00  0.00    +0.011 C 
ATOM      9  C   UNL     1      -4.247  -0.223  25.078  0.00  0.00    +0.006 C 
ATOM     10  C   UNL     1      -3.151   2.014  25.504  0.00  0.00    +0.111 C 
ATOM     11  C   UNL     1      -5.618   0.464  25.195  0.00  0.00    +0.023 C 
ATOM     13  C   UNL     1      -5.537   1.720  26.059  0.00  0.00    +0.108 C 
ATOM     18  C   UNL     1      -4.793   3.944  25.275  0.00  0.00    +0.241 C 
ENDROOT
BRANCH   8  12
ATOM     12  C   UNL     1      -3.277   1.173  23.130  0.00  0.00    +0.020 C 
BRANCH  12  14
ATOM     14  C   UNL     1      -2.033   1.919  22.666  0.00  0.00    +0.085 C 
BRANCH  14   6
ATOM      6  N   UNL     1      -0.836   1.264  23.193  0.00  0.00    -0.299 NA
ATOM      7  N   UNL     1       1.927   0.545  23.259  0.00  0.00    -0.327 N 
ATOM     16  C   UNL     1       0.183   2.260  23.546  0.00  0.00    +0.103 C 
ATOM     17  C   UNL     1      -0.292   0.319  22.211  0.00  0.00    +0.103 C 
ATOM     19  C   UNL     1       1.420   1.592  24.151  0.00  0.00    +0.120 C 
ATOM     20  C   UNL     1       0.928  -0.415  22.772  0.00  0.00    +0.120 C 
BRANCH   7  23
ATOM     23  C   UNL     1       3.251   0.110  23.383  0.00  0.00    +0.030 A 
ATOM     24  C   UNL     1       4.302   1.001  23.167  0.00  0.00    +0.023 A 
ATOM     25  C   UNL     1       3.521  -1.216  23.723  0.00  0.00    +0.023 A 
ATOM     26  C   UNL     1       5.622   0.567  23.290  0.00  0.00    +0.002 A 
ATOM     27  C   UNL     1       4.841  -1.650  23.846  0.00  0.00    +0.002 A 
ATOM     29  C   UNL     1       5.892  -0.759  23.630  0.00  0.00    +0.000 A 
ENDBRANCH   7  23
ENDBRANCH  14   6
ENDBRANCH  12  14
ENDBRANCH   8  12
BRANCH   9  15
ATOM     15  C   UNL     1      -4.345  -1.475  24.205  0.00  0.00    +0.124 C 
BRANCH  15  21
ATOM      3  O   UNL     1      -2.121  -2.432  23.925  0.00  0.00    -0.251 OA
ATOM     21  C   UNL     1      -3.214  -2.428  24.473  0.00  0.00    +0.305 C 
BRANCH  21   2
ATOM      2  O   UNL     1      -3.577  -3.311  25.437  0.00  0.00    -0.481 OA
ATOM     30  H   UNL     1      -3.952  -4.134  25.058  0.00  0.00    +0.295 HD
ENDBRANCH  21   2
ENDBRANCH  15  21
ENDBRANCH   9  15
BRANCH  18  22
ATOM     22  C   UNL     1      -3.655   4.805  24.789  0.00  0.00    +0.255 C 
BRANCH  22   4
ATOM      4  O   UNL     1      -2.655   4.748  25.777  0.00  0.00    -0.374 OA
ATOM     28  C   UNL     1      -1.358   4.999  25.242  0.00  0.00    +0.194 C 
ENDBRANCH  22   4
ENDBRANCH  18  22
TORSDOF 9
ENDMDL
MODEL 2
REMARK VINA RESULT:       0.8      1.239      4.253
REMARK  Name = 28959856
REMARK  10 active torsions:
REMARK  status: ('A' for Active; 'I' for Inactive)
REMARK    1  A    between atoms: O_2  and  C_21
REMARK    2  A    between atoms: O_4  and  C_22
REMARK    3  A    between atoms: O_4  and  C_28
REMARK    4  A    between atoms: N_6  and  C_14
REMARK    5  A    between atoms: N_7  and  C_23
REMARK    6  A    between atoms: C_8  and  C_12
REMARK    7  A    between atoms: C_9  and  C_15
REMARK    8  A    between atoms: C_12  and  C_14
REMARK    9  A    between atoms: C_15  and  C_21
REMARK   10  A    between atoms: C_18  and  C_22
REMARK                            x       y       z     vdW  Elec       q    Type
REMARK                         _______ _______ _______ _____ _____    ______ ____
ROOT
ATOM      1  O   UNL     1      -4.325  -1.083  26.170  0.00  0.00    -0.273 OA
ATOM      5  N   UNL     1      -4.614   0.783  24.817  0.00  0.00    -0.299 N 
ATOM      8  C   UNL     1      -3.721   2.752  23.591  0.00  0.00    +0.011 C 
ATOM      9  C   UNL     1      -4.276   3.659  24.719  0.00  0.00    +0.006 C 
ATOM     10  C   UNL     1      -4.545   1.454  23.512  0.00  0.00    +0.111 C 
ATOM     11  C   UNL     1      -4.377   2.902  26.054  0.00  0.00    +0.023 C 
ATOM     13  C   UNL     1      -5.163   1.603  25.896  0.00  0.00    +0.108 C 
ATOM     18  C   UNL     1      -4.233  -0.534  25.069  0.00  0.00    +0.241 C 
ENDROOT
BRANCH   8  12
ATOM     12  C   UNL     1      -2.229   2.427  23.729  0.00  0.00    +0.020 C 
BRANCH  12  14
ATOM     14  C   UNL     1      -1.878   1.154  22.971  0.00  0.00    +0.085 C 
BRANCH  14   6
ATOM      6  N   UNL     1      -0.434   1.090  22.750  0.00  0.00    -0.299 NA
ATOM      7  N   UNL     1       2.242   0.216  23.235  0.00  0.00    -0.327 N 
ATOM     16  C   UNL     1      -0.025  -0.278  22.409  0.00  0.00    +0.103 C 
ATOM     17  C   UNL     1       0.291   1.545  23.942  0.00  0.00    +0.103 C 
ATOM     19  C   UNL     1       1.477  -0.349  22.120  0.00  0.00    +0.120 C 
ATOM     20  C   UNL     1       1.803   1.537  23.704  0.00  0.00    +0.120 C 
BRANCH   7  23
ATOM     23  C   UNL     1       3.591  -0.121  23.392  0.00  0.00    +0.030 A 
ATOM     24  C   UNL     1       3.946  -1.404  23.808  0.00  0.00    +0.023 A 
ATOM     25  C   UNL     1       4.582   0.826  23.132  0.00  0.00    +0.023 A 
ATOM     26  C   UNL     1       5.290  -1.740  23.964  0.00  0.00    +0.002 A 
ATOM     27  C   UNL     1       5.926   0.490  23.288  0.00  0.00    +0.002 A 
ATOM     29  C   UNL     1       6.281  -0.793  23.704  0.00  0.00    +0.000 A 
ENDBRANCH   7  23
ENDBRANCH  14   6
ENDBRANCH  12  14
ENDBRANCH   8  12
BRANCH   9  15
ATOM     15  C   UNL     1      -3.481   4.954  24.894  0.00  0.00    +0.124 C 
BRANCH  15  21
ATOM      3  O   UNL     1      -1.906   3.906  26.430  0.00  0.00    -0.251 OA
ATOM     21  C   UNL     1      -2.145   4.703  25.535  0.00  0.00    +0.305 C 
BRANCH  21   2
ATOM      2  O   UNL     1      -1.208   5.505  24.969  0.00  0.00    -0.481 OA
ATOM     30  H   UNL     1      -1.361   5.625  24.007  0.00  0.00    +0.295 HD
ENDBRANCH  21   2
ENDBRANCH  15  21
ENDBRANCH   9  15
BRANCH  18  22
ATOM     22  C   UNL     1      -3.674  -1.311  23.904  0.00  0.00    +0.255 C 
BRANCH  22   4
ATOM      4  O   UNL     1      -3.207  -2.533  24.421  0.00  0.00    -0.374 OA
ATOM     28  C   UNL     1      -1.785  -2.564  24.525  0.00  0.00    +0.194 C 
ENDBRANCH  22   4
ENDBRANCH  18  22
TORSDOF 9
ENDMDL
MODEL 3
REMARK VINA RESULT:       1.1      1.782      3.574
REMARK  Name = 28959856
REMARK  10 active torsions:
REMARK  status: ('A' for Active; 'I' for Inactive)
REMARK    1  A    between atoms: O_2  and  C_21
REMARK    2  A    between atoms: O_4  and  C_22
REMARK    3  A    between atoms: O_4  and  C_28
REMARK    4  A    between atoms: N_6  and  C_14
REMARK    5  A    between atoms: N_7  and  C_23
REMARK    6  A    between atoms: C_8  and  C_12
REMARK    7  A    between atoms: C_9  and  C_15
REMARK    8  A    between atoms: C_12  and  C_14
REMARK    9  A    between atoms: C_15  and  C_21
REMARK   10  A    between atoms: C_18  and  C_22
REMARK                            x       y       z     vdW  Elec       q    Type
REMARK                         _______ _______ _______ _____ _____    ______ ____
ROOT
ATOM      1  O   UNL     1      -6.188   2.678  26.872  0.00  0.00    -0.273 OA
ATOM      5  N   UNL     1      -4.643   3.141  25.200  0.00  0.00    -0.299 N 
ATOM      8  C   UNL     1      -2.511   2.685  24.008  0.00  0.00    +0.011 C 
ATOM      9  C   UNL     1      -1.891   3.911  24.727  0.00  0.00    +0.006 C 
ATOM     10  C   UNL     1      -4.035   2.865  23.892  0.00  0.00    +0.111 C 
ATOM     11  C   UNL     1      -2.590   4.194  26.067  0.00  0.00    +0.023 C 
ATOM     13  C   UNL     1      -4.101   4.312  25.890  0.00  0.00    +0.108 C 
ATOM     18  C   UNL     1      -5.676   2.409  25.782  0.00  0.00    +0.241 C 
ENDROOT
BRANCH   8  12
ATOM     12  C   UNL     1      -2.182   1.342  24.671  0.00  0.00    +0.020 C 
BRANCH  12  14
ATOM     14  C   UNL     1      -2.255   0.206  23.661  0.00  0.00    +0.085 C 
BRANCH  14   6
ATOM      6  N   UNL     1      -0.909  -0.283  23.365  0.00  0.00    -0.299 NA
ATOM      7  N   UNL     1       1.943  -0.314  23.509  0.00  0.00    -0.327 N 
ATOM     16  C   UNL     1      -0.231  -0.703  24.597  0.00  0.00    +0.103 C 
ATOM     17  C   UNL     1      -0.120   0.756  22.691  0.00  0.00    +0.103 C 
ATOM     19  C   UNL     1       1.159  -1.270  24.296  0.00  0.00    +0.120 C 
ATOM     20  C   UNL     1       1.273   0.238  22.326  0.00  0.00    +0.120 C 
BRANCH   7  23
ATOM     23  C   UNL     1       3.339  -0.415  23.486  0.00  0.00    +0.030 A 
ATOM     24  C   UNL     1       4.109   0.657  23.036  0.00  0.00    +0.023 A 
ATOM     25  C   UNL     1       3.961  -1.588  23.914  0.00  0.00    +0.023 A 
ATOM     26  C   UNL     1       5.500   0.556  23.014  0.00  0.00    +0.002 A 
ATOM     27  C   UNL     1       5.352  -1.689  23.891  0.00  0.00    +0.002 A 
ATOM     29  C   UNL     1       6.122  -0.617  23.441  0.00  0.00    +0.000 A 
ENDBRANCH   7  23
ENDBRANCH  14   6
ENDBRANCH  12  14
ENDBRANCH   8  12
BRANCH   9  15
ATOM     15  C   UNL     1      -0.379   3.790  24.923  0.00  0.00    +0.124 C 
BRANCH  15  21
ATOM      3  O   UNL     1      -0.584   2.699  27.092  0.00  0.00    -0.251 OA
ATOM     21  C   UNL     1      -0.037   2.805  26.005  0.00  0.00    +0.305 C 
BRANCH  21   2
ATOM      2  O   UNL     1       0.995   2.021  25.601  0.00  0.00    -0.481 OA
ATOM     30  H   UNL     1       1.101   1.232  26.173  0.00  0.00    +0.295 HD
ENDBRANCH  21   2
ENDBRANCH  15  21
ENDBRANCH   9  15
BRANCH  18  22
ATOM     22  C   UNL     1      -6.177   1.215  25.009  0.00  0.00    +0.255 C 
BRANCH  22   4
ATOM      4  O   UNL     1      -5.369   0.125  25.381  0.00  0.00    -0.374 OA
ATOM     28  C   UNL     1      -4.940  -0.634  24.252  0.00  0.00    +0.194 C 
ENDBRANCH  22   4
ENDBRANCH  18  22
TORSDOF 9
ENDMDL
MODEL 4
REMARK VINA RESULT:       1.5      2.885      5.390
REMARK  Name = 28959856
REMARK  10 active torsions:
REMARK  status: ('A' for Active; 'I' for Inactive)
REMARK    1  A    between atoms: O_2  and  C_21
REMARK    2  A    between atoms: O_4  and  C_22
REMARK    3  A    between atoms: O_4  and  C_28
REMARK    4  A    between atoms: N_6  and  C_14
REMARK    5  A    between atoms: N_7  and  C_23
REMARK    6  A    between atoms: C_8  and  C_12
REMARK    7  A    between atoms: C_9  and  C_15
REMARK    8  A    between atoms: C_12  and  C_14
REMARK    9  A    between atoms: C_15  and  C_21
REMARK   10  A    between atoms: C_18  and  C_22
REMARK                            x       y       z     vdW  Elec       q    Type
REMARK                         _______ _______ _______ _____ _____    ______ ____
ROOT
ATOM      1  O   UNL     1      -0.599  -1.467  26.083  0.00  0.00    -0.273 OA
ATOM      5  N   UNL     1      -2.554  -1.163  24.866  0.00  0.00    -0.299 N 
ATOM      8  C   UNL     1      -4.001   0.178  23.356  0.00  0.00    +0.011 C 
ATOM      9  C   UNL     1      -4.873   0.549  24.582  0.00  0.00    +0.006 C 
ATOM     10  C   UNL     1      -3.301  -1.170  23.602  0.00  0.00    +0.111 C 
ATOM     11  C   UNL     1      -4.064   0.495  25.889  0.00  0.00    +0.023 C 
ATOM     13  C   UNL     1      -3.357  -0.849  26.047  0.00  0.00    +0.108 C 
ATOM     18  C   UNL     1      -1.198  -1.454  25.005  0.00  0.00    +0.241 C 
ENDROOT
BRANCH   8  12
ATOM     12  C   UNL     1      -2.972   1.251  22.977  0.00  0.00    +0.020 C 
BRANCH  12  14
ATOM     14  C   UNL     1      -3.268   2.563  23.690  0.00  0.00    +0.085 C 
BRANCH  14   6
ATOM      6  N   UNL     1      -2.130   2.941  24.527  0.00  0.00    -0.299 NA
ATOM      7  N   UNL     1      -0.293   2.685  26.699  0.00  0.00    -0.327 N 
ATOM     16  C   UNL     1      -1.110   1.886  24.518  0.00  0.00    +0.103 C 
ATOM     17  C   UNL     1      -2.568   3.199  25.904  0.00  0.00    +0.103 C 
ATOM     19  C   UNL     1       0.111   2.292  25.346  0.00  0.00    +0.120 C 
ATOM     20  C   UNL     1      -1.396   3.651  26.778  0.00  0.00    +0.120 C 
BRANCH   7  23
ATOM     23  C   UNL     1       0.649   2.676  27.734  0.00  0.00    +0.030 A 
ATOM     24  C   UNL     1       0.255   2.358  29.033  0.00  0.00    +0.023 A 
ATOM     25  C   UNL     1       1.982   2.987  27.467  0.00  0.00    +0.023 A 
ATOM     26  C   UNL     1       1.193   2.349  30.065  0.00  0.00    +0.002 A 
ATOM     27  C   UNL     1       2.921   2.978  28.498  0.00  0.00    +0.002 A 
ATOM     29  C   UNL     1       2.527   2.659  29.798  0.00  0.00    +0.000 A 
ENDBRANCH   7  23
ENDBRANCH  14   6
ENDBRANCH  12  14
ENDBRANCH   8  12
BRANCH   9  15
ATOM     15  C   UNL     1      -5.571   1.902  24.437  0.00  0.00    +0.124 C 
BRANCH  15  21
ATOM      3  O   UNL     1      -6.631   1.654  26.617  0.00  0.00    -0.251 OA
ATOM     21  C   UNL     1      -6.164   2.364  25.738  0.00  0.00    +0.305 C 
BRANCH  21   2
ATOM      2  O   UNL     1      -6.108   3.718  25.812  0.00  0.00    -0.481 OA
ATOM     30  H   UNL     1      -6.982   4.109  26.023  0.00  0.00    +0.295 HD
ENDBRANCH  21   2
ENDBRANCH  15  21
ENDBRANCH   9  15
BRANCH  18  22
ATOM     22  C   UNL     1      -0.440  -1.765  23.739  0.00  0.00    +0.255 C 
BRANCH  22   4
ATOM      4  O   UNL     1       0.726  -0.978  23.763  0.00  0.00    -0.374 OA
ATOM     28  C   UNL     1       0.882  -0.215  22.569  0.00  0.00    +0.194 C 
ENDBRANCH  22   4
ENDBRANCH  18  22
TORSDOF 9
ENDMDL
MODEL 5
REMARK VINA RESULT:       1.9      1.315      4.481
REMARK  Name = 28959856
REMARK  10 active torsions:
REMARK  status: ('A' for Active; 'I' for Inactive)
REMARK    1  A    between atoms: O_2  and  C_21
REMARK    2  A    between atoms: O_4  and  C_22
REMARK    3  A    between atoms: O_4  and  C_28
REMARK    4  A    between atoms: N_6  and  C_14
REMARK    5  A    between atoms: N_7  and  C_23
REMARK    6  A    between atoms: C_8  and  C_12
REMARK    7  A    between atoms: C_9  and  C_15
REMARK    8  A    between atoms: C_12  and  C_14
REMARK    9  A    between atoms: C_15  and  C_21
REMARK   10  A    between atoms: C_18  and  C_22
REMARK                            x       y       z     vdW  Elec       q    Type
REMARK                         _______ _______ _______ _____ _____    ______ ____
ROOT
ATOM      1  O   UNL     1      -0.529  -2.035  25.421  0.00  0.00    -0.273 OA
ATOM      5  N   UNL     1      -2.452  -0.732  25.394  0.00  0.00    -0.299 N 
ATOM      8  C   UNL     1      -3.951   0.928  24.313  0.00  0.00    +0.011 C 
ATOM      9  C   UNL     1      -3.407   2.001  25.291  0.00  0.00    +0.006 C 
ATOM     10  C   UNL     1      -3.825  -0.468  24.947  0.00  0.00    +0.111 C 
ATOM     11  C   UNL     1      -1.987   1.659  25.772  0.00  0.00    +0.023 C 
ATOM     13  C   UNL     1      -1.921   0.245  26.344  0.00  0.00    +0.108 C 
ATOM     18  C   UNL     1      -1.672  -1.822  25.010  0.00  0.00    +0.241 C 
ENDROOT
BRANCH   8  12
ATOM     12  C   UNL     1      -3.282   0.948  22.932  0.00  0.00    +0.020 C 
BRANCH  12  14
ATOM     14  C   UNL     1      -2.128   1.940  22.903  0.00  0.00    +0.085 C 
BRANCH  14   6
ATOM      6  N   UNL     1      -0.903   1.290  23.366  0.00  0.00    -0.299 NA
ATOM      7  N   UNL     1       1.868   0.603  23.302  0.00  0.00    -0.327 N 
ATOM     16  C   UNL     1       0.120   2.292  23.693  0.00  0.00    +0.103 C 
ATOM     17  C   UNL     1      -0.390   0.368  22.346  0.00  0.00    +0.103 C 
ATOM     19  C   UNL     1       1.389   1.628  24.233  0.00  0.00    +0.120 C 
ATOM     20  C   UNL     1       0.861  -0.361  22.841  0.00  0.00    +0.120 C 
BRANCH   7  23
ATOM     23  C   UNL     1       3.202   0.181  23.362  0.00  0.00    +0.030 A 
ATOM     24  C   UNL     1       4.230   1.072  23.055  0.00  0.00    +0.023 A 
ATOM     25  C   UNL     1       3.503  -1.131  23.728  0.00  0.00    +0.023 A 
ATOM     26  C   UNL     1       5.558   0.651  23.114  0.00  0.00    +0.002 A 
ATOM     27  C   UNL     1       4.831  -1.552  23.788  0.00  0.00    +0.002 A 
ATOM     29  C   UNL     1       5.860  -0.661  23.481  0.00  0.00    +0.000 A 
ENDBRANCH   7  23
ENDBRANCH  14   6
ENDBRANCH  12  14
ENDBRANCH   8  12
BRANCH   9  15
ATOM     15  C   UNL     1      -3.454   3.417  24.716  0.00  0.00    +0.124 C 
BRANCH  15  21
ATOM      3  O   UNL     1      -3.148   4.683  26.776  0.00  0.00    -0.251 OA
ATOM     21  C   UNL     1      -2.803   4.411  25.636  0.00  0.00    +0.305 C 
BRANCH  21   2
ATOM      2  O   UNL     1      -1.743   4.986  25.012  0.00  0.00    -0.481 OA
ATOM     30  H   UNL     1      -1.787   5.965  25.043  0.00  0.00    +0.295 HD
ENDBRANCH  21   2
ENDBRANCH  15  21
ENDBRANCH   9  15
BRANCH  18  22
ATOM     22  C   UNL     1      -2.291  -2.782  24.026  0.00  0.00    +0.255 C 
BRANCH  22   4
ATOM      4  O   UNL     1      -3.516  -3.195  24.582  0.00  0.00    -0.374 OA
ATOM     28  C   UNL     1      -4.594  -3.072  23.656  0.00  0.00    +0.194 C 
ENDBRANCH  22   4
ENDBRANCH  18  22
TORSDOF 9
ENDMDL
MODEL 6
REMARK VINA RESULT:       2.1      1.379      4.164
REMARK  Name = 28959856
REMARK  10 active torsions:
REMARK  status: ('A' for Active; 'I' for Inactive)
REMARK    1  A    between atoms: O_2  and  C_21
REMARK    2  A    between atoms: O_4  and  C_22
REMARK    3  A    between atoms: O_4  and  C_28
REMARK    4  A    between atoms: N_6  and  C_14
REMARK    5  A    between atoms: N_7  and  C_23
REMARK    6  A    between atoms: C_8  and  C_12
REMARK    7  A    between atoms: C_9  and  C_15
REMARK    8  A    between atoms: C_12  and  C_14
REMARK    9  A    between atoms: C_15  and  C_21
REMARK   10  A    between atoms: C_18  and  C_22
REMARK                            x       y       z     vdW  Elec       q    Type
REMARK                         _______ _______ _______ _____ _____    ______ ____
ROOT
ATOM      1  O   UNL     1      -3.581  -2.759  25.945  0.00  0.00    -0.273 OA
ATOM      5  N   UNL     1      -4.000  -1.085  24.390  0.00  0.00    -0.299 N 
ATOM      8  C   UNL     1      -3.564   1.166  23.433  0.00  0.00    +0.011 C 
ATOM      9  C   UNL     1      -4.865   1.666  24.112  0.00  0.00    +0.006 C 
ATOM     10  C   UNL     1      -3.661  -0.346  23.167  0.00  0.00    +0.111 C 
ATOM     11  C   UNL     1      -5.208   0.833  25.358  0.00  0.00    +0.023 C 
ATOM     13  C   UNL     1      -5.240  -0.659  25.037  0.00  0.00    +0.108 C 
ATOM     18  C   UNL     1      -3.261  -2.137  24.930  0.00  0.00    +0.241 C 
ENDROOT
BRANCH   8  12
ATOM     12  C   UNL     1      -2.288   1.487  24.222  0.00  0.00    +0.020 C 
BRANCH  12  14
ATOM     14  C   UNL     1      -1.495   2.596  23.544  0.00  0.00    +0.085 C 
BRANCH  14   6
ATOM      6  N   UNL     1      -0.189   2.089  23.125  0.00  0.00    -0.299 NA
ATOM      7  N   UNL     1       2.267   0.660  23.411  0.00  0.00    -0.327 N 
ATOM     16  C   UNL     1      -0.180   0.621  23.133  0.00  0.00    +0.103 C 
ATOM     17  C   UNL     1       0.868   2.600  24.005  0.00  0.00    +0.103 C 
ATOM     19  C   UNL     1       1.164   0.076  22.642  0.00  0.00    +0.120 C 
ATOM     20  C   UNL     1       2.247   2.122  23.542  0.00  0.00    +0.120 C 
BRANCH   7  23
ATOM     23  C   UNL     1       3.508   0.014  23.442  0.00  0.00    +0.030 A 
ATOM     24  C   UNL     1       3.583  -1.339  23.775  0.00  0.00    +0.023 A 
ATOM     25  C   UNL     1       4.671   0.723  23.141  0.00  0.00    +0.023 A 
ATOM     26  C   UNL     1       4.820  -1.982  23.806  0.00  0.00    +0.002 A 
ATOM     27  C   UNL     1       5.908   0.080  23.173  0.00  0.00    +0.002 A 
ATOM     29  C   UNL     1       5.983  -1.273  23.505  0.00  0.00    +0.000 A 
ENDBRANCH   7  23
ENDBRANCH  14   6
ENDBRANCH  12  14
ENDBRANCH   8  12
BRANCH   9  15
ATOM     15  C   UNL     1      -4.832   3.156  24.452  0.00  0.00    +0.124 C 
BRANCH  15  21
ATOM      3  O   UNL     1      -3.755   3.778  26.548  0.00  0.00    -0.251 OA
ATOM     21  C   UNL     1      -4.735   3.384  25.935  0.00  0.00    +0.305 C 
BRANCH  21   2
ATOM      2  O   UNL     1      -5.922   3.087  26.521  0.00  0.00    -0.481 OA
ATOM     30  H   UNL     1      -6.370   2.333  26.082  0.00  0.00    +0.295 HD
ENDBRANCH  21   2
ENDBRANCH  15  21
ENDBRANCH   9  15
BRANCH  18  22
ATOM     22  C   UNL     1      -1.993  -2.513  24.205  0.00  0.00    +0.255 C 
BRANCH  22   4
ATOM      4  O   UNL     1      -0.982  -2.599  25.180  0.00  0.00    -0.374 OA
ATOM     28  C   UNL     1      -0.574  -1.313  25.643  0.00  0.00    +0.194 C 
ENDBRANCH  22   4
ENDBRANCH  18  22
TORSDOF 9
ENDMDL
MODEL 7
REMARK VINA RESULT:       2.8      2.270      3.382
REMARK  Name = 28959856
REMARK  10 active torsions:
REMARK  status: ('A' for Active; 'I' for Inactive)
REMARK    1  A    between atoms: O_2  and  C_21
REMARK    2  A    between atoms: O_4  and  C_22
REMARK    3  A    between atoms: O_4  and  C_28
REMARK    4  A    between atoms: N_6  and  C_14
REMARK    5  A    between atoms: N_7  and  C_23
REMARK    6  A    between atoms: C_8  and  C_12
REMARK    7  A    between atoms: C_9  and  C_15
REMARK    8  A    between atoms: C_12  and  C_14
REMARK    9  A    between atoms: C_15  and  C_21
REMARK   10  A    between atoms: C_18  and  C_22
REMARK                            x       y       z     vdW  Elec       q    Type
REMARK                         _______ _______ _______ _____ _____    ______ ____
ROOT
ATOM      1  O   UNL     1      -0.061   4.566  23.523  0.00  0.00    -0.273 OA
ATOM      5  N   UNL     1      -1.996   4.137  24.734  0.00  0.00    -0.299 N 
ATOM      8  C   UNL     1      -3.581   2.575  25.838  0.00  0.00    +0.011 C 
ATOM      9  C   UNL     1      -4.542   2.759  24.635  0.00  0.00    +0.006 C 
ATOM     10  C   UNL     1      -2.689   3.820  25.989  0.00  0.00    +0.111 C 
ATOM     11  C   UNL     1      -3.779   3.139  23.356  0.00  0.00    +0.023 C 
ATOM     13  C   UNL     1      -2.878   4.349  23.586  0.00  0.00    +0.108 C 
ATOM     18  C   UNL     1      -0.617   4.272  24.584  0.00  0.00    +0.241 C 
ENDROOT
BRANCH   8  12
ATOM     12  C   UNL     1      -2.719   1.309  25.757  0.00  0.00    +0.020 C 
BRANCH  12  14
ATOM     14  C   UNL     1      -2.941   0.584  24.437  0.00  0.00    +0.085 C 
BRANCH  14   6
ATOM      6  N   UNL     1      -1.660   0.121  23.903  0.00  0.00    -0.299 NA
ATOM      7  N   UNL     1       1.185   0.006  23.686  0.00  0.00    -0.327 N 
ATOM     16  C   UNL     1      -0.859  -0.510  24.958  0.00  0.00    +0.103 C 
ATOM     17  C   UNL     1      -0.915   1.239  23.312  0.00  0.00    +0.103 C 
ATOM     19  C   UNL     1       0.461  -1.049  24.401  0.00  0.00    +0.120 C 
ATOM     20  C   UNL     1       0.402   0.759  22.698  0.00  0.00    +0.120 C 
BRANCH   7  23
ATOM     23  C   UNL     1       2.562  -0.120  23.474  0.00  0.00    +0.030 A 
ATOM     24  C   UNL     1       3.275   0.920  22.877  0.00  0.00    +0.023 A 
ATOM     25  C   UNL     1       3.224  -1.286  23.860  0.00  0.00    +0.023 A 
ATOM     26  C   UNL     1       4.647   0.794  22.666  0.00  0.00    +0.002 A 
ATOM     27  C   UNL     1       4.597  -1.411  23.649  0.00  0.00    +0.002 A 
ATOM     29  C   UNL     1       5.310  -0.371  23.052  0.00  0.00    +0.000 A 
ENDBRANCH   7  23
ENDBRANCH  14   6
ENDBRANCH  12  14
ENDBRANCH   8  12
BRANCH   9  15
ATOM     15  C   UNL     1      -5.436   1.542  24.388  0.00  0.00    +0.124 C 
BRANCH  15  21
ATOM      3  O   UNL     1      -6.710   1.472  26.465  0.00  0.00    -0.251 OA
ATOM     21  C   UNL     1      -6.668   1.576  25.248  0.00  0.00    +0.305 C 
BRANCH  21   2
ATOM      2  O   UNL     1      -7.766   1.744  24.467  0.00  0.00    -0.481 OA
ATOM     30  H   UNL     1      -8.306   2.510  24.755  0.00  0.00    +0.295 HD
ENDBRANCH  21   2
ENDBRANCH  15  21
ENDBRANCH   9  15
BRANCH  18  22
ATOM     22  C   UNL     1       0.222   4.035  25.814  0.00  0.00    +0.255 C 
BRANCH  22   4
ATOM      4  O   UNL     1       0.412   2.644  25.911  0.00  0.00    -0.374 OA
ATOM     28  C   UNL     1       0.441   2.200  27.266  0.00  0.00    +0.194 C 
ENDBRANCH  22   4
ENDBRANCH  18  22
TORSDOF 9
ENDMDL
MODEL 8
REMARK VINA RESULT:       2.9      1.706      4.612
REMARK  Name = 28959856
REMARK  10 active torsions:
REMARK  status: ('A' for Active; 'I' for Inactive)
REMARK    1  A    between atoms: O_2  and  C_21
REMARK    2  A    between atoms: O_4  and  C_22
REMARK    3  A    between atoms: O_4  and  C_28
REMARK    4  A    between atoms: N_6  and  C_14
REMARK    5  A    between atoms: N_7  and  C_23
REMARK    6  A    between atoms: C_8  and  C_12
REMARK    7  A    between atoms: C_9  and  C_15
REMARK    8  A    between atoms: C_12  and  C_14
REMARK    9  A    between atoms: C_15  and  C_21
REMARK   10  A    between atoms: C_18  and  C_22
REMARK                            x       y       z     vdW  Elec       q    Type
REMARK                         _______ _______ _______ _____ _____    ______ ____
ROOT
ATOM      1  O   UNL     1      -3.459  -2.013  25.566  0.00  0.00    -0.273 OA
ATOM      5  N   UNL     1      -3.941   0.076  24.673  0.00  0.00    -0.299 N 
ATOM      8  C   UNL     1      -4.110   2.548  24.864  0.00  0.00    +0.011 C 
ATOM      9  C   UNL     1      -5.648   2.397  24.978  0.00  0.00    +0.006 C 
ATOM     10  C   UNL     1      -3.525   1.356  24.086  0.00  0.00    +0.111 C 
ATOM     11  C   UNL     1      -6.041   1.025  25.549  0.00  0.00    +0.023 C 
ATOM     13  C   UNL     1      -5.389  -0.110  24.764  0.00  0.00    +0.108 C 
ATOM     18  C   UNL     1      -3.083  -0.935  25.100  0.00  0.00    +0.241 C 
ENDROOT
BRANCH   8  12
ATOM     12  C   UNL     1      -3.398   2.703  26.214  0.00  0.00    +0.020 C 
BRANCH  12  14
ATOM     14  C   UNL     1      -2.475   3.915  26.204  0.00  0.00    +0.085 C 
BRANCH  14   6
ATOM      6  N   UNL     1      -1.194   3.559  25.595  0.00  0.00    -0.299 NA
ATOM      7  N   UNL     1       0.610   1.960  24.064  0.00  0.00    -0.327 N 
ATOM     16  C   UNL     1      -1.319   3.488  24.134  0.00  0.00    +0.103 C 
ATOM     17  C   UNL     1      -0.715   2.273  26.117  0.00  0.00    +0.103 C 
ATOM     19  C   UNL     1       0.028   3.172  23.480  0.00  0.00    +0.120 C 
ATOM     20  C   UNL     1       0.652   1.917  25.531  0.00  0.00    +0.120 C 
BRANCH   7  23
ATOM     23  C   UNL     1       1.587   1.250  23.357  0.00  0.00    +0.030 A 
ATOM     24  C   UNL     1       2.914   1.679  23.380  0.00  0.00    +0.023 A 
ATOM     25  C   UNL     1       1.235   0.113  22.629  0.00  0.00    +0.023 A 
ATOM     26  C   UNL     1       3.888   0.971  22.676  0.00  0.00    +0.002 A 
ATOM     27  C   UNL     1       2.209  -0.594  21.925  0.00  0.00    +0.002 A 
ATOM     29  C   UNL     1       3.536  -0.166  21.948  0.00  0.00    +0.000 A 
ENDBRANCH   7  23
ENDBRANCH  14   6
ENDBRANCH  12  14
ENDBRANCH   8  12
BRANCH   9  15
ATOM     15  C   UNL     1      -6.305   3.522  25.779  0.00  0.00    +0.124 C 
BRANCH  15  21
ATOM      3  O   UNL     1      -5.023   5.118  24.455  0.00  0.00    -0.251 OA
ATOM     21  C   UNL     1      -5.914   4.876  25.256  0.00  0.00    +0.305 C 
BRANCH  21   2
ATOM      2  O   UNL     1      -6.710   5.827  25.807  0.00  0.00    -0.481 OA
ATOM     30  H   UNL     1      -6.261   6.302  26.538  0.00  0.00    +0.295 HD
ENDBRANCH  21   2
ENDBRANCH  15  21
ENDBRANCH   9  15
BRANCH  18  22
ATOM     22  C   UNL     1      -1.605  -0.664  24.975  0.00  0.00    +0.255 C 
BRANCH  22   4
ATOM      4  O   UNL     1      -1.018  -1.845  24.483  0.00  0.00    -0.374 OA
ATOM     28  C   UNL     1      -0.008  -2.346  25.356  0.00  0.00    +0.194 C 
ENDBRANCH  22   4
ENDBRANCH  18  22
TORSDOF 9
ENDMDL
