MODEL 1
REMARK VINA RESULT:      -4.5      0.000      0.000
REMARK  Name = 11867546
REMARK  9 active torsions:
REMARK  status: ('A' for Active; 'I' for Inactive)
REMARK    1  A    between atoms: O_3  and  C_17
REMARK    2  A    between atoms: O_3  and  C_21
REMARK    3  A    between atoms: N_4  and  C_12
REMARK    4  A    between atoms: N_4  and  C_16
REMARK    5  A    between atoms: N_5  and  C_13
REMARK    6  A    between atoms: N_9  and  C_27
REMARK    7  A    between atoms: N_9  and  C_30
REMARK    8  A    between atoms: N_9  and  C_31
REMARK    9  A    between atoms: C_16  and  C_18
REMARK                            x       y       z     vdW  Elec       q    Type
REMARK                         _______ _______ _______ _____ _____    ______ ____
ROOT
ATOM      1  O   UNL     1      -1.103   1.443  25.606  0.00  0.00    -0.370 OA
ATOM      2  O   UNL     1       0.258  -1.232  24.196  0.00  0.00    -0.370 OA
ATOM     10  C   UNL     1      -0.158   0.103  23.887  0.00  0.00    +0.168 C 
ATOM     11  C   UNL     1      -1.423   0.395  24.679  0.00  0.00    +0.175 C 
ATOM     12  C   UNL     1       0.864   1.109  24.395  0.00  0.00    +0.111 C 
ATOM     13  C   UNL     1      -1.747  -0.888  25.422  0.00  0.00    +0.171 C 
ATOM     14  C   UNL     1       0.008   2.161  25.063  0.00  0.00    +0.181 C 
ATOM     15  C   UNL     1      -0.438  -1.666  25.372  0.00  0.00    +0.190 C 
ENDROOT
BRANCH  13   5
ATOM      5  N   UNL     1      -2.881  -1.616  24.843  0.00  0.00    -0.187 N 
ATOM      6  N   UNL     1      -3.117  -2.890  25.169  0.00  0.00    -0.041 NA
ATOM      7  N   UNL     1      -4.640  -2.163  23.714  0.00  0.00    -0.071 NA
ATOM      8  N   UNL     1      -4.197  -3.222  24.474  0.00  0.00    -0.020 NA
ATOM     17  C   UNL     1      -3.808  -1.178  23.960  0.00  0.00    +0.342 A 
BRANCH  17   3
ATOM      3  O   UNL     1      -3.849   0.037  23.444  0.00  0.00    -0.423 OA
BRANCH   3  21
ATOM     21  C   UNL     1      -4.251   1.146  24.175  0.00  0.00    +0.134 A 
ATOM     25  C   UNL     1      -3.574   2.340  24.009  0.00  0.00    +0.069 A 
ATOM     26  C   UNL     1      -5.317   1.026  25.045  0.00  0.00    +0.046 A 
ATOM     27  C   UNL     1      -3.979   3.455  24.743  0.00  0.00    +0.033 A 
ATOM     28  C   UNL     1      -5.721   2.141  25.779  0.00  0.00    +0.005 A 
ATOM     29  C   UNL     1      -5.053   3.355  25.627  0.00  0.00    +0.023 A 
BRANCH  27   9
ATOM      9  N   UNL     1      -3.303   4.683  24.589  0.00  0.00    -0.336 N 
ATOM     30  C   UNL     1      -3.747   5.647  23.602  0.00  0.00    +0.129 C 
ATOM     31  C   UNL     1      -2.147   4.991  25.406  0.00  0.00    +0.129 C 
ENDBRANCH  27   9
ENDBRANCH   3  21
ENDBRANCH  17   3
ENDBRANCH  13   5
BRANCH  12   4
ATOM      4  N   UNL     1       1.686   1.654  23.351  0.00  0.00    -0.305 NA
ATOM     32  H   UNL     1       2.442   2.202  23.761  0.00  0.00    +0.123 HD
BRANCH   4  16
ATOM     16  C   UNL     1       2.238   0.593  22.523  0.00  0.00    +0.116 C 
BRANCH  16  18
ATOM     18  C   UNL     1       3.547   0.084  23.064  0.00  0.00    -0.034 A 
ATOM     19  C   UNL     1       4.648   0.927  23.095  0.00  0.00    +0.005 A 
ATOM     20  C   UNL     1       3.635  -1.223  23.526  0.00  0.00    +0.005 A 
ATOM     22  C   UNL     1       5.862   0.456  23.597  0.00  0.00    +0.000 A 
ATOM     23  C   UNL     1       4.848  -1.694  24.027  0.00  0.00    +0.000 A 
ATOM     24  C   UNL     1       5.962  -0.856  24.062  0.00  0.00    +0.000 A 
ENDBRANCH  16  18
ENDBRANCH   4  16
ENDBRANCH  12   4
TORSDOF 7
ENDMDL
MODEL 2
REMARK VINA RESULT:      -3.4      1.851      4.248
REMARK  Name = 11867546
REMARK  9 active torsions:
REMARK  status: ('A' for Active; 'I' for Inactive)
REMARK    1  A    between atoms: O_3  and  C_17
REMARK    2  A    between atoms: O_3  and  C_21
REMARK    3  A    between atoms: N_4  and  C_12
REMARK    4  A    between atoms: N_4  and  C_16
REMARK    5  A    between atoms: N_5  and  C_13
REMARK    6  A    between atoms: N_9  and  C_27
REMARK    7  A    between atoms: N_9  and  C_30
REMARK    8  A    between atoms: N_9  and  C_31
REMARK    9  A    between atoms: C_16  and  C_18
REMARK                            x       y       z     vdW  Elec       q    Type
REMARK                         _______ _______ _______ _____ _____    ______ ____
ROOT
ATOM      1  O   UNL     1      -2.107   2.045  22.586  0.00  0.00    -0.370 OA
ATOM      2  O   UNL     1      -1.398   3.270  25.586  0.00  0.00    -0.370 OA
ATOM     10  C   UNL     1      -1.250   2.081  24.802  0.00  0.00    +0.168 C 
ATOM     11  C   UNL     1      -2.505   1.915  23.959  0.00  0.00    +0.175 C 
ATOM     12  C   UNL     1      -0.121   2.244  23.797  0.00  0.00    +0.111 C 
ATOM     13  C   UNL     1      -3.420   3.060  24.356  0.00  0.00    +0.171 C 
ATOM     14  C   UNL     1      -0.720   1.706  22.516  0.00  0.00    +0.181 C 
ATOM     15  C   UNL     1      -2.479   4.041  25.045  0.00  0.00    +0.190 C 
ENDROOT
BRANCH  13   5
ATOM      5  N   UNL     1      -4.540   2.634  25.202  0.00  0.00    -0.187 N 
ATOM      6  N   UNL     1      -4.926   3.368  26.250  0.00  0.00    -0.041 NA
ATOM      7  N   UNL     1      -6.197   1.547  26.062  0.00  0.00    -0.071 NA
ATOM      8  N   UNL     1      -5.944   2.697  26.774  0.00  0.00    -0.020 NA
ATOM     17  C   UNL     1      -5.314   1.529  25.091  0.00  0.00    +0.342 A 
BRANCH  17   3
ATOM      3  O   UNL     1      -5.185   0.604  24.158  0.00  0.00    -0.423 OA
BRANCH   3  21
ATOM     21  C   UNL     1      -4.382  -0.517  24.323  0.00  0.00    +0.134 A 
ATOM     25  C   UNL     1      -3.155  -0.378  24.943  0.00  0.00    +0.069 A 
ATOM     26  C   UNL     1      -4.835  -1.739  23.864  0.00  0.00    +0.046 A 
ATOM     27  C   UNL     1      -2.350  -1.505  25.109  0.00  0.00    +0.033 A 
ATOM     28  C   UNL     1      -4.029  -2.865  24.031  0.00  0.00    +0.005 A 
ATOM     29  C   UNL     1      -2.787  -2.748  24.654  0.00  0.00    +0.023 A 
BRANCH  27   9
ATOM      9  N   UNL     1      -1.094  -1.387  25.740  0.00  0.00    -0.336 N 
ATOM     30  C   UNL     1      -0.909  -0.463  26.842  0.00  0.00    +0.129 C 
ATOM     31  C   UNL     1       0.033  -2.176  25.284  0.00  0.00    +0.129 C 
ENDBRANCH  27   9
ENDBRANCH   3  21
ENDBRANCH  17   3
ENDBRANCH  13   5
BRANCH  12   4
ATOM      4  N   UNL     1       1.077   1.548  24.175  0.00  0.00    -0.305 NA
ATOM     32  H   UNL     1       0.918   1.040  25.044  0.00  0.00    +0.123 HD
BRANCH   4  16
ATOM     16  C   UNL     1       1.486   0.622  23.131  0.00  0.00    +0.116 C 
BRANCH  16  18
ATOM     18  C   UNL     1       2.922   0.198  23.289  0.00  0.00    -0.034 A 
ATOM     19  C   UNL     1       3.212  -1.109  23.653  0.00  0.00    +0.005 A 
ATOM     20  C   UNL     1       3.937   1.119  23.067  0.00  0.00    +0.005 A 
ATOM     22  C   UNL     1       4.541  -1.504  23.799  0.00  0.00    +0.000 A 
ATOM     23  C   UNL     1       5.266   0.725  23.215  0.00  0.00    +0.000 A 
ATOM     24  C   UNL     1       5.569  -0.586  23.581  0.00  0.00    +0.000 A 
ENDBRANCH  16  18
ENDBRANCH   4  16
ENDBRANCH  12   4
TORSDOF 7
ENDMDL
MODEL 3
REMARK VINA RESULT:      -2.3      1.471      6.321
REMARK  Name = 11867546
REMARK  9 active torsions:
REMARK  status: ('A' for Active; 'I' for Inactive)
REMARK    1  A    between atoms: O_3  and  C_17
REMARK    2  A    between atoms: O_3  and  C_21
REMARK    3  A    between atoms: N_4  and  C_12
REMARK    4  A    between atoms: N_4  and  C_16
REMARK    5  A    between atoms: N_5  and  C_13
REMARK    6  A    between atoms: N_9  and  C_27
REMARK    7  A    between atoms: N_9  and  C_30
REMARK    8  A    between atoms: N_9  and  C_31
REMARK    9  A    between atoms: C_16  and  C_18
REMARK                            x       y       z     vdW  Elec       q    Type
REMARK                         _______ _______ _______ _____ _____    ______ ____
ROOT
ATOM      1  O   UNL     1      -3.221   1.769  22.774  0.00  0.00    -0.370 OA
ATOM      2  O   UNL     1      -4.986   0.602  25.328  0.00  0.00    -0.370 OA
ATOM     10  C   UNL     1      -3.995   1.587  25.013  0.00  0.00    +0.168 C 
ATOM     11  C   UNL     1      -3.059   0.994  23.971  0.00  0.00    +0.175 C 
ATOM     12  C   UNL     1      -4.635   2.785  24.329  0.00  0.00    +0.111 C 
ATOM     13  C   UNL     1      -3.540  -0.429  23.750  0.00  0.00    +0.171 C 
ATOM     14  C   UNL     1      -3.704   3.056  23.168  0.00  0.00    +0.181 C 
ATOM     15  C   UNL     1      -4.953  -0.416  24.320  0.00  0.00    +0.190 C 
ENDROOT
BRANCH  13   5
ATOM      5  N   UNL     1      -2.669  -1.432  24.371  0.00  0.00    -0.187 N 
ATOM      6  N   UNL     1      -3.149  -2.625  24.735  0.00  0.00    -0.041 NA
ATOM      7  N   UNL     1      -0.977  -2.479  25.212  0.00  0.00    -0.071 NA
ATOM      8  N   UNL     1      -2.106  -3.265  25.251  0.00  0.00    -0.020 NA
ATOM     17  C   UNL     1      -1.350  -1.347  24.662  0.00  0.00    +0.342 A 
BRANCH  17   3
ATOM      3  O   UNL     1      -0.588  -0.296  24.426  0.00  0.00    -0.423 OA
BRANCH   3  21
ATOM     21  C   UNL     1       0.420  -0.302  23.472  0.00  0.00    +0.134 A 
ATOM     25  C   UNL     1       1.737  -0.265  23.887  0.00  0.00    +0.069 A 
ATOM     26  C   UNL     1       0.076  -0.347  22.134  0.00  0.00    +0.046 A 
ATOM     27  C   UNL     1       2.750  -0.273  22.927  0.00  0.00    +0.033 A 
ATOM     28  C   UNL     1       1.089  -0.355  21.175  0.00  0.00    +0.005 A 
ATOM     29  C   UNL     1       2.425  -0.318  21.572  0.00  0.00    +0.023 A 
BRANCH  27   9
ATOM      9  N   UNL     1       4.101  -0.235  23.328  0.00  0.00    -0.336 N 
ATOM     30  C   UNL     1       4.897   0.958  23.118  0.00  0.00    +0.129 C 
ATOM     31  C   UNL     1       4.717  -1.394  23.942  0.00  0.00    +0.129 C 
ENDBRANCH  27   9
ENDBRANCH   3  21
ENDBRANCH  17   3
ENDBRANCH  13   5
BRANCH  12   4
ATOM      4  N   UNL     1      -4.775   3.922  25.195  0.00  0.00    -0.305 NA
ATOM     32  H   UNL     1      -5.731   3.971  25.545  0.00  0.00    +0.123 HD
BRANCH   4  16
ATOM     16  C   UNL     1      -3.845   3.837  26.310  0.00  0.00    +0.116 C 
BRANCH  16  18
ATOM     18  C   UNL     1      -2.414   3.955  25.858  0.00  0.00    -0.034 A 
ATOM     19  C   UNL     1      -2.012   5.079  25.152  0.00  0.00    +0.005 A 
ATOM     20  C   UNL     1      -1.516   2.939  26.155  0.00  0.00    +0.005 A 
ATOM     22  C   UNL     1      -0.686   5.190  24.733  0.00  0.00    +0.000 A 
ATOM     23  C   UNL     1      -0.191   3.049  25.736  0.00  0.00    +0.000 A 
ATOM     24  C   UNL     1       0.225   4.174  25.025  0.00  0.00    +0.000 A 
ENDBRANCH  16  18
ENDBRANCH   4  16
ENDBRANCH  12   4
TORSDOF 7
ENDMDL
MODEL 4
REMARK VINA RESULT:      -2.0      2.063      3.574
REMARK  Name = 11867546
REMARK  9 active torsions:
REMARK  status: ('A' for Active; 'I' for Inactive)
REMARK    1  A    between atoms: O_3  and  C_17
REMARK    2  A    between atoms: O_3  and  C_21
REMARK    3  A    between atoms: N_4  and  C_12
REMARK    4  A    between atoms: N_4  and  C_16
REMARK    5  A    between atoms: N_5  and  C_13
REMARK    6  A    between atoms: N_9  and  C_27
REMARK    7  A    between atoms: N_9  and  C_30
REMARK    8  A    between atoms: N_9  and  C_31
REMARK    9  A    between atoms: C_16  and  C_18
REMARK                            x       y       z     vdW  Elec       q    Type
REMARK                         _______ _______ _______ _____ _____    ______ ____
ROOT
ATOM      1  O   UNL     1      -2.928  -1.937  24.789  0.00  0.00    -0.370 OA
ATOM      2  O   UNL     1      -2.260   1.017  23.439  0.00  0.00    -0.370 OA
ATOM     10  C   UNL     1      -1.817   0.140  24.481  0.00  0.00    +0.168 C 
ATOM     11  C   UNL     1      -3.042  -0.536  25.077  0.00  0.00    +0.175 C 
ATOM     12  C   UNL     1      -0.985  -0.994  23.904  0.00  0.00    +0.111 C 
ATOM     13  C   UNL     1      -4.234   0.059  24.348  0.00  0.00    +0.171 C 
ATOM     14  C   UNL     1      -1.538  -2.216  24.602  0.00  0.00    +0.181 C 
ATOM     15  C   UNL     1      -3.612   0.680  23.103  0.00  0.00    +0.190 C 
ENDROOT
BRANCH  13   5
ATOM      5  N   UNL     1      -4.988   1.015  25.164  0.00  0.00    -0.187 N 
ATOM      6  N   UNL     1      -5.796   0.594  26.142  0.00  0.00    -0.041 NA
ATOM      7  N   UNL     1      -5.822   2.819  26.012  0.00  0.00    -0.071 NA
ATOM      8  N   UNL     1      -6.305   1.705  26.660  0.00  0.00    -0.020 NA
ATOM     17  C   UNL     1      -5.006   2.366  25.088  0.00  0.00    +0.342 A 
BRANCH  17   3
ATOM      3  O   UNL     1      -4.315   3.086  24.224  0.00  0.00    -0.423 OA
BRANCH   3  21
ATOM     21  C   UNL     1      -3.138   3.737  24.565  0.00  0.00    +0.134 A 
ATOM     25  C   UNL     1      -2.048   2.987  24.965  0.00  0.00    +0.069 A 
ATOM     26  C   UNL     1      -3.089   5.116  24.493  0.00  0.00    +0.046 A 
ATOM     27  C   UNL     1      -0.865   3.642  25.307  0.00  0.00    +0.033 A 
ATOM     28  C   UNL     1      -1.905   5.770  24.835  0.00  0.00    +0.005 A 
ATOM     29  C   UNL     1      -0.793   5.032  25.241  0.00  0.00    +0.023 A 
BRANCH  27   9
ATOM      9  N   UNL     1       0.260   2.896  25.717  0.00  0.00    -0.336 N 
ATOM     30  C   UNL     1       1.138   2.291  24.736  0.00  0.00    +0.129 C 
ATOM     31  C   UNL     1       0.545   2.713  27.126  0.00  0.00    +0.129 C 
ENDBRANCH  27   9
ENDBRANCH   3  21
ENDBRANCH  17   3
ENDBRANCH  13   5
BRANCH  12   4
ATOM      4  N   UNL     1       0.425  -0.829  24.124  0.00  0.00    -0.305 NA
ATOM     32  H   UNL     1       0.818  -1.694  24.492  0.00  0.00    +0.123 HD
BRANCH   4  16
ATOM     16  C   UNL     1       1.100  -0.466  22.888  0.00  0.00    +0.116 C 
BRANCH  16  18
ATOM     18  C   UNL     1       2.588  -0.336  23.079  0.00  0.00    -0.034 A 
ATOM     19  C   UNL     1       3.235   0.811  22.644  0.00  0.00    +0.005 A 
ATOM     20  C   UNL     1       3.292  -1.365  23.690  0.00  0.00    +0.005 A 
ATOM     22  C   UNL     1       4.612   0.933  22.821  0.00  0.00    +0.000 A 
ATOM     23  C   UNL     1       4.670  -1.244  23.866  0.00  0.00    +0.000 A 
ATOM     24  C   UNL     1       5.331  -0.095  23.432  0.00  0.00    +0.000 A 
ENDBRANCH  16  18
ENDBRANCH   4  16
ENDBRANCH  12   4
TORSDOF 7
ENDMDL
MODEL 5
REMARK VINA RESULT:      -1.0      2.980      5.421
REMARK  Name = 11867546
REMARK  9 active torsions:
REMARK  status: ('A' for Active; 'I' for Inactive)
REMARK    1  A    between atoms: O_3  and  C_17
REMARK    2  A    between atoms: O_3  and  C_21
REMARK    3  A    between atoms: N_4  and  C_12
REMARK    4  A    between atoms: N_4  and  C_16
REMARK    5  A    between atoms: N_5  and  C_13
REMARK    6  A    between atoms: N_9  and  C_27
REMARK    7  A    between atoms: N_9  and  C_30
REMARK    8  A    between atoms: N_9  and  C_31
REMARK    9  A    between atoms: C_16  and  C_18
REMARK                            x       y       z     vdW  Elec       q    Type
REMARK                         _______ _______ _______ _____ _____    ______ ____
ROOT
ATOM      1  O   UNL     1      -2.124   3.164  23.377  0.00  0.00    -0.370 OA
ATOM      2  O   UNL     1      -2.564   4.277  26.470  0.00  0.00    -0.370 OA
ATOM     10  C   UNL     1      -1.828   3.295  25.731  0.00  0.00    +0.168 C 
ATOM     11  C   UNL     1      -2.727   2.775  24.620  0.00  0.00    +0.175 C 
ATOM     12  C   UNL     1      -0.652   3.941  25.014  0.00  0.00    +0.111 C 
ATOM     13  C   UNL     1      -4.059   3.479  24.806  0.00  0.00    +0.171 C 
ATOM     14  C   UNL     1      -0.728   3.347  23.625  0.00  0.00    +0.181 C 
ATOM     15  C   UNL     1      -3.711   4.662  25.702  0.00  0.00    +0.190 C 
ENDROOT
BRANCH  13   5
ATOM      5  N   UNL     1      -5.096   2.607  25.367  0.00  0.00    -0.187 N 
ATOM      6  N   UNL     1      -5.823   2.994  26.419  0.00  0.00    -0.041 NA
ATOM      7  N   UNL     1      -6.440   0.959  25.752  0.00  0.00    -0.071 NA
ATOM      8  N   UNL     1      -6.646   1.980  26.652  0.00  0.00    -0.020 NA
ATOM     17  C   UNL     1      -5.473   1.371  24.964  0.00  0.00    +0.342 A 
BRANCH  17   3
ATOM      3  O   UNL     1      -4.946   0.709  23.951  0.00  0.00    -0.423 OA
BRANCH   3  21
ATOM     21  C   UNL     1      -4.132  -0.401  24.125  0.00  0.00    +0.134 A 
ATOM     25  C   UNL     1      -2.772  -0.217  24.288  0.00  0.00    +0.069 A 
ATOM     26  C   UNL     1      -4.705  -1.658  24.134  0.00  0.00    +0.046 A 
ATOM     27  C   UNL     1      -1.954  -1.334  24.465  0.00  0.00    +0.033 A 
ATOM     28  C   UNL     1      -3.887  -2.774  24.311  0.00  0.00    +0.005 A 
ATOM     29  C   UNL     1      -2.512  -2.611  24.477  0.00  0.00    +0.023 A 
BRANCH  27   9
ATOM      9  N   UNL     1      -0.564  -1.169  24.633  0.00  0.00    -0.336 N 
ATOM     30  C   UNL     1       0.152  -0.157  23.882  0.00  0.00    +0.129 C 
ATOM     31  C   UNL     1       0.171  -2.020  25.547  0.00  0.00    +0.129 C 
ENDBRANCH  27   9
ENDBRANCH   3  21
ENDBRANCH  17   3
ENDBRANCH  13   5
BRANCH  12   4
ATOM      4  N   UNL     1       0.608   3.683  25.652  0.00  0.00    -0.305 NA
ATOM     32  H   UNL     1       0.824   4.438  26.302  0.00  0.00    +0.123 HD
BRANCH   4  16
ATOM     16  C   UNL     1       0.576   2.414  26.361  0.00  0.00    +0.116 C 
BRANCH  16  18
ATOM     18  C   UNL     1       1.137   2.536  27.753  0.00  0.00    -0.034 A 
ATOM     19  C   UNL     1       0.316   2.293  28.844  0.00  0.00    +0.005 A 
ATOM     20  C   UNL     1       2.469   2.886  27.926  0.00  0.00    +0.005 A 
ATOM     22  C   UNL     1       0.834   2.405  30.134  0.00  0.00    +0.000 A 
ATOM     23  C   UNL     1       2.988   2.999  29.216  0.00  0.00    +0.000 A 
ATOM     24  C   UNL     1       2.171   2.758  30.320  0.00  0.00    +0.000 A 
ENDBRANCH  16  18
ENDBRANCH   4  16
ENDBRANCH  12   4
TORSDOF 7
ENDMDL
MODEL 6
REMARK VINA RESULT:      -0.9      1.769      4.521
REMARK  Name = 11867546
REMARK  9 active torsions:
REMARK  status: ('A' for Active; 'I' for Inactive)
REMARK    1  A    between atoms: O_3  and  C_17
REMARK    2  A    between atoms: O_3  and  C_21
REMARK    3  A    between atoms: N_4  and  C_12
REMARK    4  A    between atoms: N_4  and  C_16
REMARK    5  A    between atoms: N_5  and  C_13
REMARK    6  A    between atoms: N_9  and  C_27
REMARK    7  A    between atoms: N_9  and  C_30
REMARK    8  A    between atoms: N_9  and  C_31
REMARK    9  A    between atoms: C_16  and  C_18
REMARK                            x       y       z     vdW  Elec       q    Type
REMARK                         _______ _______ _______ _____ _____    ______ ____
ROOT
ATOM      1  O   UNL     1      -2.046   2.074  22.373  0.00  0.00    -0.370 OA
ATOM      2  O   UNL     1      -1.226   2.697  25.525  0.00  0.00    -0.370 OA
ATOM     10  C   UNL     1      -1.461   1.606  24.627  0.00  0.00    +0.168 C 
ATOM     11  C   UNL     1      -2.596   2.001  23.696  0.00  0.00    +0.175 C 
ATOM     12  C   UNL     1      -0.260   1.399  23.717  0.00  0.00    +0.111 C 
ATOM     13  C   UNL     1      -3.046   3.376  24.158  0.00  0.00    +0.171 C 
ATOM     14  C   UNL     1      -0.889   1.233  22.351  0.00  0.00    +0.181 C 
ATOM     15  C   UNL     1      -1.877   3.863  25.006  0.00  0.00    +0.190 C 
ENDROOT
BRANCH  13   5
ATOM      5  N   UNL     1      -4.321   3.350  24.882  0.00  0.00    -0.187 N 
ATOM      6  N   UNL     1      -4.705   4.387  25.632  0.00  0.00    -0.041 NA
ATOM      7  N   UNL     1      -6.237   2.769  25.694  0.00  0.00    -0.071 NA
ATOM      8  N   UNL     1      -5.882   4.026  26.129  0.00  0.00    -0.020 NA
ATOM     17  C   UNL     1      -5.253   2.370  24.922  0.00  0.00    +0.342 A 
BRANCH  17   3
ATOM      3  O   UNL     1      -5.168   1.216  24.287  0.00  0.00    -0.423 OA
BRANCH   3  21
ATOM     21  C   UNL     1      -4.508   0.116  24.818  0.00  0.00    +0.134 A 
ATOM     25  C   UNL     1      -4.216  -0.954  23.994  0.00  0.00    +0.069 A 
ATOM     26  C   UNL     1      -4.160   0.125  26.155  0.00  0.00    +0.046 A 
ATOM     27  C   UNL     1      -3.551  -2.057  24.528  0.00  0.00    +0.033 A 
ATOM     28  C   UNL     1      -3.496  -0.979  26.689  0.00  0.00    +0.005 A 
ATOM     29  C   UNL     1      -3.191  -2.070  25.875  0.00  0.00    +0.023 A 
BRANCH  27   9
ATOM      9  N   UNL     1      -3.243  -3.161  23.706  0.00  0.00    -0.336 N 
ATOM     30  C   UNL     1      -4.302  -3.938  23.092  0.00  0.00    +0.129 C 
ATOM     31  C   UNL     1      -1.864  -3.542  23.474  0.00  0.00    +0.129 C 
ENDBRANCH  27   9
ENDBRANCH   3  21
ENDBRANCH  17   3
ENDBRANCH  13   5
BRANCH  12   4
ATOM      4  N   UNL     1       0.543   0.269  24.090  0.00  0.00    -0.305 NA
ATOM     32  H   UNL     1      -0.052  -0.461  24.480  0.00  0.00    +0.123 HD
BRANCH   4  16
ATOM     16  C   UNL     1       1.270  -0.248  22.942  0.00  0.00    +0.116 C 
BRANCH  16  18
ATOM     18  C   UNL     1       2.760  -0.210  23.157  0.00  0.00    -0.034 A 
ATOM     19  C   UNL     1       3.466   0.942  22.841  0.00  0.00    +0.005 A 
ATOM     20  C   UNL     1       3.406  -1.326  23.671  0.00  0.00    +0.005 A 
ATOM     22  C   UNL     1       4.846   0.979  23.041  0.00  0.00    +0.000 A 
ATOM     23  C   UNL     1       4.786  -1.290  23.870  0.00  0.00    +0.000 A 
ATOM     24  C   UNL     1       5.506  -0.138  23.555  0.00  0.00    +0.000 A 
ENDBRANCH  16  18
ENDBRANCH   4  16
ENDBRANCH  12   4
TORSDOF 7
ENDMDL
