MODEL 1
REMARK VINA RESULT:      11.5      0.000      0.000
REMARK  Name = 11882853
REMARK  11 active torsions:
REMARK  status: ('A' for Active; 'I' for Inactive)
REMARK    1  A    between atoms: O_2  and  C_15
REMARK    2  A    between atoms: O_3  and  C_20
REMARK    3  A    between atoms: O_6  and  C_37
REMARK    4  A    between atoms: O_6  and  C_38
REMARK    5  A    between atoms: N_8  and  C_26
REMARK    6  A    between atoms: C_10  and  C_18
REMARK    7  A    between atoms: C_12  and  C_20
REMARK    8  A    between atoms: C_12  and  C_21
REMARK    9  A    between atoms: C_13  and  C_23
REMARK   10  A    between atoms: C_23  and  C_24
REMARK   11  A    between atoms: C_31  and  C_32
REMARK                            x       y       z     vdW  Elec       q    Type
REMARK                         _______ _______ _______ _____ _____    ______ ____
ROOT
ATOM      1  S   UNL     1       0.301   2.135  25.848  0.00  0.00    -0.057 S 
ATOM      5  O   UNL     1       1.822  -0.012  22.007  0.00  0.00    -0.270 OA
ATOM      7  N   UNL     1      -0.380   1.274  23.506  0.00  0.00    -0.229 NA
ATOM      9  N   UNL     1       1.912   0.930  24.166  0.00  0.00    -0.261 N 
ATOM     10  C   UNL     1      -4.020   2.218  24.361  0.00  0.00    -0.019 C 
ATOM     11  C   UNL     1      -3.570   3.425  25.296  0.00  0.00    +0.011 C 
ATOM     12  C   UNL     1      -4.707   4.183  26.083  0.00  0.00    +0.021 C 
ATOM     13  C   UNL     1      -2.819   1.899  23.355  0.00  0.00    +0.054 C 
ATOM     14  C   UNL     1      -5.256   2.644  23.526  0.00  0.00    +0.010 C 
ATOM     15  C   UNL     1      -5.883   4.492  25.113  0.00  0.00    +0.123 C 
ATOM     16  C   UNL     1      -2.348   3.036  26.178  0.00  0.00    +0.049 C 
ATOM     17  C   UNL     1      -6.373   3.265  24.353  0.00  0.00    +0.032 C 
ATOM     18  C   UNL     1      -4.376   0.939  25.159  0.00  0.00    +0.012 C 
ATOM     19  C   UNL     1      -1.503   1.835  24.085  0.00  0.00    +0.058 A 
ATOM     21  C   UNL     1      -4.154   5.546  26.588  0.00  0.00    +0.016 C 
ATOM     22  C   UNL     1      -1.309   2.368  25.344  0.00  0.00    +0.015 A 
ATOM     25  C   UNL     1       0.627   1.369  24.345  0.00  0.00    +0.165 A 
ATOM     31  C   UNL     1       2.428   0.279  23.033  0.00  0.00    +0.250 C 
ATOM     42  H   UNL     1       2.529   1.153  24.941  0.00  0.00    +0.157 HD
ENDROOT
BRANCH  31  32
ATOM     32  C   UNL     1       3.874  -0.060  23.098  0.00  0.00    +0.037 A 
ATOM     33  C   UNL     1       4.828   0.876  22.700  0.00  0.00    +0.016 A 
ATOM     34  C   UNL     1       4.277  -1.314  23.555  0.00  0.00    +0.016 A 
ATOM     35  C   UNL     1       6.185   0.560  22.760  0.00  0.00    +0.046 A 
ATOM     36  C   UNL     1       5.634  -1.631  23.617  0.00  0.00    +0.046 A 
ATOM     37  C   UNL     1       6.587  -0.695  23.219  0.00  0.00    +0.120 A 
BRANCH  37   6
ATOM      6  O   UNL     1       7.912  -1.003  23.280  0.00  0.00    -0.495 OA
ATOM     38  C   UNL     1       8.837   0.075  23.138  0.00  0.00    +0.277 C 
ENDBRANCH  37   6
ENDBRANCH  31  32
BRANCH  15   2
ATOM      2  O   UNL     1      -6.983   5.062  25.822  0.00  0.00    -0.391 OA
ATOM     39  H   UNL     1      -7.431   5.681  25.222  0.00  0.00    +0.210 HD
ENDBRANCH  15   2
BRANCH  12  20
ATOM     20  C   UNL     1      -5.212   3.448  27.344  0.00  0.00    +0.165 C 
BRANCH  20   3
ATOM      3  O   UNL     1      -6.270   2.600  26.956  0.00  0.00    -0.394 OA
ATOM     40  H   UNL     1      -7.032   3.165  26.747  0.00  0.00    +0.209 HD
ENDBRANCH  20   3
ENDBRANCH  12  20
BRANCH  13  23
ATOM     23  C   UNL     1      -3.035   0.660  22.476  0.00  0.00    +0.106 C 
BRANCH  23  24
ATOM      4  O   UNL     1      -4.221  -1.186  23.496  0.00  0.00    -0.276 OA
ATOM      8  N   UNL     1      -1.924  -0.996  23.790  0.00  0.00    -0.312 N 
ATOM     24  C   UNL     1      -3.160  -0.602  23.298  0.00  0.00    +0.214 C 
ATOM     41  H   UNL     1      -1.099  -0.467  23.523  0.00  0.00    +0.149 HD
BRANCH   8  26
ATOM     26  C   UNL     1      -1.740  -2.168  24.612  0.00  0.00    +0.073 C 
ATOM     27  C   UNL     1      -0.656  -1.962  25.663  0.00  0.00    +0.022 C 
ATOM     28  C   UNL     1      -2.975  -2.462  25.455  0.00  0.00    +0.022 C 
ATOM     29  C   UNL     1      -1.355  -1.245  26.817  0.00  0.00    +0.002 C 
ATOM     30  C   UNL     1      -2.849  -1.532  26.658  0.00  0.00    +0.002 C 
ENDBRANCH   8  26
ENDBRANCH  23  24
ENDBRANCH  13  23
TORSDOF 8
ENDMDL
