MODEL 1
REMARK VINA RESULT:      16.5      0.000      0.000
REMARK  Name = 11883006
REMARK  14 active torsions:
REMARK  status: ('A' for Active; 'I' for Inactive)
REMARK    1  A    between atoms: O_2  and  C_14
REMARK    2  A    between atoms: O_3  and  C_19
REMARK    3  A    between atoms: N_7  and  C_25
REMARK    4  A    between atoms: N_7  and  C_26
REMARK    5  A    between atoms: C_9  and  C_17
REMARK    6  A    between atoms: C_11  and  C_19
REMARK    7  A    between atoms: C_11  and  C_20
REMARK    8  A    between atoms: C_12  and  C_22
REMARK    9  A    between atoms: C_22  and  C_23
REMARK   10  A    between atoms: C_25  and  C_29
REMARK   11  A    between atoms: C_27  and  C_28
REMARK   12  A    between atoms: C_28  and  C_30
REMARK   13  A    between atoms: C_28  and  C_31
REMARK   14  A    between atoms: C_28  and  C_32
REMARK                            x       y       z     vdW  Elec       q    Type
REMARK                         _______ _______ _______ _____ _____    ______ ____
ROOT
ATOM      1  S   UNL     1       1.756  -1.949  23.560  0.00  0.00    -0.057 S 
ATOM      5  O   UNL     1       4.908   1.449  23.786  0.00  0.00    -0.275 OA
ATOM      6  N   UNL     1       2.093   0.598  23.858  0.00  0.00    -0.229 NA
ATOM      8  N   UNL     1       4.079  -0.735  23.563  0.00  0.00    -0.264 N 
ATOM      9  C   UNL     1      -1.741   0.989  23.746  0.00  0.00    -0.019 C 
ATOM     10  C   UNL     1      -1.985  -0.443  24.397  0.00  0.00    +0.011 C 
ATOM     11  C   UNL     1      -3.480  -0.934  24.509  0.00  0.00    +0.021 C 
ATOM     12  C   UNL     1      -0.263   1.460  24.128  0.00  0.00    +0.054 C 
ATOM     13  C   UNL     1      -2.748   2.005  24.344  0.00  0.00    +0.010 C 
ATOM     14  C   UNL     1      -4.356   0.216  25.081  0.00  0.00    +0.123 C 
ATOM     15  C   UNL     1      -1.017  -1.509  23.805  0.00  0.00    +0.049 C 
ATOM     16  C   UNL     1      -4.193   1.529  24.322  0.00  0.00    +0.032 C 
ATOM     17  C   UNL     1      -1.898   0.983  22.205  0.00  0.00    +0.012 C 
ATOM     18  C   UNL     1       0.733   0.351  23.904  0.00  0.00    +0.058 A 
ATOM     20  C   UNL     1      -3.552  -2.115  25.517  0.00  0.00    +0.016 C 
ATOM     21  C   UNL     1       0.375  -0.976  23.779  0.00  0.00    +0.015 A 
ATOM     24  C   UNL     1       2.728  -0.538  23.674  0.00  0.00    +0.165 A 
ATOM     27  C   UNL     1       5.090   0.245  23.623  0.00  0.00    +0.224 C 
ATOM     40  H   UNL     1       4.350  -1.704  23.424  0.00  0.00    +0.157 HD
ENDROOT
BRANCH  27  28
ATOM     28  C   UNL     1       6.522  -0.324  23.458  0.00  0.00    +0.039 C 
ATOM     30  C   UNL     1       6.740  -1.466  24.467  0.00  0.00    +0.020 C 
ATOM     31  C   UNL     1       7.563   0.772  23.736  0.00  0.00    +0.020 C 
ATOM     32  C   UNL     1       6.710  -0.887  22.041  0.00  0.00    +0.020 C 
ENDBRANCH  27  28
BRANCH  14   2
ATOM      2  O   UNL     1      -5.735  -0.150  25.073  0.00  0.00    -0.391 OA
ATOM     38  H   UNL     1      -6.218   0.532  24.576  0.00  0.00    +0.210 HD
ENDBRANCH  14   2
BRANCH  11  19
ATOM     19  C   UNL     1      -4.076  -1.477  23.191  0.00  0.00    +0.165 C 
BRANCH  19   3
ATOM      3  O   UNL     1      -4.710  -2.703  23.477  0.00  0.00    -0.394 OA
ATOM     39  H   UNL     1      -5.509  -2.503  23.994  0.00  0.00    +0.209 HD
ENDBRANCH  19   3
ENDBRANCH  11  19
BRANCH  12  22
ATOM     22  C   UNL     1       0.186   2.762  23.454  0.00  0.00    +0.106 C 
BRANCH  22  23
ATOM      4  O   UNL     1      -1.143   4.703  22.990  0.00  0.00    -0.276 OA
ATOM      7  N   UNL     1      -0.923   4.089  25.216  0.00  0.00    -0.300 N 
ATOM     23  C   UNL     1      -0.685   3.941  23.846  0.00  0.00    +0.216 C 
ATOM     26  C   UNL     1      -0.372   3.176  26.209  0.00  0.00    +0.132 C 
BRANCH   7  25
ATOM     25  C   UNL     1      -1.743   5.172  25.755  0.00  0.00    +0.142 C 
BRANCH  25  29
ATOM     29  C   UNL     1      -3.204   4.823  25.759  0.00  0.00    -0.030 A 
ATOM     33  C   UNL     1      -4.028   5.257  24.722  0.00  0.00    +0.005 A 
ATOM     34  C   UNL     1      -3.736   4.063  26.802  0.00  0.00    +0.005 A 
ATOM     35  C   UNL     1      -5.385   4.934  24.725  0.00  0.00    +0.000 A 
ATOM     36  C   UNL     1      -5.092   3.739  26.806  0.00  0.00    +0.000 A 
ATOM     37  C   UNL     1      -5.917   4.174  25.768  0.00  0.00    +0.000 A 
ENDBRANCH  25  29
ENDBRANCH   7  25
ENDBRANCH  22  23
ENDBRANCH  12  22
TORSDOF 8
ENDMDL
MODEL 2
REMARK VINA RESULT:      16.9      2.406      5.367
REMARK  Name = 11883006
REMARK  14 active torsions:
REMARK  status: ('A' for Active; 'I' for Inactive)
REMARK    1  A    between atoms: O_2  and  C_14
REMARK    2  A    between atoms: O_3  and  C_19
REMARK    3  A    between atoms: N_7  and  C_25
REMARK    4  A    between atoms: N_7  and  C_26
REMARK    5  A    between atoms: C_9  and  C_17
REMARK    6  A    between atoms: C_11  and  C_19
REMARK    7  A    between atoms: C_11  and  C_20
REMARK    8  A    between atoms: C_12  and  C_22
REMARK    9  A    between atoms: C_22  and  C_23
REMARK   10  A    between atoms: C_25  and  C_29
REMARK   11  A    between atoms: C_27  and  C_28
REMARK   12  A    between atoms: C_28  and  C_30
REMARK   13  A    between atoms: C_28  and  C_31
REMARK   14  A    between atoms: C_28  and  C_32
REMARK                            x       y       z     vdW  Elec       q    Type
REMARK                         _______ _______ _______ _____ _____    ______ ____
ROOT
ATOM      1  S   UNL     1       0.545   2.260  25.731  0.00  0.00    -0.057 S 
ATOM      5  O   UNL     1       1.949   0.150  21.844  0.00  0.00    -0.275 OA
ATOM      6  N   UNL     1      -0.195   1.437  23.393  0.00  0.00    -0.229 NA
ATOM      8  N   UNL     1       2.106   1.055  24.003  0.00  0.00    -0.264 N 
ATOM      9  C   UNL     1      -3.804   2.417  24.331  0.00  0.00    -0.019 C 
ATOM     10  C   UNL     1      -3.320   3.607  25.272  0.00  0.00    +0.011 C 
ATOM     11  C   UNL     1      -4.431   4.369  26.091  0.00  0.00    +0.021 C 
ATOM     12  C   UNL     1      -2.628   2.096  23.298  0.00  0.00    +0.054 C 
ATOM     13  C   UNL     1      -5.050   2.870  23.528  0.00  0.00    +0.010 C 
ATOM     14  C   UNL     1      -5.622   4.706  25.150  0.00  0.00    +0.123 C 
ATOM     15  C   UNL     1      -2.086   3.191  26.125  0.00  0.00    +0.049 C 
ATOM     16  C   UNL     1      -6.142   3.495  24.383  0.00  0.00    +0.032 C 
ATOM     17  C   UNL     1      -4.161   1.133  25.120  0.00  0.00    +0.012 C 
ATOM     18  C   UNL     1      -1.298   2.006  24.001  0.00  0.00    +0.058 A 
ATOM     20  C   UNL     1      -3.850   5.718  26.601  0.00  0.00    +0.016 C 
ATOM     21  C   UNL     1      -1.072   2.520  25.262  0.00  0.00    +0.015 A 
ATOM     24  C   UNL     1       0.830   1.508  24.213  0.00  0.00    +0.165 A 
ATOM     27  C   UNL     1       2.601   0.410  22.853  0.00  0.00    +0.224 C 
ATOM     40  H   UNL     1       2.740   1.218  24.779  0.00  0.00    +0.157 HD
ENDROOT
BRANCH  27  28
ATOM     28  C   UNL     1       4.100   0.026  22.948  0.00  0.00    +0.039 C 
ATOM     30  C   UNL     1       4.839   1.057  23.820  0.00  0.00    +0.020 C 
ATOM     31  C   UNL     1       4.737   0.028  21.550  0.00  0.00    +0.020 C 
ATOM     32  C   UNL     1       4.252  -1.358  23.598  0.00  0.00    +0.020 C 
ENDBRANCH  27  28
BRANCH  14   2
ATOM      2  O   UNL     1      -6.700   5.281  25.887  0.00  0.00    -0.391 OA
ATOM     38  H   UNL     1      -7.013   6.058  25.394  0.00  0.00    +0.210 HD
ENDBRANCH  14   2
BRANCH  11  19
ATOM     19  C   UNL     1      -4.921   3.625  27.353  0.00  0.00    +0.165 C 
BRANCH  19   3
ATOM      3  O   UNL     1      -5.987   2.786  26.973  0.00  0.00    -0.394 OA
ATOM     39  H   UNL     1      -6.400   2.453  27.789  0.00  0.00    +0.209 HD
ENDBRANCH  19   3
ENDBRANCH  11  19
BRANCH  12  22
ATOM     22  C   UNL     1      -2.877   0.871  22.409  0.00  0.00    +0.106 C 
BRANCH  22  23
ATOM      4  O   UNL     1      -1.206  -0.719  23.065  0.00  0.00    -0.276 OA
ATOM      7  N   UNL     1      -3.401  -1.206  23.637  0.00  0.00    -0.300 N 
ATOM     23  C   UNL     1      -2.403  -0.415  23.059  0.00  0.00    +0.216 C 
ATOM     26  C   UNL     1      -4.808  -0.827  23.616  0.00  0.00    +0.132 C 
BRANCH   7  25
ATOM     25  C   UNL     1      -3.109  -2.473  24.303  0.00  0.00    +0.142 C 
BRANCH  25  29
ATOM     29  C   UNL     1      -1.836  -2.411  25.097  0.00  0.00    -0.030 A 
ATOM     33  C   UNL     1      -0.801  -3.306  24.829  0.00  0.00    +0.005 A 
ATOM     34  C   UNL     1      -1.688  -1.455  26.103  0.00  0.00    +0.005 A 
ATOM     35  C   UNL     1       0.381  -3.248  25.568  0.00  0.00    +0.000 A 
ATOM     36  C   UNL     1      -0.506  -1.396  26.840  0.00  0.00    +0.000 A 
ATOM     37  C   UNL     1       0.529  -2.292  26.573  0.00  0.00    +0.000 A 
ENDBRANCH  25  29
ENDBRANCH   7  25
ENDBRANCH  22  23
ENDBRANCH  12  22
TORSDOF 8
ENDMDL
MODEL 3
REMARK VINA RESULT:      16.9      2.219      3.974
REMARK  Name = 11883006
REMARK  14 active torsions:
REMARK  status: ('A' for Active; 'I' for Inactive)
REMARK    1  A    between atoms: O_2  and  C_14
REMARK    2  A    between atoms: O_3  and  C_19
REMARK    3  A    between atoms: N_7  and  C_25
REMARK    4  A    between atoms: N_7  and  C_26
REMARK    5  A    between atoms: C_9  and  C_17
REMARK    6  A    between atoms: C_11  and  C_19
REMARK    7  A    between atoms: C_11  and  C_20
REMARK    8  A    between atoms: C_12  and  C_22
REMARK    9  A    between atoms: C_22  and  C_23
REMARK   10  A    between atoms: C_25  and  C_29
REMARK   11  A    between atoms: C_27  and  C_28
REMARK   12  A    between atoms: C_28  and  C_30
REMARK   13  A    between atoms: C_28  and  C_31
REMARK   14  A    between atoms: C_28  and  C_32
REMARK                            x       y       z     vdW  Elec       q    Type
REMARK                         _______ _______ _______ _____ _____    ______ ____
ROOT
ATOM      1  S   UNL     1      -0.706  -0.884  23.697  0.00  0.00    -0.057 S 
ATOM      5  O   UNL     1       3.038   1.855  23.578  0.00  0.00    -0.275 OA
ATOM      6  N   UNL     1       0.166   1.516  24.114  0.00  0.00    -0.229 NA
ATOM      8  N   UNL     1       1.775  -0.109  23.353  0.00  0.00    -0.264 N 
ATOM      9  C   UNL     1      -3.481   2.591  24.756  0.00  0.00    -0.019 C 
ATOM     10  C   UNL     1      -3.884   1.163  25.333  0.00  0.00    +0.011 C 
ATOM     11  C   UNL     1      -5.404   0.936  25.687  0.00  0.00    +0.021 C 
ATOM     12  C   UNL     1      -1.897   2.747  24.886  0.00  0.00    +0.054 C 
ATOM     13  C   UNL     1      -4.154   3.699  25.607  0.00  0.00    +0.010 C 
ATOM     14  C   UNL     1      -5.929   2.154  26.497  0.00  0.00    +0.123 C 
ATOM     15  C   UNL     1      -3.257   0.012  24.491  0.00  0.00    +0.049 C 
ATOM     16  C   UNL     1      -5.646   3.492  25.822  0.00  0.00    +0.032 C 
ATOM     17  C   UNL     1      -3.897   2.780  23.275  0.00  0.00    +0.012 C 
ATOM     18  C   UNL     1      -1.188   1.510  24.397  0.00  0.00    +0.058 A 
ATOM     20  C   UNL     1      -5.531  -0.316  26.600  0.00  0.00    +0.016 C 
ATOM     21  C   UNL     1      -1.814   0.289  24.244  0.00  0.00    +0.015 A 
ATOM     24  C   UNL     1       0.527   0.311  23.730  0.00  0.00    +0.165 A 
ATOM     27  C   UNL     1       2.952   0.663  23.295  0.00  0.00    +0.224 C 
ATOM     40  H   UNL     1       1.824  -1.090  23.093  0.00  0.00    +0.157 HD
ENDROOT
BRANCH  27  28
ATOM     28  C   UNL     1       4.197  -0.130  22.821  0.00  0.00    +0.039 C 
ATOM     30  C   UNL     1       5.465   0.494  23.432  0.00  0.00    +0.020 C 
ATOM     31  C   UNL     1       4.315  -0.064  21.290  0.00  0.00    +0.020 C 
ATOM     32  C   UNL     1       4.103  -1.591  23.284  0.00  0.00    +0.020 C 
ENDBRANCH  27  28
BRANCH  14   2
ATOM      2  O   UNL     1      -7.334   2.042  26.723  0.00  0.00    -0.391 OA
ATOM     38  H   UNL     1      -7.470   1.354  27.396  0.00  0.00    +0.210 HD
ENDBRANCH  14   2
BRANCH  11  19
ATOM     19  C   UNL     1      -6.311   0.654  24.468  0.00  0.00    +0.165 C 
BRANCH  19   3
ATOM      3  O   UNL     1      -7.273   1.680  24.399  0.00  0.00    -0.394 OA
ATOM     39  H   UNL     1      -7.260   2.148  25.252  0.00  0.00    +0.209 HD
ENDBRANCH  19   3
ENDBRANCH  11  19
BRANCH  12  22
ATOM     22  C   UNL     1      -1.324   4.015  24.240  0.00  0.00    +0.106 C 
BRANCH  22  23
ATOM      4  O   UNL     1       0.507   5.526  24.568  0.00  0.00    -0.276 OA
ATOM      7  N   UNL     1       0.340   3.744  26.043  0.00  0.00    -0.300 N 
ATOM     23  C   UNL     1      -0.079   4.509  24.950  0.00  0.00    +0.216 C 
ATOM     26  C   UNL     1      -0.369   2.546  26.476  0.00  0.00    +0.132 C 
BRANCH   7  25
ATOM     25  C   UNL     1       1.520   4.088  26.834  0.00  0.00    +0.142 C 
BRANCH  25  29
ATOM     29  C   UNL     1       1.596   3.294  28.106  0.00  0.00    -0.030 A 
ATOM     33  C   UNL     1       0.458   3.129  28.895  0.00  0.00    +0.005 A 
ATOM     34  C   UNL     1       2.805   2.719  28.498  0.00  0.00    +0.005 A 
ATOM     35  C   UNL     1       0.528   2.392  30.077  0.00  0.00    +0.000 A 
ATOM     36  C   UNL     1       2.876   1.982  29.679  0.00  0.00    +0.000 A 
ATOM     37  C   UNL     1       1.738   1.817  30.469  0.00  0.00    +0.000 A 
ENDBRANCH  25  29
ENDBRANCH   7  25
ENDBRANCH  22  23
ENDBRANCH  12  22
TORSDOF 8
ENDMDL
MODEL 4
REMARK VINA RESULT:      18.4      2.365      7.510
REMARK  Name = 11883006
REMARK  14 active torsions:
REMARK  status: ('A' for Active; 'I' for Inactive)
REMARK    1  A    between atoms: O_2  and  C_14
REMARK    2  A    between atoms: O_3  and  C_19
REMARK    3  A    between atoms: N_7  and  C_25
REMARK    4  A    between atoms: N_7  and  C_26
REMARK    5  A    between atoms: C_9  and  C_17
REMARK    6  A    between atoms: C_11  and  C_19
REMARK    7  A    between atoms: C_11  and  C_20
REMARK    8  A    between atoms: C_12  and  C_22
REMARK    9  A    between atoms: C_22  and  C_23
REMARK   10  A    between atoms: C_25  and  C_29
REMARK   11  A    between atoms: C_27  and  C_28
REMARK   12  A    between atoms: C_28  and  C_30
REMARK   13  A    between atoms: C_28  and  C_31
REMARK   14  A    between atoms: C_28  and  C_32
REMARK                            x       y       z     vdW  Elec       q    Type
REMARK                         _______ _______ _______ _____ _____    ______ ____
ROOT
ATOM      1  S   UNL     1       0.491   3.713  23.593  0.00  0.00    -0.057 S 
ATOM      5  O   UNL     1      -3.499   2.388  25.559  0.00  0.00    -0.275 OA
ATOM      6  N   UNL     1      -0.793   1.716  24.621  0.00  0.00    -0.229 NA
ATOM      8  N   UNL     1      -1.945   3.832  24.557  0.00  0.00    -0.264 N 
ATOM      9  C   UNL     1       2.135  -0.552  23.550  0.00  0.00    -0.019 C 
ATOM     10  C   UNL     1       3.204   0.617  23.714  0.00  0.00    +0.011 C 
ATOM     11  C   UNL     1       4.685   0.301  23.274  0.00  0.00    +0.021 C 
ATOM     12  C   UNL     1       0.859  -0.182  24.436  0.00  0.00    +0.054 C 
ATOM     13  C   UNL     1       2.735  -1.878  24.085  0.00  0.00    +0.010 C 
ATOM     14  C   UNL     1       5.110  -1.077  23.856  0.00  0.00    +0.123 C 
ATOM     15  C   UNL     1       2.660   1.967  23.160  0.00  0.00    +0.049 C 
ATOM     16  C   UNL     1       4.120  -2.194  23.539  0.00  0.00    +0.032 C 
ATOM     17  C   UNL     1       1.697  -0.763  22.079  0.00  0.00    +0.012 C 
ATOM     18  C   UNL     1       0.446   1.251  24.220  0.00  0.00    +0.058 A 
ATOM     20  C   UNL     1       5.635   1.371  23.881  0.00  0.00    +0.016 C 
ATOM     21  C   UNL     1       1.276   2.203  23.662  0.00  0.00    +0.015 A 
ATOM     24  C   UNL     1      -0.883   2.996  24.334  0.00  0.00    +0.165 A 
ATOM     27  C   UNL     1      -3.180   3.501  25.148  0.00  0.00    +0.224 C 
ATOM     40  H   UNL     1      -1.793   4.789  24.253  0.00  0.00    +0.157 HD
ENDROOT
BRANCH  27  28
ATOM     28  C   UNL     1      -4.166   4.693  25.247  0.00  0.00    +0.039 C 
ATOM     30  C   UNL     1      -3.667   5.682  26.317  0.00  0.00    +0.020 C 
ATOM     31  C   UNL     1      -5.560   4.196  25.660  0.00  0.00    +0.020 C 
ATOM     32  C   UNL     1      -4.243   5.431  23.902  0.00  0.00    +0.020 C 
ENDBRANCH  27  28
BRANCH  14   2
ATOM      2  O   UNL     1       6.398  -1.454  23.370  0.00  0.00    -0.391 OA
ATOM     38  H   UNL     1       6.885  -1.856  24.109  0.00  0.00    +0.210 HD
ENDBRANCH  14   2
BRANCH  11  19
ATOM     19  C   UNL     1       4.925   0.352  21.748  0.00  0.00    +0.165 C 
BRANCH  19   3
ATOM      3  O   UNL     1       3.736   0.800  21.139  0.00  0.00    -0.394 OA
ATOM     39  H   UNL     1       3.987   1.284  20.334  0.00  0.00    +0.209 HD
ENDBRANCH  19   3
ENDBRANCH  11  19
BRANCH  12  22
ATOM     22  C   UNL     1      -0.329  -1.139  24.276  0.00  0.00    +0.106 C 
BRANCH  22  23
ATOM      4  O   UNL     1      -1.177  -0.190  26.307  0.00  0.00    -0.276 OA
ATOM      7  N   UNL     1      -2.613  -1.563  25.111  0.00  0.00    -0.300 N 
ATOM     23  C   UNL     1      -1.396  -0.911  25.330  0.00  0.00    +0.216 C 
ATOM     26  C   UNL     1      -2.848  -2.410  23.949  0.00  0.00    +0.132 C 
BRANCH   7  25
ATOM     25  C   UNL     1      -3.741  -1.445  26.032  0.00  0.00    +0.142 C 
BRANCH  25  29
ATOM     29  C   UNL     1      -4.686  -0.350  25.627  0.00  0.00    -0.030 A 
ATOM     33  C   UNL     1      -5.460   0.296  26.591  0.00  0.00    +0.005 A 
ATOM     34  C   UNL     1      -4.788   0.022  24.286  0.00  0.00    +0.005 A 
ATOM     35  C   UNL     1      -6.338   1.313  26.215  0.00  0.00    +0.000 A 
ATOM     36  C   UNL     1      -5.665   1.039  23.910  0.00  0.00    +0.000 A 
ATOM     37  C   UNL     1      -6.440   1.685  24.874  0.00  0.00    +0.000 A 
ENDBRANCH  25  29
ENDBRANCH   7  25
ENDBRANCH  22  23
ENDBRANCH  12  22
TORSDOF 8
ENDMDL
