MODEL 1
REMARK VINA RESULT:      -5.7      0.000      0.000
REMARK  Name = 45360415
REMARK  8 active torsions:
REMARK  status: ('A' for Active; 'I' for Inactive)
REMARK    1  A    between atoms: O_1  and  C_20
REMARK    2  A    between atoms: O_1  and  C_21
REMARK    3  A    between atoms: N_3  and  C_12
REMARK    4  A    between atoms: N_3  and  C_14
REMARK    5  A    between atoms: C_5  and  C_11
REMARK    6  A    between atoms: C_6  and  C_12
REMARK    7  A    between atoms: C_11  and  C_13
REMARK    8  A    between atoms: C_14  and  C_15
REMARK                            x       y       z     vdW  Elec       q    Type
REMARK                         _______ _______ _______ _____ _____    ______ ____
ROOT
ATOM      3  N   UNL     1       0.150   0.751  25.054  0.00  0.00    -0.311 NA
ATOM     22  H   UNL     1       1.089   0.418  25.269  0.00  0.00    +0.122 HD
ENDROOT
BRANCH   3  12
ATOM     12  C   UNL     1      -0.440  -0.093  24.028  0.00  0.00    +0.100 C 
BRANCH  12   6
ATOM      2  N   UNL     1      -2.269  -1.786  23.738  0.00  0.00    -0.298 NA
ATOM      4  C   UNL     1      -3.311  -1.341  26.080  0.00  0.00    -0.004 C 
ATOM      5  C   UNL     1      -4.147  -0.668  24.967  0.00  0.00    +0.006 C 
ATOM      6  C   UNL     1      -1.236  -1.238  24.659  0.00  0.00    +0.071 C 
ATOM      7  C   UNL     1      -1.862  -0.825  26.010  0.00  0.00    +0.024 C 
ATOM      8  C   UNL     1      -3.407  -0.843  23.621  0.00  0.00    +0.088 C 
ATOM      9  C   UNL     1      -3.274  -2.848  25.763  0.00  0.00    +0.019 C 
ATOM     10  C   UNL     1      -2.776  -3.052  24.321  0.00  0.00    +0.085 C 
BRANCH   5  11
ATOM     11  C   UNL     1      -4.461   0.798  25.251  0.00  0.00    +0.002 C 
ATOM     13  C   UNL     1      -5.895   1.136  24.892  0.00  0.00    +0.004 C 
ENDBRANCH   5  11
ENDBRANCH  12   6
ENDBRANCH   3  12
BRANCH   3  14
ATOM     14  C   UNL     1       0.211   2.140  24.617  0.00  0.00    +0.116 C 
BRANCH  14  15
ATOM     15  C   UNL     1      -1.146   2.794  24.639  0.00  0.00    -0.033 A 
ATOM     16  C   UNL     1      -1.577   3.471  25.779  0.00  0.00    +0.008 A 
ATOM     17  C   UNL     1      -1.972   2.720  23.517  0.00  0.00    +0.008 A 
ATOM     18  C   UNL     1      -2.834   4.076  25.797  0.00  0.00    +0.046 A 
ATOM     19  C   UNL     1      -3.229   3.325  23.535  0.00  0.00    +0.046 A 
ATOM     20  C   UNL     1      -3.659   4.003  24.675  0.00  0.00    +0.120 A 
BRANCH  20   1
ATOM      1  O   UNL     1      -4.886   4.593  24.694  0.00  0.00    -0.495 OA
ATOM     21  C   UNL     1      -5.770   4.218  25.748  0.00  0.00    +0.277 C 
ENDBRANCH  20   1
ENDBRANCH  14  15
ENDBRANCH   3  14
TORSDOF 6
ENDMDL
MODEL 2
REMARK VINA RESULT:      -5.3      1.637      2.848
REMARK  Name = 45360415
REMARK  8 active torsions:
REMARK  status: ('A' for Active; 'I' for Inactive)
REMARK    1  A    between atoms: O_1  and  C_20
REMARK    2  A    between atoms: O_1  and  C_21
REMARK    3  A    between atoms: N_3  and  C_12
REMARK    4  A    between atoms: N_3  and  C_14
REMARK    5  A    between atoms: C_5  and  C_11
REMARK    6  A    between atoms: C_6  and  C_12
REMARK    7  A    between atoms: C_11  and  C_13
REMARK    8  A    between atoms: C_14  and  C_15
REMARK                            x       y       z     vdW  Elec       q    Type
REMARK                         _______ _______ _______ _____ _____    ______ ____
ROOT
ATOM      3  N   UNL     1       0.014   3.681  25.308  0.00  0.00    -0.311 NA
ATOM     22  H   UNL     1       0.483   3.357  24.463  0.00  0.00    +0.122 HD
ENDROOT
BRANCH   3  12
ATOM     12  C   UNL     1      -0.649   2.560  25.954  0.00  0.00    +0.100 C 
BRANCH  12   6
ATOM      2  N   UNL     1      -0.168   1.226  23.885  0.00  0.00    -0.298 NA
ATOM      4  C   UNL     1      -1.292  -0.938  24.789  0.00  0.00    -0.004 C 
ATOM      5  C   UNL     1      -2.210  -0.223  23.770  0.00  0.00    +0.006 C 
ATOM      6  C   UNL     1      -0.159   1.232  25.373  0.00  0.00    +0.071 C 
ATOM      7  C   UNL     1      -0.953   0.031  25.936  0.00  0.00    +0.024 C 
ATOM      8  C   UNL     1      -1.557   1.121  23.378  0.00  0.00    +0.088 C 
ATOM      9  C   UNL     1       0.025  -1.259  24.057  0.00  0.00    +0.019 C 
ATOM     10  C   UNL     1       0.582   0.031  23.427  0.00  0.00    +0.085 C 
BRANCH   5  11
ATOM     11  C   UNL     1      -3.637  -0.031  24.275  0.00  0.00    +0.002 C 
ATOM     13  C   UNL     1      -4.418  -1.330  24.236  0.00  0.00    +0.004 C 
ENDBRANCH   5  11
ENDBRANCH  12   6
ENDBRANCH   3  12
BRANCH   3  14
ATOM     14  C   UNL     1      -0.940   4.729  24.970  0.00  0.00    +0.116 C 
BRANCH  14  15
ATOM     15  C   UNL     1      -2.363   4.256  25.104  0.00  0.00    -0.033 A 
ATOM     16  C   UNL     1      -3.081   3.871  23.972  0.00  0.00    +0.008 A 
ATOM     17  C   UNL     1      -2.964   4.203  26.362  0.00  0.00    +0.008 A 
ATOM     18  C   UNL     1      -4.399   3.432  24.097  0.00  0.00    +0.046 A 
ATOM     19  C   UNL     1      -4.282   3.765  26.487  0.00  0.00    +0.046 A 
ATOM     20  C   UNL     1      -4.999   3.379  25.355  0.00  0.00    +0.120 A 
BRANCH  20   1
ATOM      1  O   UNL     1      -6.286   2.951  25.477  0.00  0.00    -0.495 OA
ATOM     21  C   UNL     1      -6.594   1.663  24.947  0.00  0.00    +0.277 C 
ENDBRANCH  20   1
ENDBRANCH  14  15
ENDBRANCH   3  14
TORSDOF 6
ENDMDL
MODEL 3
REMARK VINA RESULT:      -4.7      1.822      3.673
REMARK  Name = 45360415
REMARK  8 active torsions:
REMARK  status: ('A' for Active; 'I' for Inactive)
REMARK    1  A    between atoms: O_1  and  C_20
REMARK    2  A    between atoms: O_1  and  C_21
REMARK    3  A    between atoms: N_3  and  C_12
REMARK    4  A    between atoms: N_3  and  C_14
REMARK    5  A    between atoms: C_5  and  C_11
REMARK    6  A    between atoms: C_6  and  C_12
REMARK    7  A    between atoms: C_11  and  C_13
REMARK    8  A    between atoms: C_14  and  C_15
REMARK                            x       y       z     vdW  Elec       q    Type
REMARK                         _______ _______ _______ _____ _____    ______ ____
ROOT
ATOM      3  N   UNL     1      -5.938   1.162  24.811  0.00  0.00    -0.311 NA
ATOM     22  H   UNL     1      -6.870   0.770  24.940  0.00  0.00    +0.122 HD
ENDROOT
BRANCH   3  12
ATOM     12  C   UNL     1      -5.009   0.511  25.718  0.00  0.00    +0.100 C 
BRANCH  12   6
ATOM      2  N   UNL     1      -3.555  -1.517  25.984  0.00  0.00    -0.298 NA
ATOM      4  C   UNL     1      -2.047  -0.936  23.945  0.00  0.00    -0.004 C 
ATOM      5  C   UNL     1      -1.332  -0.602  25.275  0.00  0.00    +0.006 C 
ATOM      6  C   UNL     1      -4.302  -0.657  25.026  0.00  0.00    +0.071 C 
ATOM      7  C   UNL     1      -3.384  -0.175  23.881  0.00  0.00    +0.024 C 
ATOM      8  C   UNL     1      -2.322  -0.830  26.438  0.00  0.00    +0.088 C 
ATOM      9  C   UNL     1      -2.379  -2.440  23.982  0.00  0.00    +0.019 C 
ATOM     10  C   UNL     1      -3.158  -2.756  25.272  0.00  0.00    +0.085 C 
BRANCH   5  11
ATOM     11  C   UNL     1      -0.742   0.806  25.305  0.00  0.00    +0.002 C 
ATOM     13  C   UNL     1       0.082   1.087  24.063  0.00  0.00    +0.004 C 
ENDBRANCH   5  11
ENDBRANCH  12   6
ENDBRANCH   3  12
BRANCH   3  14
ATOM     14  C   UNL     1      -5.975   2.601  25.042  0.00  0.00    +0.116 C 
BRANCH  14  15
ATOM     15  C   UNL     1      -4.593   3.200  25.061  0.00  0.00    -0.033 A 
ATOM     16  C   UNL     1      -4.095   3.771  26.232  0.00  0.00    +0.008 A 
ATOM     17  C   UNL     1      -3.811   3.184  23.906  0.00  0.00    +0.008 A 
ATOM     18  C   UNL     1      -2.816   4.325  26.249  0.00  0.00    +0.046 A 
ATOM     19  C   UNL     1      -2.531   3.739  23.922  0.00  0.00    +0.046 A 
ATOM     20  C   UNL     1      -2.034   4.309  25.094  0.00  0.00    +0.120 A 
BRANCH  20   1
ATOM      1  O   UNL     1      -0.785   4.851  25.110  0.00  0.00    -0.495 OA
ATOM     21  C   UNL     1      -0.019   4.751  23.911  0.00  0.00    +0.277 C 
ENDBRANCH  20   1
ENDBRANCH  14  15
ENDBRANCH   3  14
TORSDOF 6
ENDMDL
MODEL 4
REMARK VINA RESULT:      -4.6      2.573      5.859
REMARK  Name = 45360415
REMARK  8 active torsions:
REMARK  status: ('A' for Active; 'I' for Inactive)
REMARK    1  A    between atoms: O_1  and  C_20
REMARK    2  A    between atoms: O_1  and  C_21
REMARK    3  A    between atoms: N_3  and  C_12
REMARK    4  A    between atoms: N_3  and  C_14
REMARK    5  A    between atoms: C_5  and  C_11
REMARK    6  A    between atoms: C_6  and  C_12
REMARK    7  A    between atoms: C_11  and  C_13
REMARK    8  A    between atoms: C_14  and  C_15
REMARK                            x       y       z     vdW  Elec       q    Type
REMARK                         _______ _______ _______ _____ _____    ______ ____
ROOT
ATOM      3  N   UNL     1      -5.101   2.547  24.791  0.00  0.00    -0.311 NA
ATOM     22  H   UNL     1      -4.398   2.543  24.052  0.00  0.00    +0.122 HD
ENDROOT
BRANCH   3  12
ATOM     12  C   UNL     1      -4.498   3.005  26.031  0.00  0.00    +0.100 C 
BRANCH  12   6
ATOM      2  N   UNL     1      -3.097   4.148  24.291  0.00  0.00    -0.298 NA
ATOM      4  C   UNL     1      -0.850   3.662  25.509  0.00  0.00    -0.004 C 
ATOM      5  C   UNL     1      -1.047   2.705  24.310  0.00  0.00    +0.006 C 
ATOM      6  C   UNL     1      -3.337   3.962  25.748  0.00  0.00    +0.071 C 
ATOM      7  C   UNL     1      -2.044   3.525  26.472  0.00  0.00    +0.024 C 
ATOM      8  C   UNL     1      -2.454   2.942  23.717  0.00  0.00    +0.088 C 
ATOM      9  C   UNL     1      -0.880   5.096  24.946  0.00  0.00    +0.019 C 
ATOM     10  C   UNL     1      -2.167   5.291  24.124  0.00  0.00    +0.085 C 
BRANCH   5  11
ATOM     11  C   UNL     1      -0.826   1.238  24.668  0.00  0.00    +0.002 C 
ATOM     13  C   UNL     1       0.029   0.538  23.630  0.00  0.00    +0.004 C 
ENDBRANCH   5  11
ENDBRANCH  12   6
ENDBRANCH   3  12
BRANCH   3  14
ATOM     14  C   UNL     1      -5.658   1.208  24.943  0.00  0.00    +0.116 C 
BRANCH  14  15
ATOM     15  C   UNL     1      -4.591   0.147  24.883  0.00  0.00    -0.033 A 
ATOM     16  C   UNL     1      -3.976  -0.293  26.055  0.00  0.00    +0.008 A 
ATOM     17  C   UNL     1      -4.217  -0.396  23.654  0.00  0.00    +0.008 A 
ATOM     18  C   UNL     1      -2.988  -1.276  25.998  0.00  0.00    +0.046 A 
ATOM     19  C   UNL     1      -3.229  -1.379  23.596  0.00  0.00    +0.046 A 
ATOM     20  C   UNL     1      -2.615  -1.819  24.769  0.00  0.00    +0.120 A 
BRANCH  20   1
ATOM      1  O   UNL     1      -1.651  -2.778  24.713  0.00  0.00    -0.495 OA
ATOM     21  C   UNL     1      -0.405  -2.482  25.341  0.00  0.00    +0.277 C 
ENDBRANCH  20   1
ENDBRANCH  14  15
ENDBRANCH   3  14
TORSDOF 6
ENDMDL
MODEL 5
REMARK VINA RESULT:      -4.2      1.345      1.776
REMARK  Name = 45360415
REMARK  8 active torsions:
REMARK  status: ('A' for Active; 'I' for Inactive)
REMARK    1  A    between atoms: O_1  and  C_20
REMARK    2  A    between atoms: O_1  and  C_21
REMARK    3  A    between atoms: N_3  and  C_12
REMARK    4  A    between atoms: N_3  and  C_14
REMARK    5  A    between atoms: C_5  and  C_11
REMARK    6  A    between atoms: C_6  and  C_12
REMARK    7  A    between atoms: C_11  and  C_13
REMARK    8  A    between atoms: C_14  and  C_15
REMARK                            x       y       z     vdW  Elec       q    Type
REMARK                         _______ _______ _______ _____ _____    ______ ____
ROOT
ATOM      3  N   UNL     1       0.338   2.624  24.440  0.00  0.00    -0.311 NA
ATOM     22  H   UNL     1       1.320   2.811  24.240  0.00  0.00    +0.122 HD
ENDROOT
BRANCH   3  12
ATOM     12  C   UNL     1      -0.045   1.355  23.844  0.00  0.00    +0.100 C 
BRANCH  12   6
ATOM      2  N   UNL     1      -0.214  -1.081  24.421  0.00  0.00    -0.298 NA
ATOM      4  C   UNL     1      -2.437  -0.807  25.745  0.00  0.00    -0.004 C 
ATOM      5  C   UNL     1      -2.698  -1.414  24.347  0.00  0.00    +0.006 C 
ATOM      6  C   UNL     1      -0.338   0.313  24.927  0.00  0.00    +0.071 C 
ATOM      7  C   UNL     1      -1.715   0.543  25.588  0.00  0.00    +0.024 C 
ATOM      8  C   UNL     1      -1.370  -1.419  23.556  0.00  0.00    +0.088 C 
ATOM      9  C   UNL     1      -1.469  -1.760  26.472  0.00  0.00    +0.019 C 
ATOM     10  C   UNL     1      -0.229  -1.994  25.589  0.00  0.00    +0.085 C 
BRANCH   5  11
ATOM     11  C   UNL     1      -3.809  -0.702  23.579  0.00  0.00    +0.002 C 
ATOM     13  C   UNL     1      -4.909  -0.229  24.508  0.00  0.00    +0.004 C 
ENDBRANCH   5  11
ENDBRANCH  12   6
ENDBRANCH   3  12
BRANCH   3  14
ATOM     14  C   UNL     1      -0.483   3.713  23.926  0.00  0.00    +0.116 C 
BRANCH  14  15
ATOM     15  C   UNL     1      -1.884   3.667  24.478  0.00  0.00    -0.033 A 
ATOM     16  C   UNL     1      -2.139   4.112  25.775  0.00  0.00    +0.008 A 
ATOM     17  C   UNL     1      -2.926   3.179  23.690  0.00  0.00    +0.008 A 
ATOM     18  C   UNL     1      -3.436   4.069  26.285  0.00  0.00    +0.046 A 
ATOM     19  C   UNL     1      -4.225   3.136  24.200  0.00  0.00    +0.046 A 
ATOM     20  C   UNL     1      -4.479   3.581  25.497  0.00  0.00    +0.120 A 
BRANCH  20   1
ATOM      1  O   UNL     1      -5.745   3.540  25.995  0.00  0.00    -0.495 OA
ATOM     21  C   UNL     1      -6.298   2.251  26.253  0.00  0.00    +0.277 C 
ENDBRANCH  20   1
ENDBRANCH  14  15
ENDBRANCH   3  14
TORSDOF 6
ENDMDL
MODEL 6
REMARK VINA RESULT:      -3.9      1.923      3.781
REMARK  Name = 45360415
REMARK  8 active torsions:
REMARK  status: ('A' for Active; 'I' for Inactive)
REMARK    1  A    between atoms: O_1  and  C_20
REMARK    2  A    between atoms: O_1  and  C_21
REMARK    3  A    between atoms: N_3  and  C_12
REMARK    4  A    between atoms: N_3  and  C_14
REMARK    5  A    between atoms: C_5  and  C_11
REMARK    6  A    between atoms: C_6  and  C_12
REMARK    7  A    between atoms: C_11  and  C_13
REMARK    8  A    between atoms: C_14  and  C_15
REMARK                            x       y       z     vdW  Elec       q    Type
REMARK                         _______ _______ _______ _____ _____    ______ ____
ROOT
ATOM      3  N   UNL     1      -6.070   1.554  25.925  0.00  0.00    -0.311 NA
ATOM     22  H   UNL     1      -5.647   1.458  26.848  0.00  0.00    +0.122 HD
ENDROOT
BRANCH   3  12
ATOM     12  C   UNL     1      -5.336   0.743  24.968  0.00  0.00    +0.100 C 
BRANCH  12   6
ATOM      2  N   UNL     1      -2.949   0.607  24.207  0.00  0.00    -0.298 NA
ATOM      4  C   UNL     1      -2.345  -1.337  25.828  0.00  0.00    -0.004 C 
ATOM      5  C   UNL     1      -2.535  -1.859  24.385  0.00  0.00    +0.006 C 
ATOM      6  C   UNL     1      -3.867   0.617  25.379  0.00  0.00    +0.071 C 
ATOM      7  C   UNL     1      -3.627  -0.615  26.281  0.00  0.00    +0.024 C 
ATOM      8  C   UNL     1      -3.031  -0.694  23.500  0.00  0.00    +0.088 C 
ATOM      9  C   UNL     1      -1.221  -0.284  25.777  0.00  0.00    +0.019 C 
ATOM     10  C   UNL     1      -1.563   0.772  24.710  0.00  0.00    +0.085 C 
BRANCH   5  11
ATOM     11  C   UNL     1      -3.465  -3.067  24.299  0.00  0.00    +0.002 C 
ATOM     13  C   UNL     1      -4.739  -2.732  23.547  0.00  0.00    +0.004 C 
ENDBRANCH   5  11
ENDBRANCH  12   6
ENDBRANCH   3  12
BRANCH   3  14
ATOM     14  C   UNL     1      -6.070   2.958  25.531  0.00  0.00    +0.116 C 
BRANCH  14  15
ATOM     15  C   UNL     1      -4.672   3.491  25.358  0.00  0.00    -0.033 A 
ATOM     16  C   UNL     1      -4.182   3.766  24.082  0.00  0.00    +0.008 A 
ATOM     17  C   UNL     1      -3.868   3.711  26.477  0.00  0.00    +0.008 A 
ATOM     18  C   UNL     1      -2.888   4.260  23.923  0.00  0.00    +0.046 A 
ATOM     19  C   UNL     1      -2.573   4.206  26.318  0.00  0.00    +0.046 A 
ATOM     20  C   UNL     1      -2.083   4.480  25.042  0.00  0.00    +0.120 A 
BRANCH  20   1
ATOM      1  O   UNL     1      -0.820   4.963  24.886  0.00  0.00    -0.495 OA
ATOM     21  C   UNL     1       0.124   4.113  24.238  0.00  0.00    +0.277 C 
ENDBRANCH  20   1
ENDBRANCH  14  15
ENDBRANCH   3  14
TORSDOF 6
ENDMDL
MODEL 7
REMARK VINA RESULT:      -3.9      2.525      5.059
REMARK  Name = 45360415
REMARK  8 active torsions:
REMARK  status: ('A' for Active; 'I' for Inactive)
REMARK    1  A    between atoms: O_1  and  C_20
REMARK    2  A    between atoms: O_1  and  C_21
REMARK    3  A    between atoms: N_3  and  C_12
REMARK    4  A    between atoms: N_3  and  C_14
REMARK    5  A    between atoms: C_5  and  C_11
REMARK    6  A    between atoms: C_6  and  C_12
REMARK    7  A    between atoms: C_11  and  C_13
REMARK    8  A    between atoms: C_14  and  C_15
REMARK                            x       y       z     vdW  Elec       q    Type
REMARK                         _______ _______ _______ _____ _____    ______ ____
ROOT
ATOM      3  N   UNL     1      -0.487   3.328  24.512  0.00  0.00    -0.311 NA
ATOM     22  H   UNL     1      -0.028   4.132  24.085  0.00  0.00    +0.122 HD
ENDROOT
BRANCH   3  12
ATOM     12  C   UNL     1      -1.126   3.736  25.752  0.00  0.00    +0.100 C 
BRANCH  12   6
ATOM      2  N   UNL     1      -3.523   3.165  26.222  0.00  0.00    -0.298 NA
ATOM      4  C   UNL     1      -4.276   3.459  23.749  0.00  0.00    -0.004 C 
ATOM      5  C   UNL     1      -4.146   1.961  24.113  0.00  0.00    +0.006 C 
ATOM      6  C   UNL     1      -2.596   4.089  25.514  0.00  0.00    +0.071 C 
ATOM      7  C   UNL     1      -2.932   4.164  24.007  0.00  0.00    +0.024 C 
ATOM      8  C   UNL     1      -3.561   1.850  25.538  0.00  0.00    +0.088 C 
ATOM      9  C   UNL     1      -5.305   4.067  24.721  0.00  0.00    +0.019 C 
ATOM     10  C   UNL     1      -4.884   3.752  26.168  0.00  0.00    +0.085 C 
BRANCH   5  11
ATOM     11  C   UNL     1      -3.325   1.164  23.103  0.00  0.00    +0.002 C 
ATOM     13  C   UNL     1      -2.720   2.068  22.045  0.00  0.00    +0.004 C 
ENDBRANCH   5  11
ENDBRANCH  12   6
ENDBRANCH   3  12
BRANCH   3  14
ATOM     14  C   UNL     1       0.492   2.274  24.750  0.00  0.00    +0.116 C 
BRANCH  14  15
ATOM     15  C   UNL     1      -0.140   0.907  24.727  0.00  0.00    -0.033 A 
ATOM     16  C   UNL     1      -0.881   0.461  25.821  0.00  0.00    +0.008 A 
ATOM     17  C   UNL     1       0.016   0.087  23.609  0.00  0.00    +0.008 A 
ATOM     18  C   UNL     1      -1.466  -0.805  25.798  0.00  0.00    +0.046 A 
ATOM     19  C   UNL     1      -0.570  -1.180  23.586  0.00  0.00    +0.046 A 
ATOM     20  C   UNL     1      -1.310  -1.625  24.680  0.00  0.00    +0.120 A 
BRANCH  20   1
ATOM      1  O   UNL     1      -1.881  -2.860  24.658  0.00  0.00    -0.495 OA
ATOM     21  C   UNL     1      -3.301  -2.916  24.532  0.00  0.00    +0.277 C 
ENDBRANCH  20   1
ENDBRANCH  14  15
ENDBRANCH   3  14
TORSDOF 6
ENDMDL
MODEL 8
REMARK VINA RESULT:      -3.8     15.260     17.854
REMARK  Name = 45360415
REMARK  8 active torsions:
REMARK  status: ('A' for Active; 'I' for Inactive)
REMARK    1  A    between atoms: O_1  and  C_20
REMARK    2  A    between atoms: O_1  and  C_21
REMARK    3  A    between atoms: N_3  and  C_12
REMARK    4  A    between atoms: N_3  and  C_14
REMARK    5  A    between atoms: C_5  and  C_11
REMARK    6  A    between atoms: C_6  and  C_12
REMARK    7  A    between atoms: C_11  and  C_13
REMARK    8  A    between atoms: C_14  and  C_15
REMARK                            x       y       z     vdW  Elec       q    Type
REMARK                         _______ _______ _______ _____ _____    ______ ____
ROOT
ATOM      3  N   UNL     1      -3.673  -9.380  10.086  0.00  0.00    -0.311 NA
ATOM     22  H   UNL     1      -4.341  -9.106  10.805  0.00  0.00    +0.122 HD
ENDROOT
BRANCH   3  12
ATOM     12  C   UNL     1      -4.342 -10.199   9.089  0.00  0.00    +0.100 C 
BRANCH  12   6
ATOM      2  N   UNL     1      -5.958  -8.308   9.409  0.00  0.00    -0.298 NA
ATOM      4  C   UNL     1      -8.055  -9.847   9.392  0.00  0.00    -0.004 C 
ATOM      5  C   UNL     1      -7.702  -9.411  10.833  0.00  0.00    +0.006 C 
ATOM      6  C   UNL     1      -5.665  -9.560   8.661  0.00  0.00    +0.071 C 
ATOM      7  C   UNL     1      -6.842 -10.555   8.762  0.00  0.00    +0.024 C 
ATOM      8  C   UNL     1      -6.374  -8.623  10.797  0.00  0.00    +0.088 C 
ATOM      9  C   UNL     1      -8.303  -8.559   8.583  0.00  0.00    +0.019 C 
ATOM     10  C   UNL     1      -7.088  -7.625   8.733  0.00  0.00    +0.085 C 
BRANCH   5  11
ATOM     11  C   UNL     1      -7.640 -10.576  11.817  0.00  0.00    +0.002 C 
ATOM     13  C   UNL     1      -7.680 -10.090  13.253  0.00  0.00    +0.004 C 
ENDBRANCH   5  11
ENDBRANCH  12   6
ENDBRANCH   3  12
BRANCH   3  14
ATOM     14  C   UNL     1      -2.563 -10.101  10.697  0.00  0.00    +0.116 C 
BRANCH  14  15
ATOM     15  C   UNL     1      -2.759 -10.280  12.179  0.00  0.00    -0.033 A 
ATOM     16  C   UNL     1      -4.016 -10.611  12.683  0.00  0.00    +0.008 A 
ATOM     17  C   UNL     1      -1.681 -10.113  13.049  0.00  0.00    +0.008 A 
ATOM     18  C   UNL     1      -4.197 -10.776  14.056  0.00  0.00    +0.046 A 
ATOM     19  C   UNL     1      -1.861 -10.278  14.423  0.00  0.00    +0.046 A 
ATOM     20  C   UNL     1      -3.119 -10.610  14.925  0.00  0.00    +0.120 A 
BRANCH  20   1
ATOM      1  O   UNL     1      -3.295 -10.771  16.265  0.00  0.00    -0.495 OA
ATOM     21  C   UNL     1      -4.551 -10.368  16.808  0.00  0.00    +0.277 C 
ENDBRANCH  20   1
ENDBRANCH  14  15
ENDBRANCH   3  14
TORSDOF 6
ENDMDL
MODEL 9
REMARK VINA RESULT:      -3.7      2.360      5.140
REMARK  Name = 45360415
REMARK  8 active torsions:
REMARK  status: ('A' for Active; 'I' for Inactive)
REMARK    1  A    between atoms: O_1  and  C_20
REMARK    2  A    between atoms: O_1  and  C_21
REMARK    3  A    between atoms: N_3  and  C_12
REMARK    4  A    between atoms: N_3  and  C_14
REMARK    5  A    between atoms: C_5  and  C_11
REMARK    6  A    between atoms: C_6  and  C_12
REMARK    7  A    between atoms: C_11  and  C_13
REMARK    8  A    between atoms: C_14  and  C_15
REMARK                            x       y       z     vdW  Elec       q    Type
REMARK                         _______ _______ _______ _____ _____    ______ ____
ROOT
ATOM      3  N   UNL     1      -0.226   1.622  25.576  0.00  0.00    -0.311 NA
ATOM     22  H   UNL     1       0.732   1.959  25.668  0.00  0.00    +0.122 HD
ENDROOT
BRANCH   3  12
ATOM     12  C   UNL     1      -1.150   2.695  25.904  0.00  0.00    +0.100 C 
BRANCH  12   6
ATOM      2  N   UNL     1      -2.893   4.232  24.958  0.00  0.00    -0.298 NA
ATOM      4  C   UNL     1      -3.970   2.397  23.461  0.00  0.00    -0.004 C 
ATOM      5  C   UNL     1      -4.831   2.660  24.718  0.00  0.00    +0.006 C 
ATOM      6  C   UNL     1      -1.894   3.171  24.654  0.00  0.00    +0.071 C 
ATOM      7  C   UNL     1      -2.548   1.996  23.893  0.00  0.00    +0.024 C 
ATOM      8  C   UNL     1      -4.075   3.647  25.635  0.00  0.00    +0.088 C 
ATOM      9  C   UNL     1      -3.858   3.736  22.707  0.00  0.00    +0.019 C 
ATOM     10  C   UNL     1      -3.341   4.819  23.672  0.00  0.00    +0.085 C 
BRANCH   5  11
ATOM     11  C   UNL     1      -5.218   1.384  25.461  0.00  0.00    +0.002 C 
ATOM     13  C   UNL     1      -6.292   1.652  26.498  0.00  0.00    +0.004 C 
ENDBRANCH   5  11
ENDBRANCH  12   6
ENDBRANCH   3  12
BRANCH   3  14
ATOM     14  C   UNL     1      -0.427   0.472  26.449  0.00  0.00    +0.116 C 
BRANCH  14  15
ATOM     15  C   UNL     1      -1.311  -0.567  25.812  0.00  0.00    -0.033 A 
ATOM     16  C   UNL     1      -2.646  -0.681  26.198  0.00  0.00    +0.008 A 
ATOM     17  C   UNL     1      -0.793  -1.417  24.835  0.00  0.00    +0.008 A 
ATOM     18  C   UNL     1      -3.464  -1.643  25.607  0.00  0.00    +0.046 A 
ATOM     19  C   UNL     1      -1.611  -2.380  24.243  0.00  0.00    +0.046 A 
ATOM     20  C   UNL     1      -2.946  -2.493  24.629  0.00  0.00    +0.120 A 
BRANCH  20   1
ATOM      1  O   UNL     1      -3.744  -3.432  24.053  0.00  0.00    -0.495 OA
ATOM     21  C   UNL     1      -4.906  -2.965  23.370  0.00  0.00    +0.277 C 
ENDBRANCH  20   1
ENDBRANCH  14  15
ENDBRANCH   3  14
TORSDOF 6
ENDMDL
MODEL 10
REMARK VINA RESULT:      -3.3     16.313     18.829
REMARK  Name = 45360415
REMARK  8 active torsions:
REMARK  status: ('A' for Active; 'I' for Inactive)
REMARK    1  A    between atoms: O_1  and  C_20
REMARK    2  A    between atoms: O_1  and  C_21
REMARK    3  A    between atoms: N_3  and  C_12
REMARK    4  A    between atoms: N_3  and  C_14
REMARK    5  A    between atoms: C_5  and  C_11
REMARK    6  A    between atoms: C_6  and  C_12
REMARK    7  A    between atoms: C_11  and  C_13
REMARK    8  A    between atoms: C_14  and  C_15
REMARK                            x       y       z     vdW  Elec       q    Type
REMARK                         _______ _______ _______ _____ _____    ______ ____
ROOT
ATOM      3  N   UNL     1      -5.539  -9.331   9.170  0.00  0.00    -0.311 NA
ATOM     22  H   UNL     1      -5.850  -9.073  10.106  0.00  0.00    +0.122 HD
ENDROOT
BRANCH   3  12
ATOM     12  C   UNL     1      -6.566 -10.129   8.521  0.00  0.00    +0.100 C 
BRANCH  12   6
ATOM      2  N   UNL     1      -8.003  -8.204   9.248  0.00  0.00    -0.298 NA
ATOM      4  C   UNL     1     -10.236  -9.491   8.893  0.00  0.00    -0.004 C 
ATOM      5  C   UNL     1      -9.874  -9.416  10.394  0.00  0.00    +0.006 C 
ATOM      6  C   UNL     1      -7.813  -9.286   8.243  0.00  0.00    +0.071 C 
ATOM      7  C   UNL     1      -9.082 -10.160   8.124  0.00  0.00    +0.024 C 
ATOM      8  C   UNL     1      -8.476  -8.772  10.533  0.00  0.00    +0.088 C 
ATOM      9  C   UNL     1     -10.342  -8.040   8.386  0.00  0.00    +0.019 C 
ATOM     10  C   UNL     1      -9.047  -7.284   8.737  0.00  0.00    +0.085 C 
BRANCH   5  11
ATOM     11  C   UNL     1      -9.944 -10.768  11.099  0.00  0.00    +0.002 C 
ATOM     13  C   UNL     1      -9.319 -10.706  12.479  0.00  0.00    +0.004 C 
ENDBRANCH   5  11
ENDBRANCH  12   6
ENDBRANCH   3  12
BRANCH   3  14
ATOM     14  C   UNL     1      -4.283 -10.064   9.256  0.00  0.00    +0.116 C 
BRANCH  14  15
ATOM     15  C   UNL     1      -3.830 -10.235  10.682  0.00  0.00    -0.033 A 
ATOM     16  C   UNL     1      -4.765 -10.243  11.716  0.00  0.00    +0.008 A 
ATOM     17  C   UNL     1      -2.473 -10.385  10.968  0.00  0.00    +0.008 A 
ATOM     18  C   UNL     1      -4.345 -10.402  13.036  0.00  0.00    +0.046 A 
ATOM     19  C   UNL     1      -2.052 -10.543  12.289  0.00  0.00    +0.046 A 
ATOM     20  C   UNL     1      -2.988 -10.552  13.323  0.00  0.00    +0.120 A 
BRANCH  20   1
ATOM      1  O   UNL     1      -2.578 -10.706  14.611  0.00  0.00    -0.495 OA
ATOM     21  C   UNL     1      -1.359 -10.067  14.985  0.00  0.00    +0.277 C 
ENDBRANCH  20   1
ENDBRANCH  14  15
ENDBRANCH   3  14
TORSDOF 6
ENDMDL
