MODEL 1
REMARK VINA RESULT:       4.1      0.000      0.000
REMARK  Name = 51137517
REMARK  8 active torsions:
REMARK  status: ('A' for Active; 'I' for Inactive)
REMARK    1  A    between atoms: S_1  and  C_21
REMARK    2  A    between atoms: S_1  and  C_25
REMARK    3  A    between atoms: O_5  and  C_28
REMARK    4  A    between atoms: O_5  and  C_29
REMARK    5  A    between atoms: N_6  and  C_13
REMARK    6  A    between atoms: C_9  and  C_14
REMARK    7  A    between atoms: C_13  and  C_15
REMARK    8  A    between atoms: C_18  and  C_22
REMARK                            x       y       z     vdW  Elec       q    Type
REMARK                         _______ _______ _______ _____ _____    ______ ____
ROOT
ATOM      6  N   UNL     1      -5.203   3.122  25.896  0.00  0.00    -0.297 NA
ATOM      9  C   UNL     1      -3.206   4.329  25.670  0.00  0.00    +0.092 C 
ATOM     10  C   UNL     1      -4.260   4.893  24.702  0.00  0.00    +0.029 C 
ATOM     11  C   UNL     1      -3.762   2.964  26.097  0.00  0.00    +0.097 C 
ATOM     12  C   UNL     1      -5.332   3.814  24.614  0.00  0.00    +0.085 C 
ENDROOT
BRANCH   9  14
ATOM      2  O   UNL     1      -1.338   3.001  24.806  0.00  0.00    -0.420 OA
ATOM      7  N   UNL     1      -0.949   5.204  24.848  0.00  0.00    -0.112 NA
ATOM      8  N   UNL     1       0.177   4.581  24.344  0.00  0.00    -0.107 NA
ATOM     14  C   UNL     1      -1.807   4.244  25.104  0.00  0.00    +0.222 A 
ATOM     18  C   UNL     1      -0.094   3.297  24.336  0.00  0.00    +0.248 A 
BRANCH  18  22
ATOM     22  C   UNL     1       0.701   2.179  23.919  0.00  0.00    +0.039 A 
ATOM     23  C   UNL     1       2.035   2.368  23.556  0.00  0.00    +0.017 A 
ATOM     24  C   UNL     1       0.141   0.902  23.877  0.00  0.00    +0.017 A 
ATOM     26  C   UNL     1       2.809   1.281  23.151  0.00  0.00    +0.046 A 
ATOM     27  C   UNL     1       0.914  -0.185  23.471  0.00  0.00    +0.046 A 
ATOM     28  C   UNL     1       2.248   0.004  23.108  0.00  0.00    +0.120 A 
BRANCH  28   5
ATOM      5  O   UNL     1       3.004  -1.058  22.715  0.00  0.00    -0.495 OA
ATOM     29  C   UNL     1       4.174  -1.340  23.481  0.00  0.00    +0.277 C 
ENDBRANCH  28   5
ENDBRANCH  18  22
ENDBRANCH   9  14
BRANCH   6  13
ATOM     13  C   UNL     1      -5.909   1.850  25.913  0.00  0.00    +0.119 C 
BRANCH  13  15
ATOM     15  C   UNL     1      -5.018   0.708  25.502  0.00  0.00    -0.033 A 
ATOM     16  C   UNL     1      -4.780   0.459  24.151  0.00  0.00    +0.007 A 
ATOM     17  C   UNL     1      -4.428  -0.100  26.475  0.00  0.00    +0.007 A 
ATOM     19  C   UNL     1      -3.955  -0.599  23.772  0.00  0.00    +0.027 A 
ATOM     20  C   UNL     1      -3.602  -1.158  26.096  0.00  0.00    +0.027 A 
ATOM     21  C   UNL     1      -3.365  -1.407  24.743  0.00  0.00    +0.088 A 
BRANCH  21   1
ATOM      1  S   UNL     1      -2.328  -2.730  24.268  0.00  0.00    -0.006 S 
ATOM      3  O   UNL     1      -3.121  -3.950  24.200  0.00  0.00    -0.170 OA
ATOM      4  O   UNL     1      -1.561  -2.301  23.107  0.00  0.00    -0.170 OA
ATOM     25  C   UNL     1      -1.201  -2.919  25.630  0.00  0.00    +0.200 C 
ENDBRANCH  21   1
ENDBRANCH  13  15
ENDBRANCH   6  13
TORSDOF 6
ENDMDL
MODEL 2
REMARK VINA RESULT:       4.8      2.890      5.746
REMARK  Name = 51137517
REMARK  8 active torsions:
REMARK  status: ('A' for Active; 'I' for Inactive)
REMARK    1  A    between atoms: S_1  and  C_21
REMARK    2  A    between atoms: S_1  and  C_25
REMARK    3  A    between atoms: O_5  and  C_28
REMARK    4  A    between atoms: O_5  and  C_29
REMARK    5  A    between atoms: N_6  and  C_13
REMARK    6  A    between atoms: C_9  and  C_14
REMARK    7  A    between atoms: C_13  and  C_15
REMARK    8  A    between atoms: C_18  and  C_22
REMARK                            x       y       z     vdW  Elec       q    Type
REMARK                         _______ _______ _______ _____ _____    ______ ____
ROOT
ATOM      6  N   UNL     1      -1.559  -3.142  24.485  0.00  0.00    -0.297 NA
ATOM      9  C   UNL     1       0.257  -1.785  23.885  0.00  0.00    +0.092 C 
ATOM     10  C   UNL     1       0.548  -2.468  25.233  0.00  0.00    +0.029 C 
ATOM     11  C   UNL     1      -1.254  -1.957  23.681  0.00  0.00    +0.097 C 
ATOM     12  C   UNL     1      -0.807  -2.960  25.726  0.00  0.00    +0.085 C 
ENDROOT
BRANCH   9  14
ATOM      2  O   UNL     1      -0.173   0.600  24.232  0.00  0.00    -0.420 OA
ATOM      7  N   UNL     1       1.833   0.154  23.349  0.00  0.00    -0.112 NA
ATOM      8  N   UNL     1       1.724   1.525  23.489  0.00  0.00    -0.107 NA
ATOM     14  C   UNL     1       0.704  -0.345  23.795  0.00  0.00    +0.222 A 
ATOM     18  C   UNL     1       0.539   1.740  24.009  0.00  0.00    +0.248 A 
BRANCH  18  22
ATOM     22  C   UNL     1      -0.112   2.966  24.370  0.00  0.00    +0.039 A 
ATOM     23  C   UNL     1       0.164   4.137  23.662  0.00  0.00    +0.017 A 
ATOM     24  C   UNL     1      -1.022   2.988  25.427  0.00  0.00    +0.017 A 
ATOM     26  C   UNL     1      -0.469   5.329  24.013  0.00  0.00    +0.046 A 
ATOM     27  C   UNL     1      -1.654   4.181  25.779  0.00  0.00    +0.046 A 
ATOM     28  C   UNL     1      -1.378   5.351  25.071  0.00  0.00    +0.120 A 
BRANCH  28   5
ATOM      5  O   UNL     1      -1.998   6.514  25.412  0.00  0.00    -0.495 OA
ATOM     29  C   UNL     1      -2.406   7.368  24.344  0.00  0.00    +0.277 C 
ENDBRANCH  28   5
ENDBRANCH  18  22
ENDBRANCH   9  14
BRANCH   6  13
ATOM     13  C   UNL     1      -2.986  -3.301  24.721  0.00  0.00    +0.119 C 
BRANCH  13  15
ATOM     15  C   UNL     1      -3.684  -1.975  24.857  0.00  0.00    -0.033 A 
ATOM     16  C   UNL     1      -4.445  -1.474  23.800  0.00  0.00    +0.007 A 
ATOM     17  C   UNL     1      -3.571  -1.245  26.041  0.00  0.00    +0.007 A 
ATOM     19  C   UNL     1      -5.091  -0.245  23.927  0.00  0.00    +0.027 A 
ATOM     20  C   UNL     1      -4.218  -0.016  26.169  0.00  0.00    +0.027 A 
ATOM     21  C   UNL     1      -4.979   0.484  25.111  0.00  0.00    +0.088 A 
BRANCH  21   1
ATOM      1  S   UNL     1      -5.792   2.021  25.270  0.00  0.00    -0.006 S 
ATOM      3  O   UNL     1      -7.041   1.974  24.522  0.00  0.00    -0.170 OA
ATOM      4  O   UNL     1      -5.808   2.374  26.683  0.00  0.00    -0.170 OA
ATOM     25  C   UNL     1      -4.729   3.173  24.431  0.00  0.00    +0.200 C 
ENDBRANCH  21   1
ENDBRANCH  13  15
ENDBRANCH   6  13
TORSDOF 6
ENDMDL
MODEL 3
REMARK VINA RESULT:       4.9      1.788      5.315
REMARK  Name = 51137517
REMARK  8 active torsions:
REMARK  status: ('A' for Active; 'I' for Inactive)
REMARK    1  A    between atoms: S_1  and  C_21
REMARK    2  A    between atoms: S_1  and  C_25
REMARK    3  A    between atoms: O_5  and  C_28
REMARK    4  A    between atoms: O_5  and  C_29
REMARK    5  A    between atoms: N_6  and  C_13
REMARK    6  A    between atoms: C_9  and  C_14
REMARK    7  A    between atoms: C_13  and  C_15
REMARK    8  A    between atoms: C_18  and  C_22
REMARK                            x       y       z     vdW  Elec       q    Type
REMARK                         _______ _______ _______ _____ _____    ______ ____
ROOT
ATOM      6  N   UNL     1      -2.379   5.307  25.483  0.00  0.00    -0.297 NA
ATOM      9  C   UNL     1      -4.446   4.202  25.520  0.00  0.00    +0.092 C 
ATOM     10  C   UNL     1      -4.043   4.587  26.954  0.00  0.00    +0.029 C 
ATOM     11  C   UNL     1      -3.155   4.342  24.703  0.00  0.00    +0.097 C 
ATOM     12  C   UNL     1      -2.553   4.894  26.875  0.00  0.00    +0.085 C 
ENDROOT
BRANCH   9  14
ATOM      2  O   UNL     1      -4.253   1.794  25.116  0.00  0.00    -0.420 OA
ATOM      7  N   UNL     1      -6.346   2.492  25.488  0.00  0.00    -0.112 NA
ATOM      8  N   UNL     1      -6.382   1.127  25.277  0.00  0.00    -0.107 NA
ATOM     14  C   UNL     1      -5.084   2.839  25.385  0.00  0.00    +0.222 A 
ATOM     18  C   UNL     1      -5.140   0.762  25.064  0.00  0.00    +0.248 A 
BRANCH  18  22
ATOM     22  C   UNL     1      -4.581  -0.531  24.790  0.00  0.00    +0.039 A 
ATOM     23  C   UNL     1      -4.943  -1.215  23.630  0.00  0.00    +0.017 A 
ATOM     24  C   UNL     1      -3.675  -1.102  25.684  0.00  0.00    +0.017 A 
ATOM     26  C   UNL     1      -4.400  -2.472  23.363  0.00  0.00    +0.046 A 
ATOM     27  C   UNL     1      -3.133  -2.359  25.417  0.00  0.00    +0.046 A 
ATOM     28  C   UNL     1      -3.495  -3.044  24.256  0.00  0.00    +0.120 A 
BRANCH  28   5
ATOM      5  O   UNL     1      -2.963  -4.269  23.995  0.00  0.00    -0.495 OA
ATOM     29  C   UNL     1      -1.823  -4.311  23.137  0.00  0.00    +0.277 C 
ENDBRANCH  28   5
ENDBRANCH  18  22
ENDBRANCH   9  14
BRANCH   6  13
ATOM     13  C   UNL     1      -0.979   5.344  25.087  0.00  0.00    +0.119 C 
BRANCH  13  15
ATOM     15  C   UNL     1      -0.487   3.993  24.638  0.00  0.00    -0.033 A 
ATOM     16  C   UNL     1      -0.631   3.606  23.306  0.00  0.00    +0.007 A 
ATOM     17  C   UNL     1       0.114   3.130  25.554  0.00  0.00    +0.007 A 
ATOM     19  C   UNL     1      -0.176   2.355  22.890  0.00  0.00    +0.027 A 
ATOM     20  C   UNL     1       0.570   1.879  25.139  0.00  0.00    +0.027 A 
ATOM     21  C   UNL     1       0.425   1.492  23.806  0.00  0.00    +0.088 A 
BRANCH  21   1
ATOM      1  S   UNL     1       0.999  -0.073  23.284  0.00  0.00    -0.006 S 
ATOM      3  O   UNL     1       0.734  -1.047  24.335  0.00  0.00    -0.170 OA
ATOM      4  O   UNL     1       0.497  -0.307  21.938  0.00  0.00    -0.170 OA
ATOM     25  C   UNL     1       2.764   0.115  23.185  0.00  0.00    +0.200 C 
ENDBRANCH  21   1
ENDBRANCH  13  15
ENDBRANCH   6  13
TORSDOF 6
ENDMDL
MODEL 4
REMARK VINA RESULT:       4.9      2.875      5.200
REMARK  Name = 51137517
REMARK  8 active torsions:
REMARK  status: ('A' for Active; 'I' for Inactive)
REMARK    1  A    between atoms: S_1  and  C_21
REMARK    2  A    between atoms: S_1  and  C_25
REMARK    3  A    between atoms: O_5  and  C_28
REMARK    4  A    between atoms: O_5  and  C_29
REMARK    5  A    between atoms: N_6  and  C_13
REMARK    6  A    between atoms: C_9  and  C_14
REMARK    7  A    between atoms: C_13  and  C_15
REMARK    8  A    between atoms: C_18  and  C_22
REMARK                            x       y       z     vdW  Elec       q    Type
REMARK                         _______ _______ _______ _____ _____    ______ ____
ROOT
ATOM      6  N   UNL     1      -5.602   0.557  24.993  0.00  0.00    -0.297 NA
ATOM      9  C   UNL     1      -4.239  -1.323  24.672  0.00  0.00    +0.092 C 
ATOM     10  C   UNL     1      -4.553  -1.165  26.170  0.00  0.00    +0.029 C 
ATOM     11  C   UNL     1      -4.613   0.030  24.052  0.00  0.00    +0.097 C 
ATOM     12  C   UNL     1      -5.056   0.265  26.318  0.00  0.00    +0.085 C 
ENDROOT
BRANCH   9  14
ATOM      2  O   UNL     1      -1.913  -0.745  24.170  0.00  0.00    -0.420 OA
ATOM      7  N   UNL     1      -2.310  -2.945  24.245  0.00  0.00    -0.112 NA
ATOM      8  N   UNL     1      -0.971  -2.763  23.955  0.00  0.00    -0.107 NA
ATOM     14  C   UNL     1      -2.820  -1.741  24.362  0.00  0.00    +0.222 A 
ATOM     18  C   UNL     1      -0.784  -1.464  23.921  0.00  0.00    +0.248 A 
BRANCH  18  22
ATOM     22  C   UNL     1       0.403  -0.700  23.667  0.00  0.00    +0.039 A 
ATOM     23  C   UNL     1       0.389   0.685  23.832  0.00  0.00    +0.017 A 
ATOM     24  C   UNL     1       1.572  -1.342  23.257  0.00  0.00    +0.017 A 
ATOM     26  C   UNL     1       1.544   1.429  23.586  0.00  0.00    +0.046 A 
ATOM     27  C   UNL     1       2.726  -0.599  23.010  0.00  0.00    +0.046 A 
ATOM     28  C   UNL     1       2.712   0.787  23.175  0.00  0.00    +0.120 A 
BRANCH  28   5
ATOM      5  O   UNL     1       3.839   1.512  22.937  0.00  0.00    -0.495 OA
ATOM     29  C   UNL     1       5.088   0.866  23.179  0.00  0.00    +0.277 C 
ENDBRANCH  28   5
ENDBRANCH  18  22
ENDBRANCH   9  14
BRANCH   6  13
ATOM     13  C   UNL     1      -5.853   1.978  24.798  0.00  0.00    +0.119 C 
BRANCH  13  15
ATOM     15  C   UNL     1      -4.577   2.777  24.790  0.00  0.00    -0.033 A 
ATOM     16  C   UNL     1      -4.283   3.633  25.851  0.00  0.00    +0.007 A 
ATOM     17  C   UNL     1      -3.687   2.660  23.722  0.00  0.00    +0.007 A 
ATOM     19  C   UNL     1      -3.101   4.373  25.843  0.00  0.00    +0.027 A 
ATOM     20  C   UNL     1      -2.505   3.399  23.714  0.00  0.00    +0.027 A 
ATOM     21  C   UNL     1      -2.212   4.256  24.775  0.00  0.00    +0.088 A 
BRANCH  21   1
ATOM      1  S   UNL     1      -0.730   5.180  24.768  0.00  0.00    -0.006 S 
ATOM      3  O   UNL     1      -1.050   6.587  24.974  0.00  0.00    -0.170 OA
ATOM      4  O   UNL     1       0.215   4.517  25.654  0.00  0.00    -0.170 OA
ATOM     25  C   UNL     1      -0.121   5.026  23.104  0.00  0.00    +0.200 C 
ENDBRANCH  21   1
ENDBRANCH  13  15
ENDBRANCH   6  13
TORSDOF 6
ENDMDL
MODEL 5
REMARK VINA RESULT:       5.3      2.894      5.217
REMARK  Name = 51137517
REMARK  8 active torsions:
REMARK  status: ('A' for Active; 'I' for Inactive)
REMARK    1  A    between atoms: S_1  and  C_21
REMARK    2  A    between atoms: S_1  and  C_25
REMARK    3  A    between atoms: O_5  and  C_28
REMARK    4  A    between atoms: O_5  and  C_29
REMARK    5  A    between atoms: N_6  and  C_13
REMARK    6  A    between atoms: C_9  and  C_14
REMARK    7  A    between atoms: C_13  and  C_15
REMARK    8  A    between atoms: C_18  and  C_22
REMARK                            x       y       z     vdW  Elec       q    Type
REMARK                         _______ _______ _______ _____ _____    ______ ____
ROOT
ATOM      6  N   UNL     1      -3.470  -2.018  24.400  0.00  0.00    -0.297 NA
ATOM      9  C   UNL     1      -1.204  -1.770  23.849  0.00  0.00    +0.092 C 
ATOM     10  C   UNL     1      -1.332  -2.214  25.317  0.00  0.00    +0.029 C 
ATOM     11  C   UNL     1      -2.610  -1.289  23.466  0.00  0.00    +0.097 C 
ATOM     12  C   UNL     1      -2.782  -1.937  25.688  0.00  0.00    +0.085 C 
ENDROOT
BRANCH   9  14
ATOM      2  O   UNL     1       1.158  -1.142  23.695  0.00  0.00    -0.420 OA
ATOM      7  N   UNL     1      -0.262   0.535  23.275  0.00  0.00    -0.112 NA
ATOM      8  N   UNL     1       1.025   1.025  23.154  0.00  0.00    -0.107 NA
ATOM     14  C   UNL     1      -0.136  -0.733  23.591  0.00  0.00    +0.222 A 
ATOM     18  C   UNL     1       1.820   0.013  23.407  0.00  0.00    +0.248 A 
BRANCH  18  22
ATOM     22  C   UNL     1       3.253  -0.065  23.428  0.00  0.00    +0.039 A 
ATOM     23  C   UNL     1       4.016   1.025  23.008  0.00  0.00    +0.017 A 
ATOM     24  C   UNL     1       3.882  -1.229  23.869  0.00  0.00    +0.017 A 
ATOM     26  C   UNL     1       5.409   0.950  23.029  0.00  0.00    +0.046 A 
ATOM     27  C   UNL     1       5.274  -1.304  23.889  0.00  0.00    +0.046 A 
ATOM     28  C   UNL     1       6.038  -0.214  23.469  0.00  0.00    +0.120 A 
BRANCH  28   5
ATOM      5  O   UNL     1       7.397  -0.286  23.492  0.00  0.00    -0.495 OA
ATOM     29  C   UNL     1       8.026  -1.000  22.428  0.00  0.00    +0.277 C 
ENDBRANCH  28   5
ENDBRANCH  18  22
ENDBRANCH   9  14
BRANCH   6  13
ATOM     13  C   UNL     1      -4.818  -1.473  24.456  0.00  0.00    +0.119 C 
BRANCH  13  15
ATOM     15  C   UNL     1      -4.812   0.022  24.633  0.00  0.00    -0.033 A 
ATOM     16  C   UNL     1      -5.799   0.638  25.402  0.00  0.00    +0.007 A 
ATOM     17  C   UNL     1      -3.817   0.792  24.028  0.00  0.00    +0.007 A 
ATOM     19  C   UNL     1      -5.793   2.023  25.565  0.00  0.00    +0.027 A 
ATOM     20  C   UNL     1      -3.810   2.177  24.192  0.00  0.00    +0.027 A 
ATOM     21  C   UNL     1      -4.799   2.792  24.962  0.00  0.00    +0.088 A 
BRANCH  21   1
ATOM      1  S   UNL     1      -4.789   4.526  25.170  0.00  0.00    -0.006 S 
ATOM      3  O   UNL     1      -4.394   5.150  23.914  0.00  0.00    -0.170 OA
ATOM      4  O   UNL     1      -6.043   4.908  25.803  0.00  0.00    -0.170 OA
ATOM     25  C   UNL     1      -3.477   4.824  26.332  0.00  0.00    +0.200 C 
ENDBRANCH  21   1
ENDBRANCH  13  15
ENDBRANCH   6  13
TORSDOF 6
ENDMDL
MODEL 6
REMARK VINA RESULT:       5.5      2.617      5.359
REMARK  Name = 51137517
REMARK  8 active torsions:
REMARK  status: ('A' for Active; 'I' for Inactive)
REMARK    1  A    between atoms: S_1  and  C_21
REMARK    2  A    between atoms: S_1  and  C_25
REMARK    3  A    between atoms: O_5  and  C_28
REMARK    4  A    between atoms: O_5  and  C_29
REMARK    5  A    between atoms: N_6  and  C_13
REMARK    6  A    between atoms: C_9  and  C_14
REMARK    7  A    between atoms: C_13  and  C_15
REMARK    8  A    between atoms: C_18  and  C_22
REMARK                            x       y       z     vdW  Elec       q    Type
REMARK                         _______ _______ _______ _____ _____    ______ ____
ROOT
ATOM      6  N   UNL     1      -0.673   5.250  24.857  0.00  0.00    -0.297 NA
ATOM      9  C   UNL     1       0.664   3.362  24.476  0.00  0.00    +0.092 C 
ATOM     10  C   UNL     1       0.710   4.283  23.244  0.00  0.00    +0.029 C 
ATOM     11  C   UNL     1      -0.543   3.856  25.284  0.00  0.00    +0.097 C 
ATOM     12  C   UNL     1      -0.479   5.220  23.407  0.00  0.00    +0.085 C 
ENDROOT
BRANCH   9  14
ATOM      2  O   UNL     1      -0.604   1.272  24.335  0.00  0.00    -0.420 OA
ATOM      7  N   UNL     1       1.542   1.078  23.737  0.00  0.00    -0.112 NA
ATOM      8  N   UNL     1       0.951  -0.165  23.612  0.00  0.00    -0.107 NA
ATOM     14  C   UNL     1       0.598   1.885  24.162  0.00  0.00    +0.222 A 
ATOM     18  C   UNL     1      -0.302  -0.005  23.971  0.00  0.00    +0.248 A 
BRANCH  18  22
ATOM     22  C   UNL     1      -1.380  -0.948  24.038  0.00  0.00    +0.039 A 
ATOM     23  C   UNL     1      -2.663  -0.570  23.643  0.00  0.00    +0.017 A 
ATOM     24  C   UNL     1      -1.145  -2.245  24.497  0.00  0.00    +0.017 A 
ATOM     26  C   UNL     1      -3.712  -1.488  23.708  0.00  0.00    +0.046 A 
ATOM     27  C   UNL     1      -2.193  -3.162  24.563  0.00  0.00    +0.046 A 
ATOM     28  C   UNL     1      -3.477  -2.783  24.167  0.00  0.00    +0.120 A 
BRANCH  28   5
ATOM      5  O   UNL     1      -4.499  -3.680  24.228  0.00  0.00    -0.495 OA
ATOM     29  C   UNL     1      -5.514  -3.575  23.230  0.00  0.00    +0.277 C 
ENDBRANCH  28   5
ENDBRANCH  18  22
ENDBRANCH   9  14
BRANCH   6  13
ATOM     13  C   UNL     1      -1.955   5.829  25.232  0.00  0.00    +0.119 C 
BRANCH  13  15
ATOM     15  C   UNL     1      -3.040   4.789  25.307  0.00  0.00    -0.033 A 
ATOM     16  C   UNL     1      -3.502   4.176  24.143  0.00  0.00    +0.007 A 
ATOM     17  C   UNL     1      -3.585   4.437  26.543  0.00  0.00    +0.007 A 
ATOM     19  C   UNL     1      -4.507   3.213  24.213  0.00  0.00    +0.027 A 
ATOM     20  C   UNL     1      -4.590   3.473  26.614  0.00  0.00    +0.027 A 
ATOM     21  C   UNL     1      -5.051   2.860  25.448  0.00  0.00    +0.088 A 
BRANCH  21   1
ATOM      1  S   UNL     1      -6.308   1.650  25.535  0.00  0.00    -0.006 S 
ATOM      3  O   UNL     1      -6.907   1.688  26.863  0.00  0.00    -0.170 OA
ATOM      4  O   UNL     1      -7.151   1.796  24.358  0.00  0.00    -0.170 OA
ATOM     25  C   UNL     1      -5.442   0.103  25.401  0.00  0.00    +0.200 C 
ENDBRANCH  21   1
ENDBRANCH  13  15
ENDBRANCH   6  13
TORSDOF 6
ENDMDL
