MODEL 1
REMARK VINA RESULT:      -2.9      0.000      0.000
REMARK  Name = 40777187
REMARK  5 active torsions:
REMARK  status: ('A' for Active; 'I' for Inactive)
REMARK    1  A    between atoms: N_3  and  C_13
REMARK    2  A    between atoms: N_4  and  C_14
REMARK    3  A    between atoms: N_5  and  C_24
REMARK    4  A    between atoms: C_7  and  C_13
REMARK    5  A    between atoms: C_8  and  C_14
REMARK                            x       y       z     vdW  Elec       q    Type
REMARK                         _______ _______ _______ _____ _____    ______ ____
ROOT
ATOM      2  N   UNL     1      -0.834   3.464  24.624  0.00  0.00    -0.298 NA
ATOM      6  C   UNL     1      -3.177   4.557  24.905  0.00  0.00    -0.002 C 
ATOM      7  C   UNL     1      -2.771   3.787  26.183  0.00  0.00    +0.023 C 
ATOM      8  C   UNL     1      -1.713   3.085  23.484  0.00  0.00    +0.074 C 
ATOM      9  C   UNL     1      -3.154   3.598  23.701  0.00  0.00    +0.024 C 
ATOM     10  C   UNL     1      -1.445   3.041  25.907  0.00  0.00    +0.090 C 
ATOM     11  C   UNL     1      -2.091   5.622  24.661  0.00  0.00    +0.019 C 
ATOM     12  C   UNL     1      -0.711   4.941  24.634  0.00  0.00    +0.085 C 
ENDROOT
BRANCH   7  13
ATOM     13  C   UNL     1      -3.857   2.837  26.683  0.00  0.00    +0.110 C 
BRANCH  13   3
ATOM      3  N   UNL     1      -4.313   2.004  25.599  0.00  0.00    -0.329 N 
ATOM     15  C   UNL     1      -5.674   2.076  25.072  0.00  0.00    +0.110 C 
ATOM     16  C   UNL     1      -3.851   0.718  25.358  0.00  0.00    +0.033 A 
ATOM     17  C   UNL     1      -5.815   0.923  24.059  0.00  0.00    +0.056 C 
ATOM     18  C   UNL     1      -4.693   0.028  24.475  0.00  0.00    -0.025 A 
ATOM     19  C   UNL     1      -2.717   0.095  25.855  0.00  0.00    +0.023 A 
ATOM     21  C   UNL     1      -4.428  -1.268  24.068  0.00  0.00    +0.005 A 
ATOM     22  C   UNL     1      -2.441  -1.219  25.461  0.00  0.00    +0.002 A 
ATOM     23  C   UNL     1      -3.291  -1.895  24.574  0.00  0.00    +0.000 A 
ENDBRANCH  13   3
ENDBRANCH   7  13
BRANCH   8  14
ATOM     14  C   UNL     1      -1.682   1.582  23.197  0.00  0.00    +0.124 C 
BRANCH  14   4
ATOM      1  O   UNL     1       0.630   0.747  24.668  0.00  0.00    -0.253 OA
ATOM      4  N   UNL     1      -0.401   1.221  22.653  0.00  0.00    -0.298 N 
ATOM      5  N   UNL     1       1.795   0.533  22.641  0.00  0.00    -0.269 N 
ATOM     20  C   UNL     1       0.687   0.821  23.442  0.00  0.00    +0.304 C 
ATOM     30  H   UNL     1      -0.279   1.260  21.645  0.00  0.00    +0.150 HD
ATOM     31  H   UNL     1       1.674   0.647  21.637  0.00  0.00    +0.156 HD
BRANCH   5  24
ATOM     24  C   UNL     1       3.077   0.101  23.054  0.00  0.00    +0.035 A 
ATOM     25  C   UNL     1       4.156   0.983  23.017  0.00  0.00    +0.023 A 
ATOM     26  C   UNL     1       3.261  -1.209  23.498  0.00  0.00    +0.023 A 
ATOM     27  C   UNL     1       5.420   0.556  23.424  0.00  0.00    +0.002 A 
ATOM     28  C   UNL     1       4.525  -1.636  23.904  0.00  0.00    +0.002 A 
ATOM     29  C   UNL     1       5.605  -0.753  23.868  0.00  0.00    +0.000 A 
ENDBRANCH   5  24
ENDBRANCH  14   4
ENDBRANCH   8  14
TORSDOF 5
ENDMDL
MODEL 2
REMARK VINA RESULT:      -2.8      1.279      4.103
REMARK  Name = 40777187
REMARK  5 active torsions:
REMARK  status: ('A' for Active; 'I' for Inactive)
REMARK    1  A    between atoms: N_3  and  C_13
REMARK    2  A    between atoms: N_4  and  C_14
REMARK    3  A    between atoms: N_5  and  C_24
REMARK    4  A    between atoms: C_7  and  C_13
REMARK    5  A    between atoms: C_8  and  C_14
REMARK                            x       y       z     vdW  Elec       q    Type
REMARK                         _______ _______ _______ _____ _____    ______ ____
ROOT
ATOM      2  N   UNL     1      -3.092  -1.677  23.951  0.00  0.00    -0.298 NA
ATOM      6  C   UNL     1      -3.530  -0.016  25.904  0.00  0.00    -0.002 C 
ATOM      7  C   UNL     1      -4.639   0.090  24.831  0.00  0.00    +0.023 C 
ATOM      8  C   UNL     1      -1.880  -0.849  24.198  0.00  0.00    +0.074 C 
ATOM      9  C   UNL     1      -2.161   0.245  25.251  0.00  0.00    +0.024 C 
ATOM     10  C   UNL     1      -4.251  -0.808  23.634  0.00  0.00    +0.090 C 
ATOM     11  C   UNL     1      -3.528  -1.474  26.402  0.00  0.00    +0.019 C 
ATOM     12  C   UNL     1      -3.398  -2.421  25.196  0.00  0.00    +0.085 C 
ENDROOT
BRANCH   7  13
ATOM     13  C   UNL     1      -4.916   1.526  24.391  0.00  0.00    +0.110 C 
BRANCH  13   3
ATOM      3  N   UNL     1      -4.177   2.441  25.225  0.00  0.00    -0.329 N 
ATOM     15  C   UNL     1      -4.824   3.300  26.213  0.00  0.00    +0.110 C 
ATOM     16  C   UNL     1      -3.009   3.079  24.834  0.00  0.00    +0.033 A 
ATOM     17  C   UNL     1      -3.733   4.241  26.761  0.00  0.00    +0.056 C 
ATOM     18  C   UNL     1      -2.701   4.150  25.684  0.00  0.00    -0.025 A 
ATOM     19  C   UNL     1      -2.168   2.781  23.772  0.00  0.00    +0.023 A 
ATOM     21  C   UNL     1      -1.570   4.928  25.507  0.00  0.00    +0.005 A 
ATOM     22  C   UNL     1      -1.026   3.564  23.574  0.00  0.00    +0.002 A 
ATOM     23  C   UNL     1      -0.730   4.630  24.436  0.00  0.00    +0.000 A 
ENDBRANCH  13   3
ENDBRANCH   7  13
BRANCH   8  14
ATOM     14  C   UNL     1      -1.300  -0.262  22.909  0.00  0.00    +0.124 C 
BRANCH  14   4
ATOM      1  O   UNL     1       1.091   0.932  23.938  0.00  0.00    -0.253 OA
ATOM      4  N   UNL     1       0.044  -0.735  22.725  0.00  0.00    -0.298 N 
ATOM      5  N   UNL     1       2.337  -0.778  22.921  0.00  0.00    -0.269 N 
ATOM     20  C   UNL     1       1.168  -0.092  23.264  0.00  0.00    +0.304 C 
ATOM     30  H   UNL     1       0.186  -1.578  22.176  0.00  0.00    +0.150 HD
ATOM     31  H   UNL     1       2.225  -1.615  22.352  0.00  0.00    +0.156 HD
BRANCH   5  24
ATOM     24  C   UNL     1       3.669  -0.452  23.268  0.00  0.00    +0.035 A 
ATOM     25  C   UNL     1       4.478  -1.398  23.895  0.00  0.00    +0.023 A 
ATOM     26  C   UNL     1       4.172   0.818  22.984  0.00  0.00    +0.023 A 
ATOM     27  C   UNL     1       5.791  -1.076  24.238  0.00  0.00    +0.002 A 
ATOM     28  C   UNL     1       5.485   1.140  23.326  0.00  0.00    +0.002 A 
ATOM     29  C   UNL     1       6.295   0.192  23.953  0.00  0.00    +0.000 A 
ENDBRANCH   5  24
ENDBRANCH  14   4
ENDBRANCH   8  14
TORSDOF 5
ENDMDL
MODEL 3
REMARK VINA RESULT:      -2.4     18.460     20.394
REMARK  Name = 40777187
REMARK  5 active torsions:
REMARK  status: ('A' for Active; 'I' for Inactive)
REMARK    1  A    between atoms: N_3  and  C_13
REMARK    2  A    between atoms: N_4  and  C_14
REMARK    3  A    between atoms: N_5  and  C_24
REMARK    4  A    between atoms: C_7  and  C_13
REMARK    5  A    between atoms: C_8  and  C_14
REMARK                            x       y       z     vdW  Elec       q    Type
REMARK                         _______ _______ _______ _____ _____    ______ ____
ROOT
ATOM      2  N   UNL     1      15.158 -10.677  26.044  0.00  0.00    -0.298 NA
ATOM      6  C   UNL     1      14.902  -8.201  25.290  0.00  0.00    -0.002 C 
ATOM      7  C   UNL     1      16.134  -8.855  24.624  0.00  0.00    +0.023 C 
ATOM      8  C   UNL     1      15.037  -9.792  27.234  0.00  0.00    +0.074 C 
ATOM      9  C   UNL     1      15.033  -8.304  26.820  0.00  0.00    +0.024 C 
ATOM     10  C   UNL     1      16.321 -10.270  25.217  0.00  0.00    +0.090 C 
ATOM     11  C   UNL     1      13.676  -9.038  24.880  0.00  0.00    +0.019 C 
ATOM     12  C   UNL     1      13.931 -10.515  25.227  0.00  0.00    +0.085 C 
ENDROOT
BRANCH   7  13
ATOM     13  C   UNL     1      17.405  -8.018  24.757  0.00  0.00    +0.110 C 
BRANCH  13   3
ATOM      3  N   UNL     1      17.121  -6.645  24.421  0.00  0.00    -0.329 N 
ATOM     15  C   UNL     1      17.352  -6.099  23.085  0.00  0.00    +0.110 C 
ATOM     16  C   UNL     1      17.220  -5.589  25.314  0.00  0.00    +0.033 A 
ATOM     17  C   UNL     1      17.096  -4.582  23.179  0.00  0.00    +0.056 C 
ATOM     18  C   UNL     1      17.224  -4.354  24.651  0.00  0.00    -0.025 A 
ATOM     19  C   UNL     1      17.298  -5.625  26.698  0.00  0.00    +0.023 A 
ATOM     21  C   UNL     1      17.297  -3.153  25.333  0.00  0.00    +0.005 A 
ATOM     22  C   UNL     1      17.382  -4.419  27.402  0.00  0.00    +0.002 A 
ATOM     23  C   UNL     1      17.381  -3.191  26.724  0.00  0.00    +0.000 A 
ENDBRANCH  13   3
ENDBRANCH   7  13
BRANCH   8  14
ATOM     14  C   UNL     1      16.104 -10.086  28.291  0.00  0.00    +0.124 C 
BRANCH  14   4
ATOM      1  O   UNL     1      16.226  -7.274  28.824  0.00  0.00    -0.253 OA
ATOM      4  N   UNL     1      15.758  -9.428  29.522  0.00  0.00    -0.298 N 
ATOM      5  N   UNL     1      15.444  -7.691  30.998  0.00  0.00    -0.269 N 
ATOM     20  C   UNL     1      15.844  -8.041  29.705  0.00  0.00    +0.304 C 
ATOM     30  H   UNL     1      15.435  -9.999  30.297  0.00  0.00    +0.150 HD
ATOM     31  H   UNL     1      15.155  -8.453  31.608  0.00  0.00    +0.156 HD
BRANCH   5  24
ATOM     24  C   UNL     1      15.389  -6.398  31.570  0.00  0.00    +0.035 A 
ATOM     25  C   UNL     1      14.183  -5.699  31.597  0.00  0.00    +0.023 A 
ATOM     26  C   UNL     1      16.541  -5.824  32.107  0.00  0.00    +0.023 A 
ATOM     27  C   UNL     1      14.129  -4.424  32.162  0.00  0.00    +0.002 A 
ATOM     28  C   UNL     1      16.487  -4.550  32.670  0.00  0.00    +0.002 A 
ATOM     29  C   UNL     1      15.281  -3.850  32.698  0.00  0.00    +0.000 A 
ENDBRANCH   5  24
ENDBRANCH  14   4
ENDBRANCH   8  14
TORSDOF 5
ENDMDL
MODEL 4
REMARK VINA RESULT:      -2.0      1.104      2.049
REMARK  Name = 40777187
REMARK  5 active torsions:
REMARK  status: ('A' for Active; 'I' for Inactive)
REMARK    1  A    between atoms: N_3  and  C_13
REMARK    2  A    between atoms: N_4  and  C_14
REMARK    3  A    between atoms: N_5  and  C_24
REMARK    4  A    between atoms: C_7  and  C_13
REMARK    5  A    between atoms: C_8  and  C_14
REMARK                            x       y       z     vdW  Elec       q    Type
REMARK                         _______ _______ _______ _____ _____    ______ ____
ROOT
ATOM      2  N   UNL     1      -1.722   3.021  24.400  0.00  0.00    -0.298 NA
ATOM      6  C   UNL     1      -4.298   3.102  24.050  0.00  0.00    -0.002 C 
ATOM      7  C   UNL     1      -3.944   2.408  25.386  0.00  0.00    +0.023 C 
ATOM      8  C   UNL     1      -2.072   2.464  23.065  0.00  0.00    +0.074 C 
ATOM      9  C   UNL     1      -3.604   2.362  22.892  0.00  0.00    +0.024 C 
ATOM     10  C   UNL     1      -2.408   2.259  25.471  0.00  0.00    +0.090 C 
ATOM     11  C   UNL     1      -3.699   4.520  24.110  0.00  0.00    +0.019 C 
ATOM     12  C   UNL     1      -2.202   4.424  24.450  0.00  0.00    +0.085 C 
ENDROOT
BRANCH   7  13
ATOM     13  C   UNL     1      -4.651   1.068  25.574  0.00  0.00    +0.110 C 
BRANCH  13   3
ATOM      3  N   UNL     1      -3.673   0.020  25.728  0.00  0.00    -0.329 N 
ATOM     15  C   UNL     1      -2.314   0.277  26.198  0.00  0.00    +0.110 C 
ATOM     16  C   UNL     1      -3.620  -1.118  24.935  0.00  0.00    +0.033 A 
ATOM     17  C   UNL     1      -1.540  -1.049  26.057  0.00  0.00    +0.056 C 
ATOM     18  C   UNL     1      -2.394  -1.781  25.072  0.00  0.00    -0.025 A 
ATOM     19  C   UNL     1      -4.592  -1.636  24.093  0.00  0.00    +0.023 A 
ATOM     21  C   UNL     1      -2.112  -2.954  24.394  0.00  0.00    +0.005 A 
ATOM     22  C   UNL     1      -4.319  -2.816  23.392  0.00  0.00    +0.002 A 
ATOM     23  C   UNL     1      -3.088  -3.470  23.542  0.00  0.00    +0.000 A 
ENDBRANCH  13   3
ENDBRANCH   7  13
BRANCH   8  14
ATOM     14  C   UNL     1      -1.379   1.128  22.789  0.00  0.00    +0.124 C 
BRANCH  14   4
ATOM      1  O   UNL     1       0.676  -0.655  23.688  0.00  0.00    -0.253 OA
ATOM      4  N   UNL     1       0.041   1.332  22.690  0.00  0.00    -0.298 N 
ATOM      5  N   UNL     1       2.284   0.875  22.924  0.00  0.00    -0.269 N 
ATOM     20  C   UNL     1       0.987   0.408  23.155  0.00  0.00    +0.304 C 
ATOM     30  H   UNL     1       0.373   2.191  22.262  0.00  0.00    +0.150 HD
ATOM     31  H   UNL     1       2.368   1.782  22.470  0.00  0.00    +0.156 HD
BRANCH   5  24
ATOM     24  C   UNL     1       3.506   0.240  23.245  0.00  0.00    +0.035 A 
ATOM     25  C   UNL     1       4.694   0.970  23.239  0.00  0.00    +0.023 A 
ATOM     26  C   UNL     1       3.523  -1.117  23.567  0.00  0.00    +0.023 A 
ATOM     27  C   UNL     1       5.900   0.344  23.555  0.00  0.00    +0.002 A 
ATOM     28  C   UNL     1       4.728  -1.743  23.884  0.00  0.00    +0.002 A 
ATOM     29  C   UNL     1       5.917  -1.013  23.878  0.00  0.00    +0.000 A 
ENDBRANCH   5  24
ENDBRANCH  14   4
ENDBRANCH   8  14
TORSDOF 5
ENDMDL
MODEL 5
REMARK VINA RESULT:      -0.2      1.729      4.497
REMARK  Name = 40777187
REMARK  5 active torsions:
REMARK  status: ('A' for Active; 'I' for Inactive)
REMARK    1  A    between atoms: N_3  and  C_13
REMARK    2  A    between atoms: N_4  and  C_14
REMARK    3  A    between atoms: N_5  and  C_24
REMARK    4  A    between atoms: C_7  and  C_13
REMARK    5  A    between atoms: C_8  and  C_14
REMARK                            x       y       z     vdW  Elec       q    Type
REMARK                         _______ _______ _______ _____ _____    ______ ____
ROOT
ATOM      2  N   UNL     1      -2.656  -2.290  24.760  0.00  0.00    -0.298 NA
ATOM      6  C   UNL     1      -4.570  -0.650  24.117  0.00  0.00    -0.002 C 
ATOM      7  C   UNL     1      -3.389  -0.535  23.126  0.00  0.00    +0.023 C 
ATOM      8  C   UNL     1      -3.036  -1.464  25.937  0.00  0.00    +0.074 C 
ATOM      9  C   UNL     1      -4.066  -0.381  25.546  0.00  0.00    +0.024 C 
ATOM     10  C   UNL     1      -2.229  -1.420  23.637  0.00  0.00    +0.090 C 
ATOM     11  C   UNL     1      -5.050  -2.113  24.071  0.00  0.00    +0.019 C 
ATOM     12  C   UNL     1      -3.855  -3.048  24.327  0.00  0.00    +0.085 C 
ENDROOT
BRANCH   7  13
ATOM     13  C   UNL     1      -2.937   0.905  22.893  0.00  0.00    +0.110 C 
BRANCH  13   3
ATOM      3  N   UNL     1      -3.411   1.743  23.966  0.00  0.00    -0.329 N 
ATOM     15  C   UNL     1      -4.832   1.998  24.194  0.00  0.00    +0.110 C 
ATOM     16  C   UNL     1      -2.717   2.836  24.464  0.00  0.00    +0.033 A 
ATOM     17  C   UNL     1      -4.915   3.065  25.304  0.00  0.00    +0.056 C 
ATOM     18  C   UNL     1      -3.543   3.656  25.245  0.00  0.00    -0.025 A 
ATOM     19  C   UNL     1      -1.382   3.170  24.293  0.00  0.00    +0.023 A 
ATOM     21  C   UNL     1      -3.071   4.798  25.866  0.00  0.00    +0.005 A 
ATOM     22  C   UNL     1      -0.891   4.327  24.907  0.00  0.00    +0.002 A 
ATOM     23  C   UNL     1      -1.730   5.136  25.688  0.00  0.00    +0.000 A 
ENDBRANCH  13   3
ENDBRANCH   7  13
BRANCH   8  14
ATOM     14  C   UNL     1      -1.820  -0.863  26.646  0.00  0.00    +0.124 C 
BRANCH  14   4
ATOM      1  O   UNL     1       0.435  -1.639  25.061  0.00  0.00    -0.253 OA
ATOM      4  N   UNL     1      -1.088  -0.033  25.729  0.00  0.00    -0.298 N 
ATOM      5  N   UNL     1       0.518   0.536  24.182  0.00  0.00    -0.269 N 
ATOM     20  C   UNL     1       0.010  -0.489  24.985  0.00  0.00    +0.304 C 
ATOM     30  H   UNL     1      -1.382   0.932  25.615  0.00  0.00    +0.150 HD
ATOM     31  H   UNL     1       0.046   1.436  24.238  0.00  0.00    +0.156 HD
BRANCH   5  24
ATOM     24  C   UNL     1       1.615   0.479  23.291  0.00  0.00    +0.035 A 
ATOM     25  C   UNL     1       2.807   1.128  23.610  0.00  0.00    +0.023 A 
ATOM     26  C   UNL     1       1.504  -0.226  22.092  0.00  0.00    +0.023 A 
ATOM     27  C   UNL     1       3.889   1.072  22.731  0.00  0.00    +0.002 A 
ATOM     28  C   UNL     1       2.585  -0.282  21.214  0.00  0.00    +0.002 A 
ATOM     29  C   UNL     1       3.778   0.367  21.534  0.00  0.00    +0.000 A 
ENDBRANCH   5  24
ENDBRANCH  14   4
ENDBRANCH   8  14
TORSDOF 5
ENDMDL
MODEL 6
REMARK VINA RESULT:      -0.0      2.834      5.791
REMARK  Name = 40777187
REMARK  5 active torsions:
REMARK  status: ('A' for Active; 'I' for Inactive)
REMARK    1  A    between atoms: N_3  and  C_13
REMARK    2  A    between atoms: N_4  and  C_14
REMARK    3  A    between atoms: N_5  and  C_24
REMARK    4  A    between atoms: C_7  and  C_13
REMARK    5  A    between atoms: C_8  and  C_14
REMARK                            x       y       z     vdW  Elec       q    Type
REMARK                         _______ _______ _______ _____ _____    ______ ____
ROOT
ATOM      2  N   UNL     1      -1.555  -2.531  23.713  0.00  0.00    -0.298 NA
ATOM      6  C   UNL     1      -3.826  -2.652  24.975  0.00  0.00    -0.002 C 
ATOM      7  C   UNL     1      -3.702  -1.326  24.190  0.00  0.00    +0.023 C 
ATOM      8  C   UNL     1      -1.324  -2.850  25.148  0.00  0.00    +0.074 C 
ATOM      9  C   UNL     1      -2.642  -2.781  25.951  0.00  0.00    +0.024 C 
ATOM     10  C   UNL     1      -2.283  -1.245  23.583  0.00  0.00    +0.090 C 
ATOM     11  C   UNL     1      -3.698  -3.793  23.949  0.00  0.00    +0.019 C 
ATOM     12  C   UNL     1      -2.404  -3.602  23.138  0.00  0.00    +0.085 C 
ENDROOT
BRANCH   7  13
ATOM     13  C   UNL     1      -4.024  -0.094  25.034  0.00  0.00    +0.110 C 
BRANCH  13   3
ATOM      3  N   UNL     1      -4.098   1.070  24.187  0.00  0.00    -0.329 N 
ATOM     15  C   UNL     1      -3.142   1.320  23.110  0.00  0.00    +0.110 C 
ATOM     16  C   UNL     1      -4.574   2.305  24.602  0.00  0.00    +0.033 A 
ATOM     17  C   UNL     1      -3.450   2.729  22.566  0.00  0.00    +0.056 C 
ATOM     18  C   UNL     1      -4.218   3.320  23.704  0.00  0.00    -0.025 A 
ATOM     19  C   UNL     1      -5.325   2.614  25.726  0.00  0.00    +0.023 A 
ATOM     21  C   UNL     1      -4.597   4.637  23.895  0.00  0.00    +0.005 A 
ATOM     22  C   UNL     1      -5.707   3.943  25.939  0.00  0.00    +0.002 A 
ATOM     23  C   UNL     1      -5.346   4.947  25.029  0.00  0.00    +0.000 A 
ENDBRANCH  13   3
ENDBRANCH   7  13
BRANCH   8  14
ATOM     14  C   UNL     1      -0.232  -1.977  25.772  0.00  0.00    +0.124 C 
BRANCH  14   4
ATOM      1  O   UNL     1      -1.117   0.596  26.667  0.00  0.00    -0.253 OA
ATOM      4  N   UNL     1      -0.136  -0.737  25.052  0.00  0.00    -0.298 N 
ATOM      5  N   UNL     1      -0.368   1.516  24.642  0.00  0.00    -0.269 N 
ATOM     20  C   UNL     1      -0.594   0.487  25.561  0.00  0.00    +0.304 C 
ATOM     30  H   UNL     1       0.285  -0.750  24.128  0.00  0.00    +0.150 HD
ATOM     31  H   UNL     1       0.078   1.254  23.765  0.00  0.00    +0.156 HD
BRANCH   5  24
ATOM     24  C   UNL     1      -0.685   2.887  24.778  0.00  0.00    +0.035 A 
ATOM     25  C   UNL     1      -0.141   3.820  23.896  0.00  0.00    +0.023 A 
ATOM     26  C   UNL     1      -1.541   3.307  25.796  0.00  0.00    +0.023 A 
ATOM     27  C   UNL     1      -0.453   5.173  24.031  0.00  0.00    +0.002 A 
ATOM     28  C   UNL     1      -1.853   4.659  25.931  0.00  0.00    +0.002 A 
ATOM     29  C   UNL     1      -1.309   5.593  25.048  0.00  0.00    +0.000 A 
ENDBRANCH   5  24
ENDBRANCH  14   4
ENDBRANCH   8  14
TORSDOF 5
ENDMDL
MODEL 7
REMARK VINA RESULT:       0.4     17.267     20.077
REMARK  Name = 40777187
REMARK  5 active torsions:
REMARK  status: ('A' for Active; 'I' for Inactive)
REMARK    1  A    between atoms: N_3  and  C_13
REMARK    2  A    between atoms: N_4  and  C_14
REMARK    3  A    between atoms: N_5  and  C_24
REMARK    4  A    between atoms: C_7  and  C_13
REMARK    5  A    between atoms: C_8  and  C_14
REMARK                            x       y       z     vdW  Elec       q    Type
REMARK                         _______ _______ _______ _____ _____    ______ ____
ROOT
ATOM      2  N   UNL     1      14.434 -10.774  26.072  0.00  0.00    -0.298 NA
ATOM      6  C   UNL     1      14.868  -8.228  25.765  0.00  0.00    -0.002 C 
ATOM      7  C   UNL     1      16.015  -9.061  25.149  0.00  0.00    +0.023 C 
ATOM      8  C   UNL     1      14.319 -10.076  27.381  0.00  0.00    +0.074 C 
ATOM      9  C   UNL     1      14.717  -8.589  27.254  0.00  0.00    +0.024 C 
ATOM     10  C   UNL     1      15.779 -10.550  25.487  0.00  0.00    +0.090 C 
ATOM     11  C   UNL     1      13.570  -8.661  25.057  0.00  0.00    +0.019 C 
ATOM     12  C   UNL     1      13.427 -10.191  25.153  0.00  0.00    +0.085 C 
ENDROOT
BRANCH   7  13
ATOM     13  C   UNL     1      17.401  -8.596  25.592  0.00  0.00    +0.110 C 
BRANCH  13   3
ATOM      3  N   UNL     1      17.382  -7.176  25.840  0.00  0.00    -0.329 N 
ATOM     15  C   UNL     1      16.844  -6.602  27.071  0.00  0.00    +0.110 C 
ATOM     16  C   UNL     1      17.246  -6.215  24.850  0.00  0.00    +0.033 A 
ATOM     17  C   UNL     1      16.842  -5.073  26.880  0.00  0.00    +0.056 C 
ATOM     18  C   UNL     1      16.918  -4.964  25.391  0.00  0.00    -0.025 A 
ATOM     19  C   UNL     1      17.404  -6.350  23.479  0.00  0.00    +0.023 A 
ATOM     21  C   UNL     1      16.748  -3.842  24.599  0.00  0.00    +0.005 A 
ATOM     22  C   UNL     1      17.226  -5.227  22.664  0.00  0.00    +0.002 A 
ATOM     23  C   UNL     1      16.901  -3.982  23.221  0.00  0.00    +0.000 A 
ENDBRANCH  13   3
ENDBRANCH   7  13
BRANCH   8  14
ATOM     14  C   UNL     1      15.103 -10.781  28.491  0.00  0.00    +0.124 C 
BRANCH  14   4
ATOM      1  O   UNL     1      12.366 -10.051  28.920  0.00  0.00    -0.253 OA
ATOM      4  N   UNL     1      14.464 -10.546  29.757  0.00  0.00    -0.298 N 
ATOM      5  N   UNL     1      12.775 -10.028  31.232  0.00  0.00    -0.269 N 
ATOM     20  C   UNL     1      13.114 -10.191  29.886  0.00  0.00    +0.304 C 
ATOM     30  H   UNL     1      15.022 -10.642  30.601  0.00  0.00    +0.150 HD
ATOM     31  H   UNL     1      13.518 -10.181  31.911  0.00  0.00    +0.156 HD
BRANCH   5  24
ATOM     24  C   UNL     1      11.518  -9.673  31.775  0.00  0.00    +0.035 A 
ATOM     25  C   UNL     1      11.113  -8.339  31.781  0.00  0.00    +0.023 A 
ATOM     26  C   UNL     1      10.685 -10.658  32.305  0.00  0.00    +0.023 A 
ATOM     27  C   UNL     1       9.873  -7.989  32.317  0.00  0.00    +0.002 A 
ATOM     28  C   UNL     1       9.446 -10.308  32.841  0.00  0.00    +0.002 A 
ATOM     29  C   UNL     1       9.040  -8.974  32.846  0.00  0.00    +0.000 A 
ENDBRANCH   5  24
ENDBRANCH  14   4
ENDBRANCH   8  14
TORSDOF 5
ENDMDL
MODEL 8
REMARK VINA RESULT:       0.7     18.509     20.335
REMARK  Name = 40777187
REMARK  5 active torsions:
REMARK  status: ('A' for Active; 'I' for Inactive)
REMARK    1  A    between atoms: N_3  and  C_13
REMARK    2  A    between atoms: N_4  and  C_14
REMARK    3  A    between atoms: N_5  and  C_24
REMARK    4  A    between atoms: C_7  and  C_13
REMARK    5  A    between atoms: C_8  and  C_14
REMARK                            x       y       z     vdW  Elec       q    Type
REMARK                         _______ _______ _______ _____ _____    ______ ____
ROOT
ATOM      2  N   UNL     1      14.436 -10.707  25.908  0.00  0.00    -0.298 NA
ATOM      6  C   UNL     1      14.855  -8.147  25.729  0.00  0.00    -0.002 C 
ATOM      7  C   UNL     1      16.089  -8.942  25.245  0.00  0.00    +0.023 C 
ATOM      8  C   UNL     1      14.138 -10.050  27.209  0.00  0.00    +0.074 C 
ATOM      9  C   UNL     1      14.521  -8.554  27.175  0.00  0.00    +0.024 C 
ATOM     10  C   UNL     1      15.840 -10.445  25.509  0.00  0.00    +0.090 C 
ATOM     11  C   UNL     1      13.669  -8.580  24.847  0.00  0.00    +0.019 C 
ATOM     12  C   UNL     1      13.545 -10.114  24.882  0.00  0.00    +0.085 C 
ENDROOT
BRANCH   7  13
ATOM     13  C   UNL     1      17.397  -8.469  25.876  0.00  0.00    +0.110 C 
BRANCH  13   3
ATOM      3  N   UNL     1      17.391  -7.032  25.989  0.00  0.00    -0.329 N 
ATOM     15  C   UNL     1      16.872  -6.339  27.166  0.00  0.00    +0.110 C 
ATOM     16  C   UNL     1      17.249  -6.168  24.913  0.00  0.00    +0.033 A 
ATOM     17  C   UNL     1      16.878  -4.835  26.830  0.00  0.00    +0.056 C 
ATOM     18  C   UNL     1      16.936  -4.869  25.337  0.00  0.00    -0.025 A 
ATOM     19  C   UNL     1      17.388  -6.435  23.559  0.00  0.00    +0.023 A 
ATOM     21  C   UNL     1      16.764  -3.826  24.444  0.00  0.00    +0.005 A 
ATOM     22  C   UNL     1      17.207  -5.393  22.643  0.00  0.00    +0.002 A 
ATOM     23  C   UNL     1      16.898  -4.097  23.083  0.00  0.00    +0.000 A 
ENDBRANCH  13   3
ENDBRANCH   7  13
BRANCH   8  14
ATOM     14  C   UNL     1      14.786 -10.775  28.392  0.00  0.00    +0.124 C 
BRANCH  14   4
ATOM      1  O   UNL     1      15.989  -8.254  29.026  0.00  0.00    -0.253 OA
ATOM      4  N   UNL     1      14.593 -10.008  29.592  0.00  0.00    -0.298 N 
ATOM      5  N   UNL     1      14.844  -8.267  31.076  0.00  0.00    -0.269 N 
ATOM     20  C   UNL     1      15.220  -8.777  29.830  0.00  0.00    +0.304 C 
ATOM     30  H   UNL     1      13.970 -10.379  30.304  0.00  0.00    +0.150 HD
ATOM     31  H   UNL     1      14.194  -8.829  31.622  0.00  0.00    +0.156 HD
BRANCH   5  24
ATOM     24  C   UNL     1      15.256  -7.056  31.679  0.00  0.00    +0.035 A 
ATOM     25  C   UNL     1      16.610  -6.820  31.915  0.00  0.00    +0.023 A 
ATOM     26  C   UNL     1      14.308  -6.098  32.039  0.00  0.00    +0.023 A 
ATOM     27  C   UNL     1      17.017  -5.626  32.511  0.00  0.00    +0.002 A 
ATOM     28  C   UNL     1      14.714  -4.905  32.634  0.00  0.00    +0.002 A 
ATOM     29  C   UNL     1      16.069  -4.668  32.870  0.00  0.00    +0.000 A 
ENDBRANCH   5  24
ENDBRANCH  14   4
ENDBRANCH   8  14
TORSDOF 5
ENDMDL
MODEL 9
REMARK VINA RESULT:       0.8      2.581      5.737
REMARK  Name = 40777187
REMARK  5 active torsions:
REMARK  status: ('A' for Active; 'I' for Inactive)
REMARK    1  A    between atoms: N_3  and  C_13
REMARK    2  A    between atoms: N_4  and  C_14
REMARK    3  A    between atoms: N_5  and  C_24
REMARK    4  A    between atoms: C_7  and  C_13
REMARK    5  A    between atoms: C_8  and  C_14
REMARK                            x       y       z     vdW  Elec       q    Type
REMARK                         _______ _______ _______ _____ _____    ______ ____
ROOT
ATOM      2  N   UNL     1      -2.059  -2.947  24.241  0.00  0.00    -0.298 NA
ATOM      6  C   UNL     1      -3.476  -1.341  25.716  0.00  0.00    -0.002 C 
ATOM      7  C   UNL     1      -3.950  -1.301  24.245  0.00  0.00    +0.023 C 
ATOM      8  C   UNL     1      -1.165  -2.041  25.011  0.00  0.00    +0.074 C 
ATOM      9  C   UNL     1      -1.981  -0.979  25.781  0.00  0.00    +0.024 C 
ATOM     10  C   UNL     1      -2.985  -2.158  23.394  0.00  0.00    +0.090 C 
ATOM     11  C   UNL     1      -3.613  -2.800  26.191  0.00  0.00    +0.019 C 
ATOM     12  C   UNL     1      -2.868  -3.724  25.212  0.00  0.00    +0.085 C 
ENDROOT
BRANCH   7  13
ATOM     13  C   UNL     1      -4.080   0.117  23.693  0.00  0.00    +0.110 C 
BRANCH  13   3
ATOM      3  N   UNL     1      -4.613   0.988  24.710  0.00  0.00    -0.329 N 
ATOM     15  C   UNL     1      -5.677   0.573  25.621  0.00  0.00    +0.110 C 
ATOM     16  C   UNL     1      -4.700   2.367  24.585  0.00  0.00    +0.033 A 
ATOM     17  C   UNL     1      -6.082   1.824  26.425  0.00  0.00    +0.056 C 
ATOM     18  C   UNL     1      -5.555   2.916  25.551  0.00  0.00    -0.025 A 
ATOM     19  C   UNL     1      -4.065   3.200  23.677  0.00  0.00    +0.023 A 
ATOM     21  C   UNL     1      -5.787   4.277  25.639  0.00  0.00    +0.005 A 
ATOM     22  C   UNL     1      -4.297   4.578  23.746  0.00  0.00    +0.002 A 
ATOM     23  C   UNL     1      -5.152   5.112  24.721  0.00  0.00    +0.000 A 
ENDBRANCH  13   3
ENDBRANCH   7  13
BRANCH   8  14
ATOM     14  C   UNL     1      -0.085  -1.402  24.134  0.00  0.00    +0.124 C 
BRANCH  14   4
ATOM      1  O   UNL     1      -1.541   1.010  23.620  0.00  0.00    -0.253 OA
ATOM      4  N   UNL     1       0.225  -0.089  24.630  0.00  0.00    -0.298 N 
ATOM      5  N   UNL     1      -0.001   2.179  24.951  0.00  0.00    -0.269 N 
ATOM     20  C   UNL     1      -0.541   1.047  24.332  0.00  0.00    +0.304 C 
ATOM     30  H   UNL     1       1.040   0.019  25.225  0.00  0.00    +0.150 HD
ATOM     31  H   UNL     1       0.837   2.036  25.510  0.00  0.00    +0.156 HD
BRANCH   5  24
ATOM     24  C   UNL     1      -0.478   3.509  24.897  0.00  0.00    +0.035 A 
ATOM     25  C   UNL     1      -1.431   3.946  25.815  0.00  0.00    +0.023 A 
ATOM     26  C   UNL     1       0.006   4.384  23.923  0.00  0.00    +0.023 A 
ATOM     27  C   UNL     1      -1.902   5.258  25.761  0.00  0.00    +0.002 A 
ATOM     28  C   UNL     1      -0.464   5.695  23.869  0.00  0.00    +0.002 A 
ATOM     29  C   UNL     1      -1.418   6.133  24.789  0.00  0.00    +0.000 A 
ENDBRANCH   5  24
ENDBRANCH  14   4
ENDBRANCH   8  14
TORSDOF 5
ENDMDL
