MODEL 1
REMARK VINA RESULT:      -2.4      0.000      0.000
REMARK  Name = 56774928
REMARK  10 active torsions:
REMARK  status: ('A' for Active; 'I' for Inactive)
REMARK    1  A    between atoms: O_2  and  C_10
REMARK    2  A    between atoms: O_3  and  C_16
REMARK    3  A    between atoms: O_3  and  C_22
REMARK    4  A    between atoms: N_6  and  C_12
REMARK    5  A    between atoms: N_7  and  C_21
REMARK    6  A    between atoms: C_9  and  C_10
REMARK    7  A    between atoms: C_10  and  C_14
REMARK    8  A    between atoms: C_12  and  C_16
REMARK    9  A    between atoms: C_22  and  C_23
REMARK   10  A    between atoms: C_24  and  C_25
REMARK                            x       y       z     vdW  Elec       q    Type
REMARK                         _______ _______ _______ _____ _____    ______ ____
ROOT
ATOM     14  C   UNL     1      -3.133   0.374  24.292  0.00  0.00    -0.017 A 
ATOM     17  C   UNL     1      -2.429  -0.208  25.346  0.00  0.00    +0.008 A 
ATOM     18  C   UNL     1      -2.450   0.831  23.165  0.00  0.00    +0.008 A 
ATOM     19  C   UNL     1      -1.042  -0.333  25.274  0.00  0.00    +0.023 A 
ATOM     20  C   UNL     1      -1.063   0.705  23.092  0.00  0.00    +0.023 A 
ATOM     21  C   UNL     1      -0.358   0.123  24.146  0.00  0.00    +0.034 A 
ENDROOT
BRANCH  21   7
ATOM      5  O   UNL     1       1.427  -0.292  21.774  0.00  0.00    -0.270 OA
ATOM      7  N   UNL     1       1.028  -0.002  24.073  0.00  0.00    -0.281 N 
ATOM     24  C   UNL     1       1.819  -0.197  22.932  0.00  0.00    +0.250 C 
ATOM     31  H   UNL     1       1.498   0.098  24.968  0.00  0.00    +0.155 HD
BRANCH  24  25
ATOM      8  N   UNL     1       5.196  -1.539  23.926  0.00  0.00    -0.263 NA
ATOM     25  C   UNL     1       3.284  -0.264  23.175  0.00  0.00    +0.055 A 
ATOM     26  C   UNL     1       4.107   0.821  22.897  0.00  0.00    +0.016 A 
ATOM     27  C   UNL     1       3.872  -1.411  23.684  0.00  0.00    +0.123 A 
ATOM     28  C   UNL     1       5.474   0.728  23.134  0.00  0.00    +0.020 A 
ATOM     29  C   UNL     1       5.964  -0.463  23.644  0.00  0.00    +0.111 A 
ENDBRANCH  24  25
ENDBRANCH  21   7
BRANCH  14  10
ATOM     10  C   UNL     1      -4.633   0.510  24.370  0.00  0.00    +0.167 C 
BRANCH  10   9
ATOM      1  O   UNL     1      -6.591   1.914  26.045  0.00  0.00    -0.369 OA
ATOM      4  O   UNL     1      -3.690   3.848  26.983  0.00  0.00    -0.273 OA
ATOM      6  N   UNL     1      -4.202   2.873  24.933  0.00  0.00    -0.289 N 
ATOM      9  C   UNL     1      -5.083   1.963  24.190  0.00  0.00    +0.135 C 
ATOM     11  C   UNL     1      -6.527   2.149  24.643  0.00  0.00    +0.185 C 
ATOM     13  C   UNL     1      -4.469   3.233  26.252  0.00  0.00    +0.242 C 
ATOM     15  C   UNL     1      -5.867   2.892  26.756  0.00  0.00    +0.255 C 
BRANCH   6  12
ATOM     12  C   UNL     1      -2.939   3.245  24.309  0.00  0.00    +0.136 C 
BRANCH  12  16
ATOM     16  C   UNL     1      -2.597   4.700  24.570  0.00  0.00    +0.178 C 
BRANCH  16   3
ATOM      3  O   UNL     1      -1.340   4.779  25.229  0.00  0.00    -0.378 OA
BRANCH   3  22
ATOM     22  C   UNL     1      -0.533   3.643  24.950  0.00  0.00    +0.156 C 
ATOM     23  C   UNL     1      -0.212   2.935  26.249  0.00  0.00    +0.034 C 
ENDBRANCH   3  22
ENDBRANCH  16   3
ENDBRANCH  12  16
ENDBRANCH   6  12
ENDBRANCH  10   9
BRANCH  10   2
ATOM      2  O   UNL     1      -5.088   0.029  25.631  0.00  0.00    -0.385 OA
ATOM     30  H   UNL     1      -5.314  -0.913  25.552  0.00  0.00    +0.210 HD
ENDBRANCH  10   2
ENDBRANCH  14  10
TORSDOF 9
ENDMDL
MODEL 2
REMARK VINA RESULT:      -2.3      1.421      3.058
REMARK  Name = 56774928
REMARK  10 active torsions:
REMARK  status: ('A' for Active; 'I' for Inactive)
REMARK    1  A    between atoms: O_2  and  C_10
REMARK    2  A    between atoms: O_3  and  C_16
REMARK    3  A    between atoms: O_3  and  C_22
REMARK    4  A    between atoms: N_6  and  C_12
REMARK    5  A    between atoms: N_7  and  C_21
REMARK    6  A    between atoms: C_9  and  C_10
REMARK    7  A    between atoms: C_10  and  C_14
REMARK    8  A    between atoms: C_12  and  C_16
REMARK    9  A    between atoms: C_22  and  C_23
REMARK   10  A    between atoms: C_24  and  C_25
REMARK                            x       y       z     vdW  Elec       q    Type
REMARK                         _______ _______ _______ _____ _____    ______ ____
ROOT
ATOM     14  C   UNL     1      -1.965   2.673  24.403  0.00  0.00    -0.017 A 
ATOM     17  C   UNL     1      -1.013   2.951  25.384  0.00  0.00    +0.008 A 
ATOM     18  C   UNL     1      -1.634   1.857  23.321  0.00  0.00    +0.008 A 
ATOM     19  C   UNL     1       0.270   2.413  25.284  0.00  0.00    +0.023 A 
ATOM     20  C   UNL     1      -0.351   1.319  23.221  0.00  0.00    +0.023 A 
ATOM     21  C   UNL     1       0.601   1.596  24.202  0.00  0.00    +0.034 A 
ENDROOT
BRANCH  21   7
ATOM      5  O   UNL     1       1.777  -0.237  22.142  0.00  0.00    -0.270 OA
ATOM      7  N   UNL     1       1.883   1.058  24.102  0.00  0.00    -0.281 N 
ATOM     24  C   UNL     1       2.385   0.201  23.114  0.00  0.00    +0.250 C 
ATOM     31  H   UNL     1       2.519   1.372  24.829  0.00  0.00    +0.155 HD
BRANCH  24  25
ATOM      8  N   UNL     1       5.449  -1.854  23.875  0.00  0.00    -0.263 NA
ATOM     25  C   UNL     1       3.813  -0.182  23.266  0.00  0.00    +0.055 A 
ATOM     26  C   UNL     1       4.832   0.714  22.959  0.00  0.00    +0.016 A 
ATOM     27  C   UNL     1       4.171  -1.442  23.716  0.00  0.00    +0.123 A 
ATOM     28  C   UNL     1       6.158   0.327  23.111  0.00  0.00    +0.020 A 
ATOM     29  C   UNL     1       6.412  -0.956  23.568  0.00  0.00    +0.111 A 
ENDBRANCH  24  25
ENDBRANCH  21   7
BRANCH  14  10
ATOM     10  C   UNL     1      -3.352   3.254  24.511  0.00  0.00    +0.167 C 
BRANCH  10   9
ATOM      1  O   UNL     1      -5.758   4.397  25.742  0.00  0.00    -0.369 OA
ATOM      4  O   UNL     1      -7.305   1.467  24.307  0.00  0.00    -0.273 OA
ATOM      6  N   UNL     1      -5.162   1.716  25.179  0.00  0.00    -0.289 N 
ATOM      9  C   UNL     1      -4.136   2.641  25.676  0.00  0.00    +0.135 C 
ATOM     11  C   UNL     1      -4.783   3.726  26.531  0.00  0.00    +0.185 C 
ATOM     13  C   UNL     1      -6.454   2.146  24.884  0.00  0.00    +0.242 C 
ATOM     15  C   UNL     1      -6.818   3.532  25.404  0.00  0.00    +0.255 C 
BRANCH   6  12
ATOM     12  C   UNL     1      -4.737   0.367  24.828  0.00  0.00    +0.136 C 
BRANCH  12  16
ATOM     16  C   UNL     1      -3.652  -0.135  25.762  0.00  0.00    +0.178 C 
BRANCH  16   3
ATOM      3  O   UNL     1      -3.642  -1.556  25.754  0.00  0.00    -0.378 OA
BRANCH   3  22
ATOM     22  C   UNL     1      -3.060  -2.067  24.563  0.00  0.00    +0.156 C 
ATOM     23  C   UNL     1      -1.559  -1.877  24.625  0.00  0.00    +0.034 C 
ENDBRANCH   3  22
ENDBRANCH  16   3
ENDBRANCH  12  16
ENDBRANCH   6  12
ENDBRANCH  10   9
BRANCH  10   2
ATOM      2  O   UNL     1      -4.059   3.025  23.296  0.00  0.00    -0.385 OA
ATOM     30  H   UNL     1      -3.793   3.691  22.640  0.00  0.00    +0.210 HD
ENDBRANCH  10   2
ENDBRANCH  14  10
TORSDOF 9
ENDMDL
MODEL 3
REMARK VINA RESULT:       1.3     15.181     16.920
REMARK  Name = 56774928
REMARK  10 active torsions:
REMARK  status: ('A' for Active; 'I' for Inactive)
REMARK    1  A    between atoms: O_2  and  C_10
REMARK    2  A    between atoms: O_3  and  C_16
REMARK    3  A    between atoms: O_3  and  C_22
REMARK    4  A    between atoms: N_6  and  C_12
REMARK    5  A    between atoms: N_7  and  C_21
REMARK    6  A    between atoms: C_9  and  C_10
REMARK    7  A    between atoms: C_10  and  C_14
REMARK    8  A    between atoms: C_12  and  C_16
REMARK    9  A    between atoms: C_22  and  C_23
REMARK   10  A    between atoms: C_24  and  C_25
REMARK                            x       y       z     vdW  Elec       q    Type
REMARK                         _______ _______ _______ _____ _____    ______ ____
ROOT
ATOM     14  C   UNL     1      -3.099  -9.681  11.352  0.00  0.00    -0.017 A 
ATOM     17  C   UNL     1      -2.398  -9.843  12.547  0.00  0.00    +0.008 A 
ATOM     18  C   UNL     1      -2.492  -9.046  10.268  0.00  0.00    +0.008 A 
ATOM     19  C   UNL     1      -1.090  -9.371  12.658  0.00  0.00    +0.023 A 
ATOM     20  C   UNL     1      -1.184  -8.576  10.379  0.00  0.00    +0.023 A 
ATOM     21  C   UNL     1      -0.483  -8.738  11.573  0.00  0.00    +0.034 A 
ENDROOT
BRANCH  21   7
ATOM      5  O   UNL     1       0.560  -6.159  12.690  0.00  0.00    -0.270 OA
ATOM      7  N   UNL     1       0.825  -8.267  11.684  0.00  0.00    -0.281 N 
ATOM     24  C   UNL     1       1.262  -7.047  12.217  0.00  0.00    +0.250 C 
ATOM     31  H   UNL     1       1.528  -8.926  11.363  0.00  0.00    +0.155 HD
BRANCH  24  25
ATOM      8  N   UNL     1       4.951  -7.798  12.104  0.00  0.00    -0.263 NA
ATOM     25  C   UNL     1       2.734  -6.843  12.222  0.00  0.00    +0.055 A 
ATOM     26  C   UNL     1       3.281  -5.570  12.340  0.00  0.00    +0.016 A 
ATOM     27  C   UNL     1       3.604  -7.915  12.108  0.00  0.00    +0.123 A 
ATOM     28  C   UNL     1       4.661  -5.410  12.341  0.00  0.00    +0.020 A 
ATOM     29  C   UNL     1       5.446  -6.545  12.221  0.00  0.00    +0.111 A 
ENDBRANCH  24  25
ENDBRANCH  21   7
BRANCH  14  10
ATOM     10  C   UNL     1      -4.513 -10.190  11.232  0.00  0.00    +0.167 C 
BRANCH  10   9
ATOM      1  O   UNL     1      -5.687  -9.738   8.580  0.00  0.00    -0.369 OA
ATOM      4  O   UNL     1      -8.730 -10.648  10.299  0.00  0.00    -0.273 OA
ATOM      6  N   UNL     1      -6.877  -9.495  11.107  0.00  0.00    -0.289 N 
ATOM      9  C   UNL     1      -5.492  -9.070  10.868  0.00  0.00    +0.135 C 
ATOM     11  C   UNL     1      -5.322  -8.644   9.413  0.00  0.00    +0.185 C 
ATOM     13  C   UNL     1      -7.633 -10.116  10.116  0.00  0.00    +0.242 C 
ATOM     15  C   UNL     1      -7.060 -10.034   8.706  0.00  0.00    +0.255 C 
BRANCH   6  12
ATOM     12  C   UNL     1      -7.378  -9.414  12.473  0.00  0.00    +0.136 C 
BRANCH  12  16
ATOM     16  C   UNL     1      -8.025 -10.716  12.907  0.00  0.00    +0.178 C 
BRANCH  16   3
ATOM      3  O   UNL     1      -8.577 -10.560  14.207  0.00  0.00    -0.378 OA
BRANCH   3  22
ATOM     22  C   UNL     1      -9.167  -9.278  14.372  0.00  0.00    +0.156 C 
ATOM     23  C   UNL     1      -9.188  -8.930  15.846  0.00  0.00    +0.034 C 
ENDBRANCH   3  22
ENDBRANCH  16   3
ENDBRANCH  12  16
ENDBRANCH   6  12
ENDBRANCH  10   9
BRANCH  10   2
ATOM      2  O   UNL     1      -4.911 -10.781  12.464  0.00  0.00    -0.385 OA
ATOM     30  H   UNL     1      -5.793 -11.177  12.360  0.00  0.00    +0.210 HD
ENDBRANCH  10   2
ENDBRANCH  14  10
TORSDOF 9
ENDMDL
