MODEL 1
REMARK VINA RESULT:      -4.8      0.000      0.000
REMARK  Name = 38027539
REMARK  13 active torsions:
REMARK  status: ('A' for Active; 'I' for Inactive)
REMARK    1  A    between atoms: N_4  and  C_14
REMARK    2  A    between atoms: N_5  and  C_21
REMARK    3  A    between atoms: N_6  and  C_22
REMARK    4  A    between atoms: C_7  and  C_11
REMARK    5  A    between atoms: C_8  and  C_14
REMARK    6  A    between atoms: C_10  and  C_15
REMARK    7  A    between atoms: C_11  and  C_16
REMARK    8  A    between atoms: C_11  and  C_17
REMARK    9  A    between atoms: C_12  and  C_18
REMARK   10  A    between atoms: C_15  and  C_19
REMARK   11  A    between atoms: C_21  and  C_23
REMARK   12  A    between atoms: C_22  and  C_24
REMARK   13  A    between atoms: C_22  and  C_25
REMARK                            x       y       z     vdW  Elec       q    Type
REMARK                         _______ _______ _______ _____ _____    ______ ____
ROOT
ATOM      7  C   UNL     1      -1.476   0.699  24.727  0.00  0.00    +0.000 C 
ATOM      8  C   UNL     1      -0.365  -0.333  24.406  0.00  0.00    +0.032 C 
ATOM      9  C   UNL     1      -2.444   0.135  25.778  0.00  0.00    +0.012 C 
ATOM     10  C   UNL     1      -3.112  -1.171  25.312  0.00  0.00    +0.023 C 
ATOM     12  C   UNL     1      -2.105  -2.143  24.730  0.00  0.00    -0.073 C 
ATOM     13  C   UNL     1      -0.878  -1.752  24.343  0.00  0.00    -0.022 C 
ATOM     18  C   UNL     1      -2.526  -3.584  24.645  0.00  0.00    +0.039 C 
ENDROOT
BRANCH   7  11
ATOM     11  C   UNL     1      -0.892   2.028  25.219  0.00  0.00    -0.013 C 
ATOM     16  C   UNL     1      -0.011   1.800  26.444  0.00  0.00    +0.007 C 
ATOM     17  C   UNL     1      -0.106   2.709  24.104  0.00  0.00    +0.007 C 
ENDBRANCH   7  11
BRANCH   8  14
ATOM     14  C   UNL     1       0.347   0.012  23.094  0.00  0.00    +0.113 C 
BRANCH  14   4
ATOM      3  O   UNL     1       2.771   1.570  23.243  0.00  0.00    -0.253 OA
ATOM      4  N   UNL     1       1.689  -0.481  23.100  0.00  0.00    -0.299 N 
ATOM      6  N   UNL     1       4.000  -0.397  23.161  0.00  0.00    -0.297 N 
ATOM     20  C   UNL     1       2.820   0.342  23.174  0.00  0.00    +0.300 C 
ATOM     31  H   UNL     1       1.836  -1.486  23.117  0.00  0.00    +0.150 HD
ATOM     33  H   UNL     1       3.938  -1.401  23.023  0.00  0.00    +0.150 HD
BRANCH   6  22
ATOM     22  C   UNL     1       5.307   0.214  23.228  0.00  0.00    +0.068 C 
ATOM     24  C   UNL     1       6.363  -0.734  22.675  0.00  0.00    +0.027 C 
ATOM     25  C   UNL     1       5.631   0.628  24.658  0.00  0.00    +0.027 C 
ENDBRANCH   6  22
ENDBRANCH  14   4
ENDBRANCH   8  14
BRANCH  10  15
ATOM     15  C   UNL     1      -4.243  -0.891  24.316  0.00  0.00    +0.103 C 
BRANCH  15  19
ATOM      2  O   UNL     1      -3.947   1.237  23.204  0.00  0.00    -0.276 OA
ATOM      5  N   UNL     1      -5.317   1.105  25.077  0.00  0.00    -0.311 N 
ATOM     19  C   UNL     1      -4.465   0.591  24.111  0.00  0.00    +0.214 C 
ATOM     32  H   UNL     1      -5.703   0.482  25.780  0.00  0.00    +0.149 HD
BRANCH   5  21
ATOM     21  C   UNL     1      -5.704   2.496  25.128  0.00  0.00    +0.139 C 
BRANCH  21  23
ATOM      1  F   UNL     1      -1.237   5.918  25.316  0.00  0.00    -0.205 F 
ATOM     23  C   UNL     1      -4.513   3.409  25.178  0.00  0.00    -0.030 A 
ATOM     26  C   UNL     1      -4.066   4.036  24.015  0.00  0.00    +0.008 A 
ATOM     27  C   UNL     1      -3.854   3.629  26.387  0.00  0.00    +0.008 A 
ATOM     28  C   UNL     1      -2.959   4.884  24.062  0.00  0.00    +0.038 A 
ATOM     29  C   UNL     1      -2.748   4.477  26.434  0.00  0.00    +0.038 A 
ATOM     30  C   UNL     1      -2.300   5.105  25.272  0.00  0.00    +0.123 A 
ENDBRANCH  21  23
ENDBRANCH   5  21
ENDBRANCH  15  19
ENDBRANCH  10  15
TORSDOF 8
ENDMDL
MODEL 2
REMARK VINA RESULT:      -4.1      2.286      4.886
REMARK  Name = 38027539
REMARK  13 active torsions:
REMARK  status: ('A' for Active; 'I' for Inactive)
REMARK    1  A    between atoms: N_4  and  C_14
REMARK    2  A    between atoms: N_5  and  C_21
REMARK    3  A    between atoms: N_6  and  C_22
REMARK    4  A    between atoms: C_7  and  C_11
REMARK    5  A    between atoms: C_8  and  C_14
REMARK    6  A    between atoms: C_10  and  C_15
REMARK    7  A    between atoms: C_11  and  C_16
REMARK    8  A    between atoms: C_11  and  C_17
REMARK    9  A    between atoms: C_12  and  C_18
REMARK   10  A    between atoms: C_15  and  C_19
REMARK   11  A    between atoms: C_21  and  C_23
REMARK   12  A    between atoms: C_22  and  C_24
REMARK   13  A    between atoms: C_22  and  C_25
REMARK                            x       y       z     vdW  Elec       q    Type
REMARK                         _______ _______ _______ _____ _____    ______ ____
ROOT
ATOM      7  C   UNL     1      -2.783   2.324  23.994  0.00  0.00    +0.000 C 
ATOM      8  C   UNL     1      -1.566   2.974  24.700  0.00  0.00    +0.032 C 
ATOM      9  C   UNL     1      -3.900   3.359  23.788  0.00  0.00    +0.012 C 
ATOM     10  C   UNL     1      -4.377   3.971  25.118  0.00  0.00    +0.023 C 
ATOM     12  C   UNL     1      -3.214   4.395  25.993  0.00  0.00    -0.073 C 
ATOM     13  C   UNL     1      -1.963   3.950  25.782  0.00  0.00    -0.022 C 
ATOM     18  C   UNL     1      -3.515   5.380  27.088  0.00  0.00    +0.039 C 
ENDROOT
BRANCH   7  11
ATOM     11  C   UNL     1      -2.395   1.706  22.646  0.00  0.00    -0.013 C 
ATOM     16  C   UNL     1      -3.042   0.333  22.486  0.00  0.00    +0.007 C 
ATOM     17  C   UNL     1      -2.795   2.631  21.502  0.00  0.00    +0.007 C 
ENDBRANCH   7  11
BRANCH   8  14
ATOM     14  C   UNL     1      -0.634   1.909  25.287  0.00  0.00    +0.113 C 
BRANCH  14   4
ATOM      3  O   UNL     1       0.627   0.229  23.309  0.00  0.00    -0.253 OA
ATOM      4  N   UNL     1       0.688   2.044  24.759  0.00  0.00    -0.299 N 
ATOM      6  N   UNL     1       2.535   1.542  23.461  0.00  0.00    -0.297 N 
ATOM     20  C   UNL     1       1.231   1.184  23.796  0.00  0.00    +0.300 C 
ATOM     31  H   UNL     1       1.245   2.843  25.045  0.00  0.00    +0.150 HD
ATOM     33  H   UNL     1       2.974   2.299  23.975  0.00  0.00    +0.150 HD
BRANCH   6  22
ATOM     22  C   UNL     1       3.320   0.816  22.490  0.00  0.00    +0.068 C 
ATOM     24  C   UNL     1       2.504  -0.323  21.894  0.00  0.00    +0.027 C 
ATOM     25  C   UNL     1       4.608   0.302  23.122  0.00  0.00    +0.027 C 
ENDBRANCH   6  22
ENDBRANCH  14   4
ENDBRANCH   8  14
BRANCH  10  15
ATOM     15  C   UNL     1      -5.306   3.010  25.869  0.00  0.00    +0.103 C 
BRANCH  15  19
ATOM      2  O   UNL     1      -6.290   1.556  24.205  0.00  0.00    -0.276 OA
ATOM      5  N   UNL     1      -4.654   0.722  25.630  0.00  0.00    -0.311 N 
ATOM     19  C   UNL     1      -5.493   1.706  25.127  0.00  0.00    +0.214 C 
ATOM     32  H   UNL     1      -4.021   0.951  26.390  0.00  0.00    +0.149 HD
BRANCH   5  21
ATOM     21  C   UNL     1      -4.621  -0.626  25.113  0.00  0.00    +0.139 C 
BRANCH  21  23
ATOM      1  F   UNL     1       0.533  -2.872  25.413  0.00  0.00    -0.205 F 
ATOM     23  C   UNL     1      -3.247  -1.226  25.193  0.00  0.00    -0.030 A 
ATOM     26  C   UNL     1      -2.281  -0.646  26.015  0.00  0.00    +0.008 A 
ATOM     27  C   UNL     1      -2.937  -2.362  24.446  0.00  0.00    +0.008 A 
ATOM     28  C   UNL     1      -1.003  -1.202  26.090  0.00  0.00    +0.038 A 
ATOM     29  C   UNL     1      -1.660  -2.918  24.521  0.00  0.00    +0.038 A 
ATOM     30  C   UNL     1      -0.694  -2.339  25.343  0.00  0.00    +0.123 A 
ENDBRANCH  21  23
ENDBRANCH   5  21
ENDBRANCH  15  19
ENDBRANCH  10  15
TORSDOF 8
ENDMDL
MODEL 3
REMARK VINA RESULT:      -3.3      2.611      7.048
REMARK  Name = 38027539
REMARK  13 active torsions:
REMARK  status: ('A' for Active; 'I' for Inactive)
REMARK    1  A    between atoms: N_4  and  C_14
REMARK    2  A    between atoms: N_5  and  C_21
REMARK    3  A    between atoms: N_6  and  C_22
REMARK    4  A    between atoms: C_7  and  C_11
REMARK    5  A    between atoms: C_8  and  C_14
REMARK    6  A    between atoms: C_10  and  C_15
REMARK    7  A    between atoms: C_11  and  C_16
REMARK    8  A    between atoms: C_11  and  C_17
REMARK    9  A    between atoms: C_12  and  C_18
REMARK   10  A    between atoms: C_15  and  C_19
REMARK   11  A    between atoms: C_21  and  C_23
REMARK   12  A    between atoms: C_22  and  C_24
REMARK   13  A    between atoms: C_22  and  C_25
REMARK                            x       y       z     vdW  Elec       q    Type
REMARK                         _______ _______ _______ _____ _____    ______ ____
ROOT
ATOM      7  C   UNL     1      -3.648   3.063  25.511  0.00  0.00    +0.000 C 
ATOM      8  C   UNL     1      -3.622   3.305  23.981  0.00  0.00    +0.032 C 
ATOM      9  C   UNL     1      -2.736   4.070  26.229  0.00  0.00    +0.012 C 
ATOM     10  C   UNL     1      -1.277   3.980  25.745  0.00  0.00    +0.023 C 
ATOM     12  C   UNL     1      -1.186   3.942  24.233  0.00  0.00    -0.073 C 
ATOM     13  C   UNL     1      -2.248   3.652  23.461  0.00  0.00    -0.022 C 
ATOM     18  C   UNL     1       0.145   4.292  23.626  0.00  0.00    +0.039 C 
ENDROOT
BRANCH   7  11
ATOM     11  C   UNL     1      -5.069   3.156  26.078  0.00  0.00    -0.013 C 
ATOM     16  C   UNL     1      -5.803   4.352  25.479  0.00  0.00    +0.007 C 
ATOM     17  C   UNL     1      -5.833   1.863  25.812  0.00  0.00    +0.007 C 
ENDBRANCH   7  11
BRANCH   8  14
ATOM     14  C   UNL     1      -4.165   2.090  23.220  0.00  0.00    +0.113 C 
BRANCH  14   4
ATOM      3  O   UNL     1      -4.904  -0.497  24.263  0.00  0.00    -0.253 OA
ATOM      4  N   UNL     1      -3.311   0.957  23.397  0.00  0.00    -0.299 N 
ATOM      6  N   UNL     1      -2.710  -1.199  23.979  0.00  0.00    -0.297 N 
ATOM     20  C   UNL     1      -3.746  -0.271  23.913  0.00  0.00    +0.300 C 
ATOM     31  H   UNL     1      -2.351   1.018  23.074  0.00  0.00    +0.150 HD
ATOM     33  H   UNL     1      -1.772  -0.893  23.740  0.00  0.00    +0.150 HD
BRANCH   6  22
ATOM     22  C   UNL     1      -2.894  -2.543  24.474  0.00  0.00    +0.068 C 
ATOM     24  C   UNL     1      -4.045  -3.223  23.744  0.00  0.00    +0.027 C 
ATOM     25  C   UNL     1      -3.126  -2.531  25.980  0.00  0.00    +0.027 C 
ENDBRANCH   6  22
ENDBRANCH  14   4
ENDBRANCH   8  14
BRANCH  10  15
ATOM     15  C   UNL     1      -0.560   2.777  26.368  0.00  0.00    +0.103 C 
BRANCH  15  19
ATOM      2  O   UNL     1      -1.370   0.671  25.497  0.00  0.00    -0.276 OA
ATOM      5  N   UNL     1       0.505   1.658  24.543  0.00  0.00    -0.311 N 
ATOM     19  C   UNL     1      -0.548   1.581  25.442  0.00  0.00    +0.214 C 
ATOM     32  H   UNL     1       1.124   2.462  24.572  0.00  0.00    +0.149 HD
BRANCH   5  21
ATOM     21  C   UNL     1       0.761   0.650  23.541  0.00  0.00    +0.139 C 
BRANCH  21  23
ATOM      1  F   UNL     1       6.269  -0.330  22.903  0.00  0.00    -0.205 F 
ATOM     23  C   UNL     1       2.230   0.388  23.370  0.00  0.00    -0.030 A 
ATOM     26  C   UNL     1       2.748  -0.880  23.632  0.00  0.00    +0.008 A 
ATOM     27  C   UNL     1       3.077   1.414  22.951  0.00  0.00    +0.008 A 
ATOM     28  C   UNL     1       4.112  -1.123  23.474  0.00  0.00    +0.038 A 
ATOM     29  C   UNL     1       4.441   1.171  22.792  0.00  0.00    +0.038 A 
ATOM     30  C   UNL     1       4.959  -0.097  23.053  0.00  0.00    +0.123 A 
ENDBRANCH  21  23
ENDBRANCH   5  21
ENDBRANCH  15  19
ENDBRANCH  10  15
TORSDOF 8
ENDMDL
MODEL 4
REMARK VINA RESULT:      -3.0      2.651      5.367
REMARK  Name = 38027539
REMARK  13 active torsions:
REMARK  status: ('A' for Active; 'I' for Inactive)
REMARK    1  A    between atoms: N_4  and  C_14
REMARK    2  A    between atoms: N_5  and  C_21
REMARK    3  A    between atoms: N_6  and  C_22
REMARK    4  A    between atoms: C_7  and  C_11
REMARK    5  A    between atoms: C_8  and  C_14
REMARK    6  A    between atoms: C_10  and  C_15
REMARK    7  A    between atoms: C_11  and  C_16
REMARK    8  A    between atoms: C_11  and  C_17
REMARK    9  A    between atoms: C_12  and  C_18
REMARK   10  A    between atoms: C_15  and  C_19
REMARK   11  A    between atoms: C_21  and  C_23
REMARK   12  A    between atoms: C_22  and  C_24
REMARK   13  A    between atoms: C_22  and  C_25
REMARK                            x       y       z     vdW  Elec       q    Type
REMARK                         _______ _______ _______ _____ _____    ______ ____
ROOT
ATOM      7  C   UNL     1      -3.012   2.115  24.329  0.00  0.00    +0.000 C 
ATOM      8  C   UNL     1      -2.072   2.384  23.127  0.00  0.00    +0.032 C 
ATOM      9  C   UNL     1      -3.413   3.436  25.003  0.00  0.00    +0.012 C 
ATOM     10  C   UNL     1      -2.191   4.226  25.506  0.00  0.00    +0.023 C 
ATOM     12  C   UNL     1      -1.099   4.304  24.458  0.00  0.00    -0.073 C 
ATOM     13  C   UNL     1      -1.071   3.482  23.394  0.00  0.00    -0.022 C 
ATOM     18  C   UNL     1      -0.066   5.382  24.635  0.00  0.00    +0.039 C 
ENDROOT
BRANCH   7  11
ATOM     11  C   UNL     1      -4.269   1.346  23.907  0.00  0.00    -0.013 C 
ATOM     16  C   UNL     1      -3.892  -0.021  23.345  0.00  0.00    +0.007 C 
ATOM     17  C   UNL     1      -5.225   1.202  25.087  0.00  0.00    +0.007 C 
ENDBRANCH   7  11
BRANCH   8  14
ATOM     14  C   UNL     1      -1.333   1.109  22.707  0.00  0.00    +0.113 C 
BRANCH  14   4
ATOM      3  O   UNL     1       0.847  -0.496  21.708  0.00  0.00    -0.253 OA
ATOM      4  N   UNL     1       0.032   1.150  23.132  0.00  0.00    -0.299 N 
ATOM      6  N   UNL     1       2.272   0.580  23.191  0.00  0.00    -0.297 N 
ATOM     20  C   UNL     1       1.037   0.335  22.596  0.00  0.00    +0.300 C 
ATOM     31  H   UNL     1       0.307   1.851  23.812  0.00  0.00    +0.150 HD
ATOM     33  H   UNL     1       2.312   1.229  23.970  0.00  0.00    +0.150 HD
BRANCH   6  22
ATOM     22  C   UNL     1       3.474  -0.129  22.818  0.00  0.00    +0.068 C 
ATOM     24  C   UNL     1       3.652  -1.364  23.690  0.00  0.00    +0.027 C 
ATOM     25  C   UNL     1       4.686   0.791  22.908  0.00  0.00    +0.027 C 
ENDBRANCH   6  22
ENDBRANCH  14   4
ENDBRANCH   8  14
BRANCH  10  15
ATOM     15  C   UNL     1      -1.652   3.638  26.815  0.00  0.00    +0.103 C 
BRANCH  15  19
ATOM      2  O   UNL     1       0.568   2.726  26.515  0.00  0.00    -0.276 OA
ATOM      5  N   UNL     1      -1.273   1.310  26.421  0.00  0.00    -0.311 N 
ATOM     19  C   UNL     1      -0.644   2.537  26.571  0.00  0.00    +0.214 C 
ATOM     32  H   UNL     1      -2.284   1.258  26.496  0.00  0.00    +0.149 HD
BRANCH   5  21
ATOM     21  C   UNL     1      -0.554   0.081  26.174  0.00  0.00    +0.139 C 
BRANCH  21  23
ATOM      1  F   UNL     1      -3.937  -3.987  24.248  0.00  0.00    -0.205 F 
ATOM     23  C   UNL     1      -1.457  -1.003  25.660  0.00  0.00    -0.030 A 
ATOM     26  C   UNL     1      -2.740  -1.150  26.185  0.00  0.00    +0.008 A 
ATOM     27  C   UNL     1      -1.011  -1.865  24.657  0.00  0.00    +0.008 A 
ATOM     28  C   UNL     1      -3.579  -2.158  25.708  0.00  0.00    +0.038 A 
ATOM     29  C   UNL     1      -1.849  -2.872  24.180  0.00  0.00    +0.038 A 
ATOM     30  C   UNL     1      -3.132  -3.018  24.704  0.00  0.00    +0.123 A 
ENDBRANCH  21  23
ENDBRANCH   5  21
ENDBRANCH  15  19
ENDBRANCH  10  15
TORSDOF 8
ENDMDL
MODEL 5
REMARK VINA RESULT:      -2.2      2.400      7.159
REMARK  Name = 38027539
REMARK  13 active torsions:
REMARK  status: ('A' for Active; 'I' for Inactive)
REMARK    1  A    between atoms: N_4  and  C_14
REMARK    2  A    between atoms: N_5  and  C_21
REMARK    3  A    between atoms: N_6  and  C_22
REMARK    4  A    between atoms: C_7  and  C_11
REMARK    5  A    between atoms: C_8  and  C_14
REMARK    6  A    between atoms: C_10  and  C_15
REMARK    7  A    between atoms: C_11  and  C_16
REMARK    8  A    between atoms: C_11  and  C_17
REMARK    9  A    between atoms: C_12  and  C_18
REMARK   10  A    between atoms: C_15  and  C_19
REMARK   11  A    between atoms: C_21  and  C_23
REMARK   12  A    between atoms: C_22  and  C_24
REMARK   13  A    between atoms: C_22  and  C_25
REMARK                            x       y       z     vdW  Elec       q    Type
REMARK                         _______ _______ _______ _____ _____    ______ ____
ROOT
ATOM      7  C   UNL     1      -3.364   2.894  25.347  0.00  0.00    +0.000 C 
ATOM      8  C   UNL     1      -4.430   2.661  24.247  0.00  0.00    +0.032 C 
ATOM      9  C   UNL     1      -2.103   3.535  24.747  0.00  0.00    +0.012 C 
ATOM     10  C   UNL     1      -1.480   2.664  23.639  0.00  0.00    +0.023 C 
ATOM     12  C   UNL     1      -2.523   2.170  22.657  0.00  0.00    -0.073 C 
ATOM     13  C   UNL     1      -3.837   2.190  22.941  0.00  0.00    -0.022 C 
ATOM     18  C   UNL     1      -2.023   1.697  21.320  0.00  0.00    +0.039 C 
ENDROOT
BRANCH   7  11
ATOM     11  C   UNL     1      -3.901   3.772  26.483  0.00  0.00    -0.013 C 
ATOM     16  C   UNL     1      -2.880   4.844  26.854  0.00  0.00    +0.007 C 
ATOM     17  C   UNL     1      -5.230   4.404  26.083  0.00  0.00    +0.007 C 
ENDBRANCH   7  11
BRANCH   8  14
ATOM     14  C   UNL     1      -5.497   1.666  24.714  0.00  0.00    +0.113 C 
BRANCH  14   4
ATOM      3  O   UNL     1      -4.101  -0.577  23.553  0.00  0.00    -0.253 OA
ATOM      4  N   UNL     1      -4.899   0.569  25.410  0.00  0.00    -0.299 N 
ATOM      6  N   UNL     1      -3.751  -1.419  25.688  0.00  0.00    -0.297 N 
ATOM     20  C   UNL     1      -4.236  -0.487  24.773  0.00  0.00    +0.300 C 
ATOM     31  H   UNL     1      -4.895   0.584  26.425  0.00  0.00    +0.150 HD
ATOM     33  H   UNL     1      -3.981  -1.296  26.668  0.00  0.00    +0.150 HD
BRANCH   6  22
ATOM     22  C   UNL     1      -3.028  -2.604  25.288  0.00  0.00    +0.068 C 
ATOM     24  C   UNL     1      -1.623  -2.237  24.830  0.00  0.00    +0.027 C 
ATOM     25  C   UNL     1      -3.788  -3.352  24.199  0.00  0.00    +0.027 C 
ENDBRANCH   6  22
ENDBRANCH  14   4
ENDBRANCH   8  14
BRANCH  10  15
ATOM     15  C   UNL     1      -0.690   1.494  24.234  0.00  0.00    +0.103 C 
BRANCH  15  19
ATOM      2  O   UNL     1       1.625   1.957  23.705  0.00  0.00    -0.276 OA
ATOM      5  N   UNL     1       0.534   0.207  22.633  0.00  0.00    -0.311 N 
ATOM     19  C   UNL     1       0.623   1.272  23.517  0.00  0.00    +0.214 C 
ATOM     32  H   UNL     1      -0.341  -0.305  22.560  0.00  0.00    +0.149 HD
BRANCH   5  21
ATOM     21  C   UNL     1       1.638  -0.230  21.811  0.00  0.00    +0.139 C 
BRANCH  21  23
ATOM      1  F   UNL     1       6.474  -0.381  24.690  0.00  0.00    -0.205 F 
ATOM     23  C   UNL     1       2.928  -0.270  22.578  0.00  0.00    -0.030 A 
ATOM     26  C   UNL     1       3.249  -1.391  23.343  0.00  0.00    +0.008 A 
ATOM     27  C   UNL     1       3.805   0.813  22.526  0.00  0.00    +0.008 A 
ATOM     28  C   UNL     1       4.448  -1.429  24.057  0.00  0.00    +0.038 A 
ATOM     29  C   UNL     1       5.003   0.775  23.239  0.00  0.00    +0.038 A 
ATOM     30  C   UNL     1       5.325  -0.345  24.003  0.00  0.00    +0.123 A 
ENDBRANCH  21  23
ENDBRANCH   5  21
ENDBRANCH  15  19
ENDBRANCH  10  15
TORSDOF 8
ENDMDL
MODEL 6
REMARK VINA RESULT:      -1.3      3.431      5.578
REMARK  Name = 38027539
REMARK  13 active torsions:
REMARK  status: ('A' for Active; 'I' for Inactive)
REMARK    1  A    between atoms: N_4  and  C_14
REMARK    2  A    between atoms: N_5  and  C_21
REMARK    3  A    between atoms: N_6  and  C_22
REMARK    4  A    between atoms: C_7  and  C_11
REMARK    5  A    between atoms: C_8  and  C_14
REMARK    6  A    between atoms: C_10  and  C_15
REMARK    7  A    between atoms: C_11  and  C_16
REMARK    8  A    between atoms: C_11  and  C_17
REMARK    9  A    between atoms: C_12  and  C_18
REMARK   10  A    between atoms: C_15  and  C_19
REMARK   11  A    between atoms: C_21  and  C_23
REMARK   12  A    between atoms: C_22  and  C_24
REMARK   13  A    between atoms: C_22  and  C_25
REMARK                            x       y       z     vdW  Elec       q    Type
REMARK                         _______ _______ _______ _____ _____    ______ ____
ROOT
ATOM      7  C   UNL     1      -2.874   2.158  23.966  0.00  0.00    +0.000 C 
ATOM      8  C   UNL     1      -1.590   2.722  24.627  0.00  0.00    +0.032 C 
ATOM      9  C   UNL     1      -3.877   3.288  23.691  0.00  0.00    +0.012 C 
ATOM     10  C   UNL     1      -4.278   4.036  24.976  0.00  0.00    +0.023 C 
ATOM     12  C   UNL     1      -3.071   4.392  25.821  0.00  0.00    -0.073 C 
ATOM     13  C   UNL     1      -1.875   3.804  25.640  0.00  0.00    -0.022 C 
ATOM     18  C   UNL     1      -3.258   5.475  26.847  0.00  0.00    +0.039 C 
ENDROOT
BRANCH   7  11
ATOM     11  C   UNL     1      -2.563   1.412  22.664  0.00  0.00    -0.013 C 
ATOM     16  C   UNL     1      -2.647   2.364  21.474  0.00  0.00    +0.007 C 
ATOM     17  C   UNL     1      -1.186   0.760  22.740  0.00  0.00    +0.007 C 
ENDBRANCH   7  11
BRANCH   8  14
ATOM     14  C   UNL     1      -0.772   1.606  25.285  0.00  0.00    +0.113 C 
BRANCH  14   4
ATOM      3  O   UNL     1      -0.388   2.071  28.107  0.00  0.00    -0.253 OA
ATOM      4  N   UNL     1       0.394   2.139  25.920  0.00  0.00    -0.299 N 
ATOM      6  N   UNL     1       1.744   2.867  27.650  0.00  0.00    -0.297 N 
ATOM     20  C   UNL     1       0.505   2.336  27.302  0.00  0.00    +0.300 C 
ATOM     31  H   UNL     1       1.213   2.325  25.350  0.00  0.00    +0.150 HD
ATOM     33  H   UNL     1       2.384   3.125  26.906  0.00  0.00    +0.150 HD
BRANCH   6  22
ATOM     22  C   UNL     1       2.112   3.165  29.015  0.00  0.00    +0.068 C 
ATOM     24  C   UNL     1       3.553   3.654  29.079  0.00  0.00    +0.027 C 
ATOM     25  C   UNL     1       1.901   1.945  29.904  0.00  0.00    +0.027 C 
ENDBRANCH   6  22
ENDBRANCH  14   4
ENDBRANCH   8  14
BRANCH  10  15
ATOM     15  C   UNL     1      -5.297   3.231  25.790  0.00  0.00    +0.103 C 
BRANCH  15  19
ATOM      2  O   UNL     1      -6.664   1.843  24.356  0.00  0.00    -0.276 OA
ATOM      5  N   UNL     1      -4.810   0.920  25.413  0.00  0.00    -0.311 N 
ATOM     19  C   UNL     1      -5.690   1.946  25.097  0.00  0.00    +0.214 C 
ATOM     32  H   UNL     1      -4.026   1.113  26.028  0.00  0.00    +0.149 HD
BRANCH   5  21
ATOM     21  C   UNL     1      -4.944  -0.421  24.894  0.00  0.00    +0.139 C 
BRANCH  21  23
ATOM      1  F   UNL     1      -0.112  -3.294  25.207  0.00  0.00    -0.205 F 
ATOM     23  C   UNL     1      -3.655  -1.186  24.977  0.00  0.00    -0.030 A 
ATOM     26  C   UNL     1      -3.434  -2.274  24.131  0.00  0.00    +0.008 A 
ATOM     27  C   UNL     1      -2.679  -0.812  25.901  0.00  0.00    +0.008 A 
ATOM     28  C   UNL     1      -2.236  -2.986  24.209  0.00  0.00    +0.038 A 
ATOM     29  C   UNL     1      -1.482  -1.523  25.978  0.00  0.00    +0.038 A 
ATOM     30  C   UNL     1      -1.260  -2.609  25.132  0.00  0.00    +0.123 A 
ENDBRANCH  21  23
ENDBRANCH   5  21
ENDBRANCH  15  19
ENDBRANCH  10  15
TORSDOF 8
ENDMDL
MODEL 7
REMARK VINA RESULT:      -1.0      1.488      1.935
REMARK  Name = 38027539
REMARK  13 active torsions:
REMARK  status: ('A' for Active; 'I' for Inactive)
REMARK    1  A    between atoms: N_4  and  C_14
REMARK    2  A    between atoms: N_5  and  C_21
REMARK    3  A    between atoms: N_6  and  C_22
REMARK    4  A    between atoms: C_7  and  C_11
REMARK    5  A    between atoms: C_8  and  C_14
REMARK    6  A    between atoms: C_10  and  C_15
REMARK    7  A    between atoms: C_11  and  C_16
REMARK    8  A    between atoms: C_11  and  C_17
REMARK    9  A    between atoms: C_12  and  C_18
REMARK   10  A    between atoms: C_15  and  C_19
REMARK   11  A    between atoms: C_21  and  C_23
REMARK   12  A    between atoms: C_22  and  C_24
REMARK   13  A    between atoms: C_22  and  C_25
REMARK                            x       y       z     vdW  Elec       q    Type
REMARK                         _______ _______ _______ _____ _____    ______ ____
ROOT
ATOM      7  C   UNL     1      -1.832  -0.340  25.074  0.00  0.00    +0.000 C 
ATOM      8  C   UNL     1      -1.169  -1.551  24.372  0.00  0.00    +0.032 C 
ATOM      9  C   UNL     1      -3.011  -0.802  25.944  0.00  0.00    +0.012 C 
ATOM     10  C   UNL     1      -4.086  -1.537  25.122  0.00  0.00    +0.023 C 
ATOM     12  C   UNL     1      -3.479  -2.574  24.199  0.00  0.00    -0.073 C 
ATOM     13  C   UNL     1      -2.171  -2.572  23.886  0.00  0.00    -0.022 C 
ATOM     18  C   UNL     1      -4.401  -3.642  23.680  0.00  0.00    +0.039 C 
ENDROOT
BRANCH   7  11
ATOM     11  C   UNL     1      -0.829   0.439  25.932  0.00  0.00    -0.013 C 
ATOM     16  C   UNL     1      -1.363   1.834  26.241  0.00  0.00    +0.007 C 
ATOM     17  C   UNL     1      -0.526  -0.323  27.219  0.00  0.00    +0.007 C 
ENDBRANCH   7  11
BRANCH   8  14
ATOM     14  C   UNL     1      -0.291  -1.099  23.201  0.00  0.00    +0.113 C 
BRANCH  14   4
ATOM      3  O   UNL     1       2.000  -0.309  21.634  0.00  0.00    -0.253 OA
ATOM      4  N   UNL     1       0.897  -0.460  23.674  0.00  0.00    -0.299 N 
ATOM      6  N   UNL     1       2.999   0.500  23.567  0.00  0.00    -0.297 N 
ATOM     20  C   UNL     1       1.972  -0.106  22.848  0.00  0.00    +0.300 C 
ATOM     31  H   UNL     1       0.944  -0.186  24.651  0.00  0.00    +0.150 HD
ATOM     33  H   UNL     1       2.914   0.551  24.577  0.00  0.00    +0.150 HD
BRANCH   6  22
ATOM     22  C   UNL     1       4.221   0.959  22.950  0.00  0.00    +0.068 C 
ATOM     24  C   UNL     1       4.245   0.577  21.476  0.00  0.00    +0.027 C 
ATOM     25  C   UNL     1       5.434   0.403  23.685  0.00  0.00    +0.027 C 
ENDBRANCH   6  22
ENDBRANCH  14   4
ENDBRANCH   8  14
BRANCH  10  15
ATOM     15  C   UNL     1      -4.957  -0.549  24.339  0.00  0.00    +0.103 C 
BRANCH  15  19
ATOM      2  O   UNL     1      -5.515   0.882  26.208  0.00  0.00    -0.276 OA
ATOM      5  N   UNL     1      -4.707   1.827  24.244  0.00  0.00    -0.311 N 
ATOM     19  C   UNL     1      -5.101   0.774  25.057  0.00  0.00    +0.214 C 
ATOM     32  H   UNL     1      -4.367   1.630  23.307  0.00  0.00    +0.149 HD
BRANCH   5  21
ATOM     21  C   UNL     1      -4.740   3.207  24.669  0.00  0.00    +0.139 C 
BRANCH  21  23
ATOM      1  F   UNL     1       0.377   5.555  24.614  0.00  0.00    -0.205 F 
ATOM     23  C   UNL     1      -3.375   3.833  24.655  0.00  0.00    -0.030 A 
ATOM     26  C   UNL     1      -3.108   4.942  25.458  0.00  0.00    +0.008 A 
ATOM     27  C   UNL     1      -2.375   3.306  23.838  0.00  0.00    +0.008 A 
ATOM     28  C   UNL     1      -1.840   5.524  25.444  0.00  0.00    +0.038 A 
ATOM     29  C   UNL     1      -1.108   3.887  23.825  0.00  0.00    +0.038 A 
ATOM     30  C   UNL     1      -0.840   4.995  24.628  0.00  0.00    +0.123 A 
ENDBRANCH  21  23
ENDBRANCH   5  21
ENDBRANCH  15  19
ENDBRANCH  10  15
TORSDOF 8
ENDMDL
MODEL 8
REMARK VINA RESULT:      -0.8      2.302      4.741
REMARK  Name = 38027539
REMARK  13 active torsions:
REMARK  status: ('A' for Active; 'I' for Inactive)
REMARK    1  A    between atoms: N_4  and  C_14
REMARK    2  A    between atoms: N_5  and  C_21
REMARK    3  A    between atoms: N_6  and  C_22
REMARK    4  A    between atoms: C_7  and  C_11
REMARK    5  A    between atoms: C_8  and  C_14
REMARK    6  A    between atoms: C_10  and  C_15
REMARK    7  A    between atoms: C_11  and  C_16
REMARK    8  A    between atoms: C_11  and  C_17
REMARK    9  A    between atoms: C_12  and  C_18
REMARK   10  A    between atoms: C_15  and  C_19
REMARK   11  A    between atoms: C_21  and  C_23
REMARK   12  A    between atoms: C_22  and  C_24
REMARK   13  A    between atoms: C_22  and  C_25
REMARK                            x       y       z     vdW  Elec       q    Type
REMARK                         _______ _______ _______ _____ _____    ______ ____
ROOT
ATOM      7  C   UNL     1      -1.699   3.897  24.649  0.00  0.00    +0.000 C 
ATOM      8  C   UNL     1      -1.818   3.368  26.101  0.00  0.00    +0.032 C 
ATOM      9  C   UNL     1      -3.047   4.456  24.170  0.00  0.00    +0.012 C 
ATOM     10  C   UNL     1      -4.165   3.398  24.213  0.00  0.00    +0.023 C 
ATOM     12  C   UNL     1      -4.174   2.642  25.527  0.00  0.00    -0.073 C 
ATOM     13  C   UNL     1      -3.121   2.653  26.364  0.00  0.00    -0.022 C 
ATOM     18  C   UNL     1      -5.441   1.912  25.879  0.00  0.00    +0.039 C 
ENDROOT
BRANCH   7  11
ATOM     11  C   UNL     1      -0.616   4.974  24.523  0.00  0.00    -0.013 C 
ATOM     16  C   UNL     1      -0.022   4.968  23.118  0.00  0.00    +0.007 C 
ATOM     17  C   UNL     1      -1.189   6.346  24.863  0.00  0.00    +0.007 C 
ENDBRANCH   7  11
BRANCH   8  14
ATOM     14  C   UNL     1      -0.647   2.444  26.451  0.00  0.00    +0.113 C 
BRANCH  14   4
ATOM      3  O   UNL     1       1.384   2.389  24.403  0.00  0.00    -0.253 OA
ATOM      4  N   UNL     1      -0.468   1.447  25.442  0.00  0.00    -0.299 N 
ATOM      6  N   UNL     1       0.490   0.397  23.618  0.00  0.00    -0.297 N 
ATOM     20  C   UNL     1       0.546   1.491  24.477  0.00  0.00    +0.300 C 
ATOM     31  H   UNL     1      -1.066   0.627  25.460  0.00  0.00    +0.150 HD
ATOM     33  H   UNL     1      -0.286  -0.250  23.712  0.00  0.00    +0.150 HD
BRANCH   6  22
ATOM     22  C   UNL     1       1.425   0.204  22.534  0.00  0.00    +0.068 C 
ATOM     24  C   UNL     1       0.862  -0.782  21.519  0.00  0.00    +0.027 C 
ATOM     25  C   UNL     1       2.774  -0.262  23.068  0.00  0.00    +0.027 C 
ENDBRANCH   6  22
ENDBRANCH  14   4
ENDBRANCH   8  14
BRANCH  10  15
ATOM     15  C   UNL     1      -4.060   2.433  23.027  0.00  0.00    +0.103 C 
BRANCH  15  19
ATOM      2  O   UNL     1      -2.464   0.680  23.505  0.00  0.00    -0.276 OA
ATOM      5  N   UNL     1      -4.734   0.266  23.781  0.00  0.00    -0.311 N 
ATOM     19  C   UNL     1      -3.634   1.047  23.457  0.00  0.00    +0.214 C 
ATOM     32  H   UNL     1      -5.664   0.669  23.719  0.00  0.00    +0.149 HD
BRANCH   5  21
ATOM     21  C   UNL     1      -4.625  -1.105  24.223  0.00  0.00    +0.139 C 
BRANCH  21  23
ATOM      1  F   UNL     1       0.570  -2.336  26.011  0.00  0.00    -0.205 F 
ATOM     23  C   UNL     1      -3.239  -1.432  24.700  0.00  0.00    -0.030 A 
ATOM     26  C   UNL     1      -2.415  -2.255  23.933  0.00  0.00    +0.008 A 
ATOM     27  C   UNL     1      -2.778  -0.916  25.910  0.00  0.00    +0.008 A 
ATOM     28  C   UNL     1      -1.127  -2.560  24.376  0.00  0.00    +0.038 A 
ATOM     29  C   UNL     1      -1.491  -1.220  26.353  0.00  0.00    +0.038 A 
ATOM     30  C   UNL     1      -0.665  -2.042  25.586  0.00  0.00    +0.123 A 
ENDBRANCH  21  23
ENDBRANCH   5  21
ENDBRANCH  15  19
ENDBRANCH  10  15
TORSDOF 8
ENDMDL
