MODEL 1
REMARK VINA RESULT:       3.6      0.000      0.000
REMARK  Name = 11886251
REMARK  7 active torsions:
REMARK  status: ('A' for Active; 'I' for Inactive)
REMARK    1  A    between atoms: O_6  and  C_22
REMARK    2  A    between atoms: O_6  and  C_27
REMARK    3  A    between atoms: N_8  and  C_18
REMARK    4  A    between atoms: N_9  and  C_19
REMARK    5  A    between atoms: N_13  and  C_36
REMARK    6  A    between atoms: C_23  and  C_24
REMARK    7  A    between atoms: C_30  and  C_35
REMARK                            x       y       z     vdW  Elec       q    Type
REMARK                         _______ _______ _______ _____ _____    ______ ____
ROOT
ATOM      4  O   UNL     1      -4.015  -0.963  23.300  0.00  0.00    -0.370 OA
ATOM      5  O   UNL     1      -2.706  -0.953  26.159  0.00  0.00    -0.370 OA
ATOM     16  C   UNL     1      -2.948   0.062  25.168  0.00  0.00    +0.176 C 
ATOM     17  C   UNL     1      -2.730  -0.576  23.810  0.00  0.00    +0.171 C 
ATOM     18  C   UNL     1      -4.413   0.455  25.179  0.00  0.00    +0.171 C 
ATOM     19  C   UNL     1      -1.891  -1.800  24.103  0.00  0.00    +0.130 C 
ATOM     20  C   UNL     1      -5.041  -0.537  24.207  0.00  0.00    +0.190 C 
ATOM     21  C   UNL     1      -2.344  -2.175  25.502  0.00  0.00    +0.185 C 
ENDROOT
BRANCH  18   8
ATOM      8  N   UNL     1      -4.619   1.867  24.844  0.00  0.00    -0.187 N 
ATOM     10  N   UNL     1      -5.825   2.430  24.956  0.00  0.00    -0.041 NA
ATOM     11  N   UNL     1      -4.334   3.918  24.228  0.00  0.00    -0.071 NA
ATOM     12  N   UNL     1      -5.645   3.689  24.577  0.00  0.00    -0.020 NA
ATOM     22  C   UNL     1      -3.716   2.772  24.402  0.00  0.00    +0.342 A 
BRANCH  22   6
ATOM      6  O   UNL     1      -2.437   2.525  24.187  0.00  0.00    -0.423 OA
BRANCH   6  27
ATOM     27  C   UNL     1      -1.490   2.551  25.202  0.00  0.00    +0.132 A 
ATOM     31  C   UNL     1      -0.200   2.137  24.924  0.00  0.00    +0.048 A 
ATOM     32  C   UNL     1      -1.863   2.988  26.457  0.00  0.00    +0.048 A 
ATOM     33  C   UNL     1       0.751   2.161  25.944  0.00  0.00    +0.031 A 
ATOM     34  C   UNL     1      -0.911   3.014  27.476  0.00  0.00    +0.031 A 
ATOM     36  C   UNL     1       0.397   2.599  27.219  0.00  0.00    +0.067 A 
BRANCH  36  13
ATOM     13  N   UNL     1       1.340   2.624  28.230  0.00  0.00    -0.220 N 
ATOM     14  N   UNL     1       2.579   3.111  28.039  0.00  0.00    -0.154 NA
ATOM     15  N   UNL     1       2.298   2.372  30.186  0.00  0.00    -0.222 NA
ATOM     37  C   UNL     1       1.186   2.186  29.513  0.00  0.00    +0.225 A 
ATOM     38  C   UNL     1       3.116   2.936  29.249  0.00  0.00    +0.245 A 
ENDBRANCH  36  13
ENDBRANCH   6  27
ENDBRANCH  22   6
ENDBRANCH  18   8
BRANCH  19   9
ATOM      7  O   UNL     1      -0.559  -0.041  22.266  0.00  0.00    -0.270 OA
ATOM      9  N   UNL     1      -0.483  -1.488  24.076  0.00  0.00    -0.304 N 
ATOM     23  C   UNL     1       0.072  -0.621  23.145  0.00  0.00    +0.244 C 
ATOM     39  H   UNL     1       0.116  -2.021  24.700  0.00  0.00    +0.149 HD
BRANCH  23  24
ATOM     24  C   UNL     1       1.541  -0.425  23.235  0.00  0.00    +0.037 A 
ATOM     25  C   UNL     1       2.320  -1.443  23.743  0.00  0.00    +0.013 A 
ATOM     26  C   UNL     1       2.080   0.771  22.806  0.00  0.00    +0.013 A 
ATOM     28  C   UNL     1       3.700  -1.259  23.825  0.00  0.00    +0.013 A 
ATOM     29  C   UNL     1       3.461   0.955  22.888  0.00  0.00    +0.013 A 
ATOM     30  C   UNL     1       4.271  -0.061  23.398  0.00  0.00    +0.055 A 
BRANCH  30  35
ATOM      1  F   UNL     1       6.112   1.428  23.737  0.00  0.00    -0.166 F 
ATOM      2  F   UNL     1       6.414  -0.210  22.348  0.00  0.00    -0.166 F 
ATOM      3  F   UNL     1       6.315  -0.604  24.484  0.00  0.00    -0.166 F 
ATOM     35  C   UNL     1       5.746   0.136  23.487  0.00  0.00    +0.417 C 
ENDBRANCH  30  35
ENDBRANCH  23  24
ENDBRANCH  19   9
TORSDOF 7
ENDMDL
