MODEL 1
REMARK VINA RESULT:      -5.4      0.000      0.000
REMARK  Name = 56775446
REMARK  9 active torsions:
REMARK  status: ('A' for Active; 'I' for Inactive)
REMARK    1  A    between atoms: N_3  and  C_7
REMARK    2  A    between atoms: N_3  and  C_12
REMARK    3  A    between atoms: N_5  and  C_16
REMARK    4  A    between atoms: N_5  and  C_20
REMARK    5  A    between atoms: N_5  and  C_21
REMARK    6  A    between atoms: C_7  and  C_10
REMARK    7  A    between atoms: C_10  and  C_11
REMARK    8  A    between atoms: C_12  and  C_14
REMARK    9  A    between atoms: C_15  and  C_16
REMARK                            x       y       z     vdW  Elec       q    Type
REMARK                         _______ _______ _______ _____ _____    ______ ____
ROOT
ATOM      1  O   UNL     1      -2.359   4.998  25.465  0.00  0.00    -0.376 OA
ATOM      7  C   UNL     1      -1.842   2.935  25.283  0.00  0.00    +0.072 C 
ATOM      8  C   UNL     1      -1.455   4.252  24.619  0.00  0.00    +0.184 C 
ATOM      9  C   UNL     1      -2.700   3.801  26.199  0.00  0.00    +0.184 C 
ENDROOT
BRANCH   7   3
ATOM      3  N   UNL     1      -2.716   2.195  24.384  0.00  0.00    -0.302 NA
ATOM     23  H   UNL     1      -2.244   1.508  23.797  0.00  0.00    +0.123 HD
BRANCH   3  12
ATOM     12  C   UNL     1      -3.773   1.540  25.150  0.00  0.00    +0.118 C 
BRANCH  12  14
ATOM      6  N   UNL     1      -3.307  -2.141  25.901  0.00  0.00    -0.263 NA
ATOM     14  C   UNL     1      -3.752   0.046  24.970  0.00  0.00    -0.015 A 
ATOM     17  C   UNL     1      -4.136  -0.537  23.766  0.00  0.00    +0.008 A 
ATOM     18  C   UNL     1      -3.350  -0.793  25.997  0.00  0.00    +0.115 A 
ATOM     19  C   UNL     1      -4.105  -1.920  23.629  0.00  0.00    +0.020 A 
ATOM     22  C   UNL     1      -3.687  -2.670  24.716  0.00  0.00    +0.111 A 
ENDBRANCH  12  14
ENDBRANCH   3  12
ENDBRANCH   7   3
BRANCH   7  10
ATOM     10  C   UNL     1      -0.742   2.063  25.902  0.00  0.00    +0.085 C 
BRANCH  10  11
ATOM      2  O   UNL     1       0.205  -0.693  23.838  0.00  0.00    -0.358 OA
ATOM      4  N   UNL     1      -0.516  -0.134  24.885  0.00  0.00    -0.083 NA
ATOM     11  C   UNL     1      -0.160   1.154  24.902  0.00  0.00    +0.086 A 
ATOM     13  C   UNL     1       0.774   1.462  23.898  0.00  0.00    +0.072 A 
ATOM     15  C   UNL     1       0.969   0.267  23.257  0.00  0.00    +0.151 A 
BRANCH  15  16
ATOM     16  C   UNL     1       1.823  -0.165  22.094  0.00  0.00    +0.161 C 
BRANCH  16   5
ATOM      5  N   UNL     1       3.248  -0.122  22.419  0.00  0.00    -0.301 NA
ATOM     20  C   UNL     1       3.556  -1.069  23.489  0.00  0.00    +0.105 C 
ATOM     21  C   UNL     1       3.643   1.232  22.806  0.00  0.00    +0.105 C 
ENDBRANCH  16   5
ENDBRANCH  15  16
ENDBRANCH  10  11
ENDBRANCH   7  10
TORSDOF 7
ENDMDL
MODEL 2
REMARK VINA RESULT:      -5.4      1.673      2.245
REMARK  Name = 56775446
REMARK  9 active torsions:
REMARK  status: ('A' for Active; 'I' for Inactive)
REMARK    1  A    between atoms: N_3  and  C_7
REMARK    2  A    between atoms: N_3  and  C_12
REMARK    3  A    between atoms: N_5  and  C_16
REMARK    4  A    between atoms: N_5  and  C_20
REMARK    5  A    between atoms: N_5  and  C_21
REMARK    6  A    between atoms: C_7  and  C_10
REMARK    7  A    between atoms: C_10  and  C_11
REMARK    8  A    between atoms: C_12  and  C_14
REMARK    9  A    between atoms: C_15  and  C_16
REMARK                            x       y       z     vdW  Elec       q    Type
REMARK                         _______ _______ _______ _____ _____    ______ ____
ROOT
ATOM      1  O   UNL     1      -5.749   4.005  25.776  0.00  0.00    -0.376 OA
ATOM      7  C   UNL     1      -4.158   2.850  24.944  0.00  0.00    +0.072 C 
ATOM      8  C   UNL     1      -5.657   3.023  24.720  0.00  0.00    +0.184 C 
ATOM      9  C   UNL     1      -4.318   3.960  25.977  0.00  0.00    +0.184 C 
ENDROOT
BRANCH   7   3
ATOM      3  N   UNL     1      -3.929   1.592  25.639  0.00  0.00    -0.302 NA
ATOM     23  H   UNL     1      -4.133   1.611  26.638  0.00  0.00    +0.123 HD
BRANCH   3  12
ATOM     12  C   UNL     1      -4.704   0.529  25.003  0.00  0.00    +0.118 C 
BRANCH  12  14
ATOM      6  N   UNL     1      -1.887  -1.981  25.322  0.00  0.00    -0.263 NA
ATOM     14  C   UNL     1      -3.888  -0.722  24.813  0.00  0.00    -0.015 A 
ATOM     17  C   UNL     1      -4.335  -1.752  23.990  0.00  0.00    +0.008 A 
ATOM     18  C   UNL     1      -2.669  -0.885  25.451  0.00  0.00    +0.115 A 
ATOM     19  C   UNL     1      -3.559  -2.895  23.834  0.00  0.00    +0.020 A 
ATOM     22  C   UNL     1      -2.355  -2.960  24.515  0.00  0.00    +0.111 A 
ENDBRANCH  12  14
ENDBRANCH   3  12
ENDBRANCH   7   3
BRANCH   7  10
ATOM     10  C   UNL     1      -3.200   3.066  23.765  0.00  0.00    +0.085 C 
BRANCH  10  11
ATOM      2  O   UNL     1      -0.016   1.932  24.916  0.00  0.00    -0.358 OA
ATOM      4  N   UNL     1      -1.117   2.776  24.984  0.00  0.00    -0.083 NA
ATOM     11  C   UNL     1      -1.918   2.381  23.990  0.00  0.00    +0.086 A 
ATOM     13  C   UNL     1      -1.378   1.302  23.268  0.00  0.00    +0.072 A 
ATOM     15  C   UNL     1      -0.183   1.058  23.891  0.00  0.00    +0.151 A 
BRANCH  15  16
ATOM     16  C   UNL     1       0.924   0.061  23.669  0.00  0.00    +0.161 C 
BRANCH  16   5
ATOM      5  N   UNL     1       1.731   0.395  22.496  0.00  0.00    -0.301 NA
ATOM     20  C   UNL     1       1.477  -0.554  21.414  0.00  0.00    +0.105 C 
ATOM     21  C   UNL     1       3.153   0.408  22.841  0.00  0.00    +0.105 C 
ENDBRANCH  16   5
ENDBRANCH  15  16
ENDBRANCH  10  11
ENDBRANCH   7  10
TORSDOF 7
ENDMDL
MODEL 3
REMARK VINA RESULT:      -5.2      2.275      4.013
REMARK  Name = 56775446
REMARK  9 active torsions:
REMARK  status: ('A' for Active; 'I' for Inactive)
REMARK    1  A    between atoms: N_3  and  C_7
REMARK    2  A    between atoms: N_3  and  C_12
REMARK    3  A    between atoms: N_5  and  C_16
REMARK    4  A    between atoms: N_5  and  C_20
REMARK    5  A    between atoms: N_5  and  C_21
REMARK    6  A    between atoms: C_7  and  C_10
REMARK    7  A    between atoms: C_10  and  C_11
REMARK    8  A    between atoms: C_12  and  C_14
REMARK    9  A    between atoms: C_15  and  C_16
REMARK                            x       y       z     vdW  Elec       q    Type
REMARK                         _______ _______ _______ _____ _____    ______ ____
ROOT
ATOM      1  O   UNL     1      -0.609   5.490  24.666  0.00  0.00    -0.376 OA
ATOM      7  C   UNL     1      -1.034   3.405  24.843  0.00  0.00    +0.072 C 
ATOM      8  C   UNL     1      -0.006   4.286  24.140  0.00  0.00    +0.184 C 
ATOM      9  C   UNL     1      -1.554   4.712  25.434  0.00  0.00    +0.184 C 
ENDROOT
BRANCH   7   3
ATOM      3  N   UNL     1      -1.991   2.923  23.857  0.00  0.00    -0.302 NA
ATOM     23  H   UNL     1      -2.195   1.925  23.911  0.00  0.00    +0.123 HD
BRANCH   3  12
ATOM     12  C   UNL     1      -3.234   3.683  23.962  0.00  0.00    +0.118 C 
BRANCH  12  14
ATOM      6  N   UNL     1      -6.071   2.910  26.346  0.00  0.00    -0.263 NA
ATOM     14  C   UNL     1      -4.298   2.917  24.703  0.00  0.00    -0.015 A 
ATOM     17  C   UNL     1      -4.505   1.562  24.462  0.00  0.00    +0.008 A 
ATOM     18  C   UNL     1      -5.101   3.538  25.646  0.00  0.00    +0.115 A 
ATOM     19  C   UNL     1      -5.495   0.882  25.162  0.00  0.00    +0.020 A 
ATOM     22  C   UNL     1      -6.243   1.594  26.085  0.00  0.00    +0.111 A 
ENDBRANCH  12  14
ENDBRANCH   3  12
ENDBRANCH   7   3
BRANCH   7  10
ATOM     10  C   UNL     1      -0.545   2.304  25.793  0.00  0.00    +0.085 C 
BRANCH  10  11
ATOM      2  O   UNL     1      -0.356  -0.642  23.784  0.00  0.00    -0.358 OA
ATOM      4  N   UNL     1       0.010   0.663  24.087  0.00  0.00    -0.083 NA
ATOM     11  C   UNL     1      -0.690   0.973  25.182  0.00  0.00    +0.086 A 
ATOM     13  C   UNL     1      -1.507  -0.087  25.611  0.00  0.00    +0.072 A 
ATOM     15  C   UNL     1      -1.260  -1.078  24.698  0.00  0.00    +0.151 A 
BRANCH  15  16
ATOM     16  C   UNL     1      -1.770  -2.484  24.521  0.00  0.00    +0.161 C 
BRANCH  16   5
ATOM      5  N   UNL     1      -3.182  -2.600  24.881  0.00  0.00    -0.301 NA
ATOM     20  C   UNL     1      -4.029  -2.166  23.771  0.00  0.00    +0.105 C 
ATOM     21  C   UNL     1      -3.470  -1.815  26.081  0.00  0.00    +0.105 C 
ENDBRANCH  16   5
ENDBRANCH  15  16
ENDBRANCH  10  11
ENDBRANCH   7  10
TORSDOF 7
ENDMDL
MODEL 4
REMARK VINA RESULT:      -5.1      2.388      5.149
REMARK  Name = 56775446
REMARK  9 active torsions:
REMARK  status: ('A' for Active; 'I' for Inactive)
REMARK    1  A    between atoms: N_3  and  C_7
REMARK    2  A    between atoms: N_3  and  C_12
REMARK    3  A    between atoms: N_5  and  C_16
REMARK    4  A    between atoms: N_5  and  C_20
REMARK    5  A    between atoms: N_5  and  C_21
REMARK    6  A    between atoms: C_7  and  C_10
REMARK    7  A    between atoms: C_10  and  C_11
REMARK    8  A    between atoms: C_12  and  C_14
REMARK    9  A    between atoms: C_15  and  C_16
REMARK                            x       y       z     vdW  Elec       q    Type
REMARK                         _______ _______ _______ _____ _____    ______ ____
ROOT
ATOM      1  O   UNL     1      -3.632  -3.619  24.864  0.00  0.00    -0.376 OA
ATOM      7  C   UNL     1      -2.350  -1.923  24.666  0.00  0.00    +0.072 C 
ATOM      8  C   UNL     1      -3.298  -2.498  25.714  0.00  0.00    +0.184 C 
ATOM      9  C   UNL     1      -2.680  -3.181  23.869  0.00  0.00    +0.184 C 
ENDROOT
BRANCH   7   3
ATOM      3  N   UNL     1      -2.993  -0.783  24.028  0.00  0.00    -0.302 NA
ATOM     23  H   UNL     1      -3.255  -0.928  23.054  0.00  0.00    +0.123 HD
BRANCH   3  12
ATOM     12  C   UNL     1      -4.170  -0.386  24.797  0.00  0.00    +0.118 C 
BRANCH  12  14
ATOM      6  N   UNL     1      -3.953   3.210  23.632  0.00  0.00    -0.263 NA
ATOM     14  C   UNL     1      -4.430   1.094  24.701  0.00  0.00    -0.015 A 
ATOM     17  C   UNL     1      -5.342   1.718  25.546  0.00  0.00    +0.008 A 
ATOM     18  C   UNL     1      -3.768   1.878  23.770  0.00  0.00    +0.115 A 
ATOM     19  C   UNL     1      -5.561   3.086  25.434  0.00  0.00    +0.020 A 
ATOM     22  C   UNL     1      -4.847   3.781  24.471  0.00  0.00    +0.111 A 
ENDBRANCH  12  14
ENDBRANCH   3  12
ENDBRANCH   7   3
BRANCH   7  10
ATOM     10  C   UNL     1      -0.891  -1.650  25.052  0.00  0.00    +0.085 C 
BRANCH  10  11
ATOM      2  O   UNL     1       0.213   1.528  23.856  0.00  0.00    -0.358 OA
ATOM      4  N   UNL     1       0.029   0.159  23.713  0.00  0.00    -0.083 NA
ATOM     11  C   UNL     1      -0.546  -0.234  24.855  0.00  0.00    +0.086 A 
ATOM     13  C   UNL     1      -0.745   0.835  25.746  0.00  0.00    +0.072 A 
ATOM     15  C   UNL     1      -0.252   1.920  25.070  0.00  0.00    +0.151 A 
BRANCH  15  16
ATOM     16  C   UNL     1      -0.131   3.385  25.397  0.00  0.00    +0.161 C 
BRANCH  16   5
ATOM      5  N   UNL     1      -1.408   4.082  25.253  0.00  0.00    -0.301 NA
ATOM     20  C   UNL     1      -1.187   5.487  24.912  0.00  0.00    +0.105 C 
ATOM     21  C   UNL     1      -2.191   3.972  26.484  0.00  0.00    +0.105 C 
ENDBRANCH  16   5
ENDBRANCH  15  16
ENDBRANCH  10  11
ENDBRANCH   7  10
TORSDOF 7
ENDMDL
MODEL 5
REMARK VINA RESULT:      -5.0      2.188      3.905
REMARK  Name = 56775446
REMARK  9 active torsions:
REMARK  status: ('A' for Active; 'I' for Inactive)
REMARK    1  A    between atoms: N_3  and  C_7
REMARK    2  A    between atoms: N_3  and  C_12
REMARK    3  A    between atoms: N_5  and  C_16
REMARK    4  A    between atoms: N_5  and  C_20
REMARK    5  A    between atoms: N_5  and  C_21
REMARK    6  A    between atoms: C_7  and  C_10
REMARK    7  A    between atoms: C_10  and  C_11
REMARK    8  A    between atoms: C_12  and  C_14
REMARK    9  A    between atoms: C_15  and  C_16
REMARK                            x       y       z     vdW  Elec       q    Type
REMARK                         _______ _______ _______ _____ _____    ______ ____
ROOT
ATOM      1  O   UNL     1      -0.740  -2.366  25.458  0.00  0.00    -0.376 OA
ATOM      7  C   UNL     1      -1.870  -0.728  24.685  0.00  0.00    +0.072 C 
ATOM      8  C   UNL     1      -0.860  -0.967  25.802  0.00  0.00    +0.184 C 
ATOM      9  C   UNL     1      -1.618  -2.188  24.324  0.00  0.00    +0.184 C 
ENDROOT
BRANCH   7   3
ATOM      3  N   UNL     1      -3.198  -0.613  25.271  0.00  0.00    -0.302 NA
ATOM     23  H   UNL     1      -3.233  -0.111  26.158  0.00  0.00    +0.123 HD
BRANCH   3  12
ATOM     12  C   UNL     1      -4.105   0.019  24.316  0.00  0.00    +0.118 C 
BRANCH  12  14
ATOM      6  N   UNL     1      -5.944   2.800  26.110  0.00  0.00    -0.263 NA
ATOM     14  C   UNL     1      -4.510   1.400  24.757  0.00  0.00    -0.015 A 
ATOM     17  C   UNL     1      -3.870   2.529  24.254  0.00  0.00    +0.008 A 
ATOM     18  C   UNL     1      -5.531   1.588  25.674  0.00  0.00    +0.115 A 
ATOM     19  C   UNL     1      -4.266   3.792  24.680  0.00  0.00    +0.020 A 
ATOM     22  C   UNL     1      -5.299   3.873  25.600  0.00  0.00    +0.111 A 
ENDBRANCH  12  14
ENDBRANCH   3  12
ENDBRANCH   7   3
BRANCH   7  10
ATOM     10  C   UNL     1      -1.580   0.356  23.639  0.00  0.00    +0.085 C 
BRANCH  10  11
ATOM      2  O   UNL     1       1.774   1.567  23.821  0.00  0.00    -0.358 OA
ATOM      4  N   UNL     1       0.426   1.631  24.150  0.00  0.00    -0.083 NA
ATOM     11  C   UNL     1      -0.134   0.599  23.512  0.00  0.00    +0.086 A 
ATOM     13  C   UNL     1       0.803  -0.145  22.774  0.00  0.00    +0.072 A 
ATOM     15  C   UNL     1       1.987   0.505  23.002  0.00  0.00    +0.151 A 
BRANCH  15  16
ATOM     16  C   UNL     1       3.404   0.283  22.544  0.00  0.00    +0.161 C 
BRANCH  16   5
ATOM      5  N   UNL     1       4.274  -0.128  23.644  0.00  0.00    -0.301 NA
ATOM     20  C   UNL     1       5.644   0.325  23.409  0.00  0.00    +0.105 C 
ATOM     21  C   UNL     1       4.238  -1.581  23.810  0.00  0.00    +0.105 C 
ENDBRANCH  16   5
ENDBRANCH  15  16
ENDBRANCH  10  11
ENDBRANCH   7  10
TORSDOF 7
ENDMDL
MODEL 6
REMARK VINA RESULT:      -5.0      2.012      3.967
REMARK  Name = 56775446
REMARK  9 active torsions:
REMARK  status: ('A' for Active; 'I' for Inactive)
REMARK    1  A    between atoms: N_3  and  C_7
REMARK    2  A    between atoms: N_3  and  C_12
REMARK    3  A    between atoms: N_5  and  C_16
REMARK    4  A    between atoms: N_5  and  C_20
REMARK    5  A    between atoms: N_5  and  C_21
REMARK    6  A    between atoms: C_7  and  C_10
REMARK    7  A    between atoms: C_10  and  C_11
REMARK    8  A    between atoms: C_12  and  C_14
REMARK    9  A    between atoms: C_15  and  C_16
REMARK                            x       y       z     vdW  Elec       q    Type
REMARK                         _______ _______ _______ _____ _____    ______ ____
ROOT
ATOM      1  O   UNL     1      -3.037  -3.014  25.083  0.00  0.00    -0.376 OA
ATOM      7  C   UNL     1      -2.691  -0.932  24.766  0.00  0.00    +0.072 C 
ATOM      8  C   UNL     1      -3.620  -1.800  25.608  0.00  0.00    +0.184 C 
ATOM      9  C   UNL     1      -2.065  -2.252  24.332  0.00  0.00    +0.184 C 
ENDROOT
BRANCH   7   3
ATOM      3  N   UNL     1      -3.448  -0.382  23.650  0.00  0.00    -0.302 NA
ATOM     23  H   UNL     1      -4.458  -0.498  23.718  0.00  0.00    +0.123 HD
BRANCH   3  12
ATOM     12  C   UNL     1      -3.129   1.035  23.488  0.00  0.00    +0.118 C 
BRANCH  12  14
ATOM      6  N   UNL     1      -4.515   4.078  25.263  0.00  0.00    -0.263 NA
ATOM     14  C   UNL     1      -4.049   1.912  24.294  0.00  0.00    -0.015 A 
ATOM     17  C   UNL     1      -5.243   1.416  24.810  0.00  0.00    +0.008 A 
ATOM     18  C   UNL     1      -3.735   3.238  24.547  0.00  0.00    +0.115 A 
ATOM     19  C   UNL     1      -6.072   2.251  25.551  0.00  0.00    +0.020 A 
ATOM     22  C   UNL     1      -5.667   3.560  25.747  0.00  0.00    +0.111 A 
ENDBRANCH  12  14
ENDBRANCH   3  12
ENDBRANCH   7   3
BRANCH   7  10
ATOM     10  C   UNL     1      -1.812   0.112  25.466  0.00  0.00    +0.085 C 
BRANCH  10  11
ATOM      2  O   UNL     1       1.060   1.507  23.867  0.00  0.00    -0.358 OA
ATOM      4  N   UNL     1      -0.072   1.610  24.665  0.00  0.00    -0.083 NA
ATOM     11  C   UNL     1      -0.586   0.376  24.697  0.00  0.00    +0.086 A 
ATOM     13  C   UNL     1       0.173  -0.537  23.943  0.00  0.00    +0.072 A 
ATOM     15  C   UNL     1       1.196   0.224  23.443  0.00  0.00    +0.151 A 
BRANCH  15  16
ATOM     16  C   UNL     1       2.380  -0.071  22.560  0.00  0.00    +0.161 C 
BRANCH  16   5
ATOM      5  N   UNL     1       3.643   0.034  23.289  0.00  0.00    -0.301 NA
ATOM     20  C   UNL     1       4.626   0.776  22.502  0.00  0.00    +0.105 C 
ATOM     21  C   UNL     1       4.153  -1.296  23.621  0.00  0.00    +0.105 C 
ENDBRANCH  16   5
ENDBRANCH  15  16
ENDBRANCH  10  11
ENDBRANCH   7  10
TORSDOF 7
ENDMDL
MODEL 7
REMARK VINA RESULT:      -3.9      1.623      2.370
REMARK  Name = 56775446
REMARK  9 active torsions:
REMARK  status: ('A' for Active; 'I' for Inactive)
REMARK    1  A    between atoms: N_3  and  C_7
REMARK    2  A    between atoms: N_3  and  C_12
REMARK    3  A    between atoms: N_5  and  C_16
REMARK    4  A    between atoms: N_5  and  C_20
REMARK    5  A    between atoms: N_5  and  C_21
REMARK    6  A    between atoms: C_7  and  C_10
REMARK    7  A    between atoms: C_10  and  C_11
REMARK    8  A    between atoms: C_12  and  C_14
REMARK    9  A    between atoms: C_15  and  C_16
REMARK                            x       y       z     vdW  Elec       q    Type
REMARK                         _______ _______ _______ _____ _____    ______ ____
ROOT
ATOM      1  O   UNL     1      -1.371   5.714  25.204  0.00  0.00    -0.376 OA
ATOM      7  C   UNL     1      -1.540   3.604  24.930  0.00  0.00    +0.072 C 
ATOM      8  C   UNL     1      -0.535   4.702  24.600  0.00  0.00    +0.184 C 
ATOM      9  C   UNL     1      -2.321   4.711  25.630  0.00  0.00    +0.184 C 
ENDROOT
BRANCH   7   3
ATOM      3  N   UNL     1      -2.245   3.232  23.711  0.00  0.00    -0.302 NA
ATOM     23  H   UNL     1      -2.229   2.236  23.494  0.00  0.00    +0.123 HD
BRANCH   3  12
ATOM     12  C   UNL     1      -3.629   3.695  23.780  0.00  0.00    +0.118 C 
BRANCH  12  14
ATOM      6  N   UNL     1      -6.210   2.519  26.288  0.00  0.00    -0.263 NA
ATOM     14  C   UNL     1      -4.486   2.779  24.613  0.00  0.00    -0.015 A 
ATOM     17  C   UNL     1      -4.372   1.396  24.505  0.00  0.00    +0.008 A 
ATOM     18  C   UNL     1      -5.412   3.285  25.511  0.00  0.00    +0.115 A 
ATOM     19  C   UNL     1      -5.176   0.576  25.287  0.00  0.00    +0.020 A 
ATOM     22  C   UNL     1      -6.071   1.181  26.155  0.00  0.00    +0.111 A 
ENDBRANCH  12  14
ENDBRANCH   3  12
ENDBRANCH   7   3
BRANCH   7  10
ATOM     10  C   UNL     1      -1.076   2.391  25.747  0.00  0.00    +0.085 C 
BRANCH  10  11
ATOM      2  O   UNL     1      -0.062  -0.467  23.863  0.00  0.00    -0.358 OA
ATOM      4  N   UNL     1      -0.944   0.200  24.704  0.00  0.00    -0.083 NA
ATOM     11  C   UNL     1      -0.397   1.404  24.894  0.00  0.00    +0.086 A 
ATOM     13  C   UNL     1       0.819   1.552  24.204  0.00  0.00    +0.072 A 
ATOM     15  C   UNL     1       0.983   0.348  23.572  0.00  0.00    +0.151 A 
BRANCH  15  16
ATOM     16  C   UNL     1       2.045  -0.217  22.664  0.00  0.00    +0.161 C 
BRANCH  16   5
ATOM      5  N   UNL     1       3.390   0.028  23.182  0.00  0.00    -0.301 NA
ATOM     20  C   UNL     1       4.201   0.725  22.185  0.00  0.00    +0.105 C 
ATOM     21  C   UNL     1       4.026  -1.232  23.568  0.00  0.00    +0.105 C 
ENDBRANCH  16   5
ENDBRANCH  15  16
ENDBRANCH  10  11
ENDBRANCH   7  10
TORSDOF 7
ENDMDL
MODEL 8
REMARK VINA RESULT:      -3.8     16.950     19.430
REMARK  Name = 56775446
REMARK  9 active torsions:
REMARK  status: ('A' for Active; 'I' for Inactive)
REMARK    1  A    between atoms: N_3  and  C_7
REMARK    2  A    between atoms: N_3  and  C_12
REMARK    3  A    between atoms: N_5  and  C_16
REMARK    4  A    between atoms: N_5  and  C_20
REMARK    5  A    between atoms: N_5  and  C_21
REMARK    6  A    between atoms: C_7  and  C_10
REMARK    7  A    between atoms: C_10  and  C_11
REMARK    8  A    between atoms: C_12  and  C_14
REMARK    9  A    between atoms: C_15  and  C_16
REMARK                            x       y       z     vdW  Elec       q    Type
REMARK                         _______ _______ _______ _____ _____    ______ ____
ROOT
ATOM      1  O   UNL     1      15.568  -8.335  26.394  0.00  0.00    -0.376 OA
ATOM      7  C   UNL     1      16.662  -6.559  26.848  0.00  0.00    +0.072 C 
ATOM      8  C   UNL     1      15.211  -7.028  26.897  0.00  0.00    +0.184 C 
ATOM      9  C   UNL     1      16.971  -7.987  26.412  0.00  0.00    +0.184 C 
ENDROOT
BRANCH   7   3
ATOM      3  N   UNL     1      16.829  -5.673  25.704  0.00  0.00    -0.302 NA
ATOM     23  H   UNL     1      15.978  -5.495  25.171  0.00  0.00    +0.123 HD
BRANCH   3  12
ATOM     12  C   UNL     1      17.405  -4.404  26.143  0.00  0.00    +0.118 C 
BRANCH  12  14
ATOM      6  N   UNL     1      16.554  -2.658  22.894  0.00  0.00    -0.263 NA
ATOM     14  C   UNL     1      17.174  -3.307  25.138  0.00  0.00    -0.015 A 
ATOM     17  C   UNL     1      17.354  -1.970  25.483  0.00  0.00    +0.008 A 
ATOM     18  C   UNL     1      16.777  -3.594  23.843  0.00  0.00    +0.115 A 
ATOM     19  C   UNL     1      17.134  -0.979  24.534  0.00  0.00    +0.020 A 
ATOM     22  C   UNL     1      16.739  -1.371  23.265  0.00  0.00    +0.111 A 
ENDBRANCH  12  14
ENDBRANCH   3  12
ENDBRANCH   7   3
BRANCH   7  10
ATOM     10  C   UNL     1      17.312  -6.015  28.127  0.00  0.00    +0.085 C 
BRANCH  10  11
ATOM      2  O   UNL     1      15.601  -7.348  30.963  0.00  0.00    -0.358 OA
ATOM      4  N   UNL     1      16.506  -7.452  29.915  0.00  0.00    -0.083 NA
ATOM     11  C   UNL     1      16.462  -6.265  29.302  0.00  0.00    +0.086 A 
ATOM     13  C   UNL     1      15.555  -5.382  29.913  0.00  0.00    +0.072 A 
ATOM     15  C   UNL     1      15.041  -6.111  30.952  0.00  0.00    +0.151 A 
BRANCH  15  16
ATOM     16  C   UNL     1      14.027  -5.822  32.028  0.00  0.00    +0.161 C 
BRANCH  16   5
ATOM      5  N   UNL     1      12.704  -5.548  31.470  0.00  0.00    -0.301 NA
ATOM     20  C   UNL     1      11.762  -5.205  32.534  0.00  0.00    +0.105 C 
ATOM     21  C   UNL     1      12.220  -6.700  30.711  0.00  0.00    +0.105 C 
ENDBRANCH  16   5
ENDBRANCH  15  16
ENDBRANCH  10  11
ENDBRANCH   7  10
TORSDOF 7
ENDMDL
MODEL 9
REMARK VINA RESULT:      -3.2     18.560     20.081
REMARK  Name = 56775446
REMARK  9 active torsions:
REMARK  status: ('A' for Active; 'I' for Inactive)
REMARK    1  A    between atoms: N_3  and  C_7
REMARK    2  A    between atoms: N_3  and  C_12
REMARK    3  A    between atoms: N_5  and  C_16
REMARK    4  A    between atoms: N_5  and  C_20
REMARK    5  A    between atoms: N_5  and  C_21
REMARK    6  A    between atoms: C_7  and  C_10
REMARK    7  A    between atoms: C_10  and  C_11
REMARK    8  A    between atoms: C_12  and  C_14
REMARK    9  A    between atoms: C_15  and  C_16
REMARK                            x       y       z     vdW  Elec       q    Type
REMARK                         _______ _______ _______ _____ _____    ______ ____
ROOT
ATOM      1  O   UNL     1      15.455  -8.348  25.867  0.00  0.00    -0.376 OA
ATOM      7  C   UNL     1      16.541  -6.613  26.472  0.00  0.00    +0.072 C 
ATOM      8  C   UNL     1      15.149  -7.198  26.687  0.00  0.00    +0.184 C 
ATOM      9  C   UNL     1      16.818  -7.898  25.700  0.00  0.00    +0.184 C 
ENDROOT
BRANCH   7   3
ATOM      3  N   UNL     1      16.445  -5.509  25.527  0.00  0.00    -0.302 NA
ATOM     23  H   UNL     1      15.514  -5.105  25.433  0.00  0.00    +0.123 HD
BRANCH   3  12
ATOM     12  C   UNL     1      17.397  -4.463  25.891  0.00  0.00    +0.118 C 
BRANCH  12  14
ATOM      6  N   UNL     1      17.377  -0.951  24.478  0.00  0.00    -0.263 NA
ATOM     14  C   UNL     1      17.394  -3.332  24.897  0.00  0.00    -0.015 A 
ATOM     17  C   UNL     1      17.402  -3.581  23.528  0.00  0.00    +0.008 A 
ATOM     18  C   UNL     1      17.382  -2.012  25.316  0.00  0.00    +0.115 A 
ATOM     19  C   UNL     1      17.398  -2.515  22.635  0.00  0.00    +0.020 A 
ATOM     22  C   UNL     1      17.385  -1.232  23.156  0.00  0.00    +0.111 A 
ENDBRANCH  12  14
ENDBRANCH   3  12
ENDBRANCH   7   3
BRANCH   7  10
ATOM     10  C   UNL     1      17.405  -6.280  27.695  0.00  0.00    +0.085 C 
BRANCH  10  11
ATOM      2  O   UNL     1      15.452  -6.111  30.680  0.00  0.00    -0.358 OA
ATOM      4  N   UNL     1      16.021  -5.536  29.551  0.00  0.00    -0.083 NA
ATOM     11  C   UNL     1      16.674  -6.534  28.947  0.00  0.00    +0.086 A 
ATOM     13  C   UNL     1      16.552  -7.749  29.643  0.00  0.00    +0.072 A 
ATOM     15  C   UNL     1      15.774  -7.429  30.724  0.00  0.00    +0.151 A 
BRANCH  15  16
ATOM     16  C   UNL     1      15.237  -8.214  31.891  0.00  0.00    +0.161 C 
BRANCH  16   5
ATOM      5  N   UNL     1      15.170  -9.645  31.600  0.00  0.00    -0.301 NA
ATOM     20  C   UNL     1      13.857 -10.179  31.958  0.00  0.00    +0.105 C 
ATOM     21  C   UNL     1      16.225 -10.362  32.316  0.00  0.00    +0.105 C 
ENDBRANCH  16   5
ENDBRANCH  15  16
ENDBRANCH  10  11
ENDBRANCH   7  10
TORSDOF 7
ENDMDL
MODEL 10
REMARK VINA RESULT:      -3.0     15.187     18.209
REMARK  Name = 56775446
REMARK  9 active torsions:
REMARK  status: ('A' for Active; 'I' for Inactive)
REMARK    1  A    between atoms: N_3  and  C_7
REMARK    2  A    between atoms: N_3  and  C_12
REMARK    3  A    between atoms: N_5  and  C_16
REMARK    4  A    between atoms: N_5  and  C_20
REMARK    5  A    between atoms: N_5  and  C_21
REMARK    6  A    between atoms: C_7  and  C_10
REMARK    7  A    between atoms: C_10  and  C_11
REMARK    8  A    between atoms: C_12  and  C_14
REMARK    9  A    between atoms: C_15  and  C_16
REMARK                            x       y       z     vdW  Elec       q    Type
REMARK                         _______ _______ _______ _____ _____    ______ ____
ROOT
ATOM      1  O   UNL     1      -4.118 -10.112  12.504  0.00  0.00    -0.376 OA
ATOM      7  C   UNL     1      -6.139  -9.866  11.860  0.00  0.00    +0.072 C 
ATOM      8  C   UNL     1      -4.836 -10.414  11.286  0.00  0.00    +0.184 C 
ATOM      9  C   UNL     1      -5.336  -9.665  13.141  0.00  0.00    +0.184 C 
ENDROOT
BRANCH   7   3
ATOM      3  N   UNL     1      -6.403  -8.564  11.263  0.00  0.00    -0.302 NA
ATOM     23  H   UNL     1      -5.763  -7.824  11.549  0.00  0.00    +0.123 HD
BRANCH   3  12
ATOM     12  C   UNL     1      -6.398  -8.679   9.807  0.00  0.00    +0.118 C 
BRANCH  12  14
ATOM      6  N   UNL     1      -9.965  -8.776   8.542  0.00  0.00    -0.263 NA
ATOM     14  C   UNL     1      -7.704  -8.233   9.205  0.00  0.00    -0.015 A 
ATOM     17  C   UNL     1      -7.881  -6.926   8.763  0.00  0.00    +0.008 A 
ATOM     18  C   UNL     1      -8.768  -9.111   9.073  0.00  0.00    +0.115 A 
ATOM     19  C   UNL     1      -9.098  -6.543   8.211  0.00  0.00    +0.020 A 
ATOM     22  C   UNL     1     -10.099  -7.497   8.124  0.00  0.00    +0.111 A 
ENDBRANCH  12  14
ENDBRANCH   3  12
ENDBRANCH   7   3
BRANCH   7  10
ATOM     10  C   UNL     1      -7.376 -10.772  11.894  0.00  0.00    +0.085 C 
BRANCH  10  11
ATOM      2  O   UNL     1     -10.418  -9.183  12.880  0.00  0.00    -0.358 OA
ATOM      4  N   UNL     1      -9.581  -9.749  11.926  0.00  0.00    -0.083 NA
ATOM     11  C   UNL     1      -8.491 -10.123  12.602  0.00  0.00    +0.086 A 
ATOM     13  C   UNL     1      -8.583  -9.821  13.972  0.00  0.00    +0.072 A 
ATOM     15  C   UNL     1      -9.813  -9.233  14.094  0.00  0.00    +0.151 A 
BRANCH  15  16
ATOM     16  C   UNL     1     -10.584  -8.659  15.254  0.00  0.00    +0.161 C 
BRANCH  16   5
ATOM      5  N   UNL     1      -9.813  -7.647  15.973  0.00  0.00    -0.301 NA
ATOM     20  C   UNL     1      -9.667  -8.019  17.379  0.00  0.00    +0.105 C 
ATOM     21  C   UNL     1     -10.453  -6.337  15.856  0.00  0.00    +0.105 C 
ENDBRANCH  16   5
ENDBRANCH  15  16
ENDBRANCH  10  11
ENDBRANCH   7  10
TORSDOF 7
ENDMDL
