MODEL 1
REMARK VINA RESULT:      10.1      0.000      0.000
REMARK  Name = 11887495
REMARK  5 active torsions:
REMARK  status: ('A' for Active; 'I' for Inactive)
REMARK    1  A    between atoms: O_4  and  C_28
REMARK    2  A    between atoms: O_4  and  C_32
REMARK    3  A    between atoms: N_7  and  C_18
REMARK    4  A    between atoms: C_17  and  C_20
REMARK    5  A    between atoms: C_24  and  C_28
REMARK                            x       y       z     vdW  Elec       q    Type
REMARK                         _______ _______ _______ _____ _____    ______ ____
ROOT
ATOM      1  O   UNL     1       0.040  -1.516  22.534  0.00  0.00    -0.266 OA
ATOM      2  O   UNL     1      -4.922  -0.056  22.676  0.00  0.00    -0.270 OA
ATOM      5  N   UNL     1      -4.429  -1.095  24.714  0.00  0.00    -0.297 N 
ATOM      6  N   UNL     1      -1.332  -1.712  24.416  0.00  0.00    -0.310 N 
ATOM      8  C   UNL     1      -3.325  -3.317  24.515  0.00  0.00    +0.027 C 
ATOM      9  C   UNL     1      -2.822  -1.870  26.441  0.00  0.00    +0.054 C 
ATOM     10  C   UNL     1      -3.070  -3.317  26.018  0.00  0.00    +0.018 C 
ATOM     11  C   UNL     1      -4.552  -2.450  24.178  0.00  0.00    +0.113 C 
ATOM     12  C   UNL     1      -2.060  -2.829  23.798  0.00  0.00    +0.130 C 
ATOM     13  C   UNL     1      -4.074  -1.022  26.140  0.00  0.00    +0.117 C 
ATOM     14  C   UNL     1      -1.623  -1.287  25.716  0.00  0.00    +0.027 A 
ATOM     15  C   UNL     1      -0.870  -0.343  26.305  0.00  0.00    +0.024 A 
ATOM     16  C   UNL     1      -0.265  -1.163  23.674  0.00  0.00    +0.273 A 
ATOM     17  C   UNL     1      -4.625  -0.001  23.869  0.00  0.00    +0.247 C 
ATOM     18  C   UNL     1       0.532  -0.095  24.356  0.00  0.00    +0.099 A 
ATOM     19  C   UNL     1       0.228   0.264  25.608  0.00  0.00    +0.030 A 
ENDROOT
BRANCH  17  20
ATOM     20  C   UNL     1      -4.447   1.342  24.430  0.00  0.00    +0.037 A 
ATOM     21  C   UNL     1      -3.211   1.976  24.332  0.00  0.00    +0.021 A 
ATOM     22  C   UNL     1      -5.513   1.975  25.057  0.00  0.00    +0.013 A 
ATOM     23  C   UNL     1      -3.024   3.262  24.865  0.00  0.00    -0.017 A 
ATOM     25  C   UNL     1      -5.346   3.253  25.592  0.00  0.00    +0.009 A 
ATOM     26  C   UNL     1      -4.108   3.910  25.504  0.00  0.00    -0.018 A 
ATOM     27  C   UNL     1      -1.787   3.919  24.776  0.00  0.00    +0.008 A 
ATOM     29  C   UNL     1      -3.922   5.196  26.036  0.00  0.00    +0.008 A 
ATOM     30  C   UNL     1      -1.619   5.197  25.311  0.00  0.00    +0.001 A 
ATOM     31  C   UNL     1      -2.685   5.834  25.940  0.00  0.00    +0.001 A 
ENDBRANCH  17  20
BRANCH  18   7
ATOM      3  O   UNL     1       0.851   2.692  23.763  0.00  0.00    -0.272 OA
ATOM      7  N   UNL     1       1.561   0.474  23.665  0.00  0.00    -0.278 N 
ATOM     24  C   UNL     1       1.657   1.836  23.410  0.00  0.00    +0.255 C 
ATOM     38  H   UNL     1       2.158  -0.154  23.132  0.00  0.00    +0.155 HD
BRANCH  24  28
ATOM     28  C   UNL     1       2.907   2.167  22.622  0.00  0.00    +0.324 C 
BRANCH  28   4
ATOM      4  O   UNL     1       3.465   0.999  22.057  0.00  0.00    -0.483 OA
BRANCH   4  32
ATOM     32  C   UNL     1       4.261   0.227  22.870  0.00  0.00    +0.121 A 
ATOM     33  C   UNL     1       3.907  -1.092  23.119  0.00  0.00    +0.045 A 
ATOM     34  C   UNL     1       5.406   0.778  23.427  0.00  0.00    +0.045 A 
ATOM     35  C   UNL     1       4.714  -1.875  23.944  0.00  0.00    +0.004 A 
ATOM     36  C   UNL     1       6.214  -0.005  24.251  0.00  0.00    +0.004 A 
ATOM     37  C   UNL     1       5.868  -1.332  24.509  0.00  0.00    +0.000 A 
ENDBRANCH   4  32
ENDBRANCH  28   4
ENDBRANCH  24  28
ENDBRANCH  18   7
TORSDOF 5
ENDMDL
MODEL 2
REMARK VINA RESULT:      12.3      2.156      6.493
REMARK  Name = 11887495
REMARK  5 active torsions:
REMARK  status: ('A' for Active; 'I' for Inactive)
REMARK    1  A    between atoms: O_4  and  C_28
REMARK    2  A    between atoms: O_4  and  C_32
REMARK    3  A    between atoms: N_7  and  C_18
REMARK    4  A    between atoms: C_17  and  C_20
REMARK    5  A    between atoms: C_24  and  C_28
REMARK                            x       y       z     vdW  Elec       q    Type
REMARK                         _______ _______ _______ _____ _____    ______ ____
ROOT
ATOM      1  O   UNL     1      -4.488   1.254  26.150  0.00  0.00    -0.266 OA
ATOM      2  O   UNL     1      -0.382  -1.859  26.619  0.00  0.00    -0.270 OA
ATOM      5  N   UNL     1      -1.569  -2.530  24.717  0.00  0.00    -0.297 N 
ATOM      6  N   UNL     1      -3.888  -0.370  24.581  0.00  0.00    -0.310 N 
ATOM      8  C   UNL     1      -4.006  -2.881  25.074  0.00  0.00    +0.027 C 
ATOM      9  C   UNL     1      -3.191  -2.100  22.887  0.00  0.00    +0.054 C 
ATOM     10  C   UNL     1      -4.199  -3.025  23.569  0.00  0.00    +0.018 C 
ATOM     11  C   UNL     1      -2.573  -3.278  25.472  0.00  0.00    +0.113 C 
ATOM     12  C   UNL     1      -4.341  -1.441  25.481  0.00  0.00    +0.130 C 
ATOM     13  C   UNL     1      -1.759  -2.535  23.257  0.00  0.00    +0.117 C 
ATOM     14  C   UNL     1      -3.410  -0.656  23.298  0.00  0.00    +0.027 A 
ATOM     15  C   UNL     1      -3.111   0.341  22.449  0.00  0.00    +0.024 A 
ATOM     16  C   UNL     1      -4.055   0.953  25.036  0.00  0.00    +0.273 A 
ATOM     17  C   UNL     1      -0.547  -1.867  25.399  0.00  0.00    +0.247 C 
ATOM     18  C   UNL     1      -3.685   2.036  24.070  0.00  0.00    +0.099 A 
ATOM     19  C   UNL     1      -3.251   1.713  22.846  0.00  0.00    +0.030 A 
ENDROOT
BRANCH  17  20
ATOM     20  C   UNL     1       0.415  -1.089  24.612  0.00  0.00    +0.037 A 
ATOM     21  C   UNL     1       1.745  -1.496  24.543  0.00  0.00    +0.021 A 
ATOM     22  C   UNL     1      -0.006   0.049  23.936  0.00  0.00    +0.013 A 
ATOM     23  C   UNL     1       2.679  -0.762  23.793  0.00  0.00    -0.017 A 
ATOM     25  C   UNL     1       0.907   0.791  23.186  0.00  0.00    +0.009 A 
ATOM     26  C   UNL     1       2.253   0.398  23.104  0.00  0.00    -0.018 A 
ATOM     27  C   UNL     1       4.024  -1.155  23.711  0.00  0.00    +0.008 A 
ATOM     29  C   UNL     1       3.186   1.132  22.353  0.00  0.00    +0.008 A 
ATOM     30  C   UNL     1       4.938  -0.414  22.961  0.00  0.00    +0.001 A 
ATOM     31  C   UNL     1       4.519   0.727  22.283  0.00  0.00    +0.001 A 
ENDBRANCH  17  20
BRANCH  18   7
ATOM      3  O   UNL     1      -5.921   3.163  25.467  0.00  0.00    -0.272 OA
ATOM      7  N   UNL     1      -3.815   3.330  24.479  0.00  0.00    -0.278 N 
ATOM     24  C   UNL     1      -4.928   3.815  25.154  0.00  0.00    +0.255 C 
ATOM     38  H   UNL     1      -3.169   4.005  24.078  0.00  0.00    +0.155 HD
BRANCH  24  28
ATOM     28  C   UNL     1      -4.784   5.288  25.476  0.00  0.00    +0.324 C 
BRANCH  28   4
ATOM      4  O   UNL     1      -3.662   5.510  26.304  0.00  0.00    -0.483 OA
BRANCH   4  32
ATOM     32  C   UNL     1      -2.491   4.879  25.958  0.00  0.00    +0.121 A 
ATOM     33  C   UNL     1      -2.138   3.696  26.593  0.00  0.00    +0.045 A 
ATOM     34  C   UNL     1      -1.681   5.433  24.977  0.00  0.00    +0.045 A 
ATOM     35  C   UNL     1      -0.950   3.056  26.241  0.00  0.00    +0.004 A 
ATOM     36  C   UNL     1      -0.493   4.792  24.624  0.00  0.00    +0.004 A 
ATOM     37  C   UNL     1      -0.128   3.603  25.256  0.00  0.00    +0.000 A 
ENDBRANCH   4  32
ENDBRANCH  28   4
ENDBRANCH  24  28
ENDBRANCH  18   7
TORSDOF 5
ENDMDL
MODEL 3
REMARK VINA RESULT:      13.4      2.799      4.474
REMARK  Name = 11887495
REMARK  5 active torsions:
REMARK  status: ('A' for Active; 'I' for Inactive)
REMARK    1  A    between atoms: O_4  and  C_28
REMARK    2  A    between atoms: O_4  and  C_32
REMARK    3  A    between atoms: N_7  and  C_18
REMARK    4  A    between atoms: C_17  and  C_20
REMARK    5  A    between atoms: C_24  and  C_28
REMARK                            x       y       z     vdW  Elec       q    Type
REMARK                         _______ _______ _______ _____ _____    ______ ____
ROOT
ATOM      1  O   UNL     1      -2.113   1.704  21.576  0.00  0.00    -0.266 OA
ATOM      2  O   UNL     1      -1.963   5.244  25.346  0.00  0.00    -0.270 OA
ATOM      5  N   UNL     1      -3.541   3.626  25.954  0.00  0.00    -0.297 N 
ATOM      6  N   UNL     1      -3.291   1.530  23.587  0.00  0.00    -0.310 N 
ATOM      8  C   UNL     1      -5.224   3.096  24.199  0.00  0.00    +0.027 C 
ATOM      9  C   UNL     1      -4.515   1.349  25.781  0.00  0.00    +0.054 C 
ATOM     10  C   UNL     1      -5.720   1.925  25.040  0.00  0.00    +0.018 C 
ATOM     11  C   UNL     1      -4.593   4.174  25.100  0.00  0.00    +0.113 C 
ATOM     12  C   UNL     1      -4.236   2.569  23.152  0.00  0.00    +0.130 C 
ATOM     13  C   UNL     1      -3.920   2.424  26.713  0.00  0.00    +0.117 C 
ATOM     14  C   UNL     1      -3.453   0.870  24.809  0.00  0.00    +0.027 A 
ATOM     15  C   UNL     1      -2.650  -0.155  25.137  0.00  0.00    +0.024 A 
ATOM     16  C   UNL     1      -2.284   1.165  22.671  0.00  0.00    +0.273 A 
ATOM     17  C   UNL     1      -2.286   4.239  25.978  0.00  0.00    +0.247 C 
ATOM     18  C   UNL     1      -1.392   0.035  23.085  0.00  0.00    +0.099 A 
ATOM     19  C   UNL     1      -1.599  -0.578  24.255  0.00  0.00    +0.030 A 
ENDROOT
BRANCH  17  20
ATOM     20  C   UNL     1      -1.242   3.635  26.811  0.00  0.00    +0.037 A 
ATOM     21  C   UNL     1      -1.316   3.735  28.198  0.00  0.00    +0.021 A 
ATOM     22  C   UNL     1      -0.183   2.963  26.213  0.00  0.00    +0.013 A 
ATOM     23  C   UNL     1      -0.324   3.162  29.010  0.00  0.00    -0.017 A 
ATOM     25  C   UNL     1       0.812   2.387  27.003  0.00  0.00    +0.009 A 
ATOM     26  C   UNL     1       0.756   2.478  28.404  0.00  0.00    -0.018 A 
ATOM     27  C   UNL     1      -0.381   3.251  30.410  0.00  0.00    +0.008 A 
ATOM     29  C   UNL     1       1.748   1.903  29.215  0.00  0.00    +0.008 A 
ATOM     30  C   UNL     1       0.614   2.676  31.202  0.00  0.00    +0.001 A 
ATOM     31  C   UNL     1       1.676   2.003  30.605  0.00  0.00    +0.001 A 
ENDBRANCH  17  20
BRANCH  18   7
ATOM      3  O   UNL     1       1.384   0.714  23.318  0.00  0.00    -0.272 OA
ATOM      7  N   UNL     1      -0.394  -0.336  22.234  0.00  0.00    -0.278 N 
ATOM     24  C   UNL     1       0.936   0.028  22.403  0.00  0.00    +0.255 C 
ATOM     38  H   UNL     1      -0.676  -0.705  21.329  0.00  0.00    +0.155 HD
BRANCH  24  28
ATOM     28  C   UNL     1       1.810  -0.533  21.300  0.00  0.00    +0.324 C 
BRANCH  28   4
ATOM      4  O   UNL     1       3.060   0.123  21.271  0.00  0.00    -0.483 OA
BRANCH   4  32
ATOM     32  C   UNL     1       3.895  -0.070  22.345  0.00  0.00    +0.121 A 
ATOM     33  C   UNL     1       3.948  -1.315  22.955  0.00  0.00    +0.045 A 
ATOM     34  C   UNL     1       4.673   0.984  22.803  0.00  0.00    +0.045 A 
ATOM     35  C   UNL     1       4.796  -1.511  24.046  0.00  0.00    +0.004 A 
ATOM     36  C   UNL     1       5.522   0.789  23.892  0.00  0.00    +0.004 A 
ATOM     37  C   UNL     1       5.583  -0.458  24.514  0.00  0.00    +0.000 A 
ENDBRANCH   4  32
ENDBRANCH  28   4
ENDBRANCH  24  28
ENDBRANCH  18   7
TORSDOF 5
ENDMDL
