MODEL 1
REMARK VINA RESULT:       5.7      0.000      0.000
REMARK  Name = 9424620
REMARK  4 active torsions:
REMARK  status: ('A' for Active; 'I' for Inactive)
REMARK    1  A    between atoms: N_5  and  C_14
REMARK    2  A    between atoms: N_8  and  C_21
REMARK    3  A    between atoms: C_25  and  C_26
REMARK    4  A    between atoms: C_27  and  C_28
REMARK                            x       y       z     vdW  Elec       q    Type
REMARK                         _______ _______ _______ _____ _____    ______ ____
ROOT
ATOM      2  O   UNL     1      -3.651   5.532  26.649  0.00  0.00    -0.268 OA
ATOM      5  N   UNL     1      -4.013   0.823  24.955  0.00  0.00    -0.298 NA
ATOM      6  N   UNL     1      -3.294   3.934  24.975  0.00  0.00    -0.310 N 
ATOM      9  C   UNL     1      -5.228   2.703  23.827  0.00  0.00    +0.024 C 
ATOM     10  C   UNL     1      -2.919   2.205  23.188  0.00  0.00    +0.052 C 
ATOM     11  C   UNL     1      -4.279   2.634  22.643  0.00  0.00    +0.017 C 
ATOM     12  C   UNL     1      -5.320   1.327  24.518  0.00  0.00    +0.090 C 
ATOM     13  C   UNL     1      -3.045   0.813  23.849  0.00  0.00    +0.094 C 
ATOM     15  C   UNL     1      -4.744   3.808  24.770  0.00  0.00    +0.130 C 
ATOM     16  C   UNL     1      -2.371   3.220  24.188  0.00  0.00    +0.047 A 
ATOM     21  C   UNL     1      -1.045   3.432  24.355  0.00  0.00    +0.054 A 
ATOM     22  C   UNL     1      -2.890   4.870  25.943  0.00  0.00    +0.252 A 
ATOM     23  C   UNL     1      -0.579   4.384  25.333  0.00  0.00    +0.030 A 
ATOM     24  C   UNL     1      -1.427   5.069  26.101  0.00  0.00    +0.072 A 
ENDROOT
BRANCH   5  14
ATOM      3  O   UNL     1      -1.063  -3.914  23.569  0.00  0.00    -0.276 OA
ATOM      7  N   UNL     1      -1.787  -1.999  24.668  0.00  0.00    -0.302 N 
ATOM     14  C   UNL     1      -4.136  -0.508  25.555  0.00  0.00    +0.060 C 
ATOM     17  C   UNL     1      -2.946  -0.788  26.483  0.00  0.00    +0.038 C 
ATOM     18  C   UNL     1      -4.211  -1.583  24.461  0.00  0.00    +0.038 C 
ATOM     19  C   UNL     1      -1.636  -0.980  25.715  0.00  0.00    +0.109 C 
ATOM     20  C   UNL     1      -2.883  -1.760  23.725  0.00  0.00    +0.109 C 
ATOM     25  C   UNL     1      -0.949  -3.100  24.489  0.00  0.00    +0.212 C 
ATOM     26  C   UNL     1       0.152  -3.283  25.503  0.00  0.00    +0.109 C 
ENDBRANCH   5  14
BRANCH  21   8
ATOM      4  O   UNL     1       0.625   1.410  25.383  0.00  0.00    -0.269 OA
ATOM      8  N   UNL     1      -0.076   2.766  23.656  0.00  0.00    -0.280 N 
ATOM     27  C   UNL     1       0.727   1.771  24.210  0.00  0.00    +0.255 C 
ATOM     32  H   UNL     1      -0.087   2.866  22.648  0.00  0.00    +0.155 HD
BRANCH  27  28
ATOM      1  S   UNL     1       1.173  -0.181  22.382  0.00  0.00    -0.092 S 
ATOM     28  C   UNL     1       1.690   1.153  23.286  0.00  0.00    +0.074 A 
ATOM     29  C   UNL     1       2.968   1.526  23.063  0.00  0.00    +0.021 A 
ATOM     30  C   UNL     1       3.578   0.677  22.094  0.00  0.00    +0.008 A 
ATOM     31  C   UNL     1       2.712  -0.295  21.640  0.00  0.00    +0.046 A 
ENDBRANCH  27  28
ENDBRANCH  21   8
TORSDOF 3
ENDMDL
MODEL 2
REMARK VINA RESULT:       7.6      1.683      5.726
REMARK  Name = 9424620
REMARK  4 active torsions:
REMARK  status: ('A' for Active; 'I' for Inactive)
REMARK    1  A    between atoms: N_5  and  C_14
REMARK    2  A    between atoms: N_8  and  C_21
REMARK    3  A    between atoms: C_25  and  C_26
REMARK    4  A    between atoms: C_27  and  C_28
REMARK                            x       y       z     vdW  Elec       q    Type
REMARK                         _______ _______ _______ _____ _____    ______ ____
ROOT
ATOM      2  O   UNL     1      -4.130  -4.031  23.828  0.00  0.00    -0.268 OA
ATOM      5  N   UNL     1      -3.120   0.869  24.227  0.00  0.00    -0.298 NA
ATOM      6  N   UNL     1      -2.810  -2.280  24.653  0.00  0.00    -0.310 N 
ATOM      9  C   UNL     1      -3.745  -0.494  26.236  0.00  0.00    +0.024 C 
ATOM     10  C   UNL     1      -1.404  -0.390  25.532  0.00  0.00    +0.052 C 
ATOM     11  C   UNL     1      -2.319  -0.425  26.754  0.00  0.00    +0.017 C 
ATOM     12  C   UNL     1      -4.053   0.732  25.352  0.00  0.00    +0.090 C 
ATOM     13  C   UNL     1      -1.723   0.864  24.684  0.00  0.00    +0.094 C 
ATOM     15  C   UNL     1      -3.926  -1.820  25.492  0.00  0.00    +0.130 C 
ATOM     16  C   UNL     1      -1.551  -1.653  24.686  0.00  0.00    +0.047 A 
ATOM     21  C   UNL     1      -0.530  -2.164  23.960  0.00  0.00    +0.054 A 
ATOM     22  C   UNL     1      -3.055  -3.432  23.884  0.00  0.00    +0.252 A 
ATOM     23  C   UNL     1      -0.729  -3.345  23.157  0.00  0.00    +0.030 A 
ATOM     24  C   UNL     1      -1.912  -3.958  23.096  0.00  0.00    +0.072 A 
ENDROOT
BRANCH   5  14
ATOM      3  O   UNL     1      -2.153   6.329  25.749  0.00  0.00    -0.276 OA
ATOM      7  N   UNL     1      -1.951   4.238  24.754  0.00  0.00    -0.302 N 
ATOM     14  C   UNL     1      -3.411   2.073  23.446  0.00  0.00    +0.060 C 
ATOM     17  C   UNL     1      -2.117   2.657  22.863  0.00  0.00    +0.038 C 
ATOM     18  C   UNL     1      -4.111   3.123  24.323  0.00  0.00    +0.038 C 
ATOM     19  C   UNL     1      -1.213   3.267  23.936  0.00  0.00    +0.109 C 
ATOM     20  C   UNL     1      -3.175   3.722  25.373  0.00  0.00    +0.109 C 
ATOM     25  C   UNL     1      -1.544   5.547  25.015  0.00  0.00    +0.212 C 
ATOM     26  C   UNL     1      -0.278   6.008  24.338  0.00  0.00    +0.109 C 
ENDBRANCH   5  14
BRANCH  21   8
ATOM      4  O   UNL     1       0.377  -0.340  22.014  0.00  0.00    -0.269 OA
ATOM      8  N   UNL     1       0.719  -1.606  23.910  0.00  0.00    -0.280 N 
ATOM     27  C   UNL     1       1.121  -0.707  22.925  0.00  0.00    +0.255 C 
ATOM     32  H   UNL     1       1.297  -1.702  24.735  0.00  0.00    +0.155 HD
BRANCH  27  28
ATOM      1  S   UNL     1       3.676  -1.255  23.648  0.00  0.00    -0.092 S 
ATOM     28  C   UNL     1       2.493  -0.196  23.062  0.00  0.00    +0.074 A 
ATOM     29  C   UNL     1       2.940   1.044  22.770  0.00  0.00    +0.021 A 
ATOM     30  C   UNL     1       4.336   1.152  23.037  0.00  0.00    +0.008 A 
ATOM     31  C   UNL     1       4.862  -0.027  23.519  0.00  0.00    +0.046 A 
ENDBRANCH  27  28
ENDBRANCH  21   8
TORSDOF 3
ENDMDL
MODEL 3
REMARK VINA RESULT:       8.4      1.612      2.166
REMARK  Name = 9424620
REMARK  4 active torsions:
REMARK  status: ('A' for Active; 'I' for Inactive)
REMARK    1  A    between atoms: N_5  and  C_14
REMARK    2  A    between atoms: N_8  and  C_21
REMARK    3  A    between atoms: C_25  and  C_26
REMARK    4  A    between atoms: C_27  and  C_28
REMARK                            x       y       z     vdW  Elec       q    Type
REMARK                         _______ _______ _______ _____ _____    ______ ____
ROOT
ATOM      2  O   UNL     1      -2.355   3.733  28.995  0.00  0.00    -0.268 OA
ATOM      5  N   UNL     1      -3.587   2.246  24.363  0.00  0.00    -0.298 NA
ATOM      6  N   UNL     1      -1.944   3.689  26.689  0.00  0.00    -0.310 N 
ATOM      9  C   UNL     1      -3.593   4.673  24.989  0.00  0.00    +0.024 C 
ATOM     10  C   UNL     1      -1.519   3.634  24.211  0.00  0.00    +0.052 C 
ATOM     11  C   UNL     1      -2.349   4.914  24.152  0.00  0.00    +0.017 C 
ATOM     12  C   UNL     1      -4.388   3.474  24.433  0.00  0.00    +0.090 C 
ATOM     13  C   UNL     1      -2.337   2.461  23.622  0.00  0.00    +0.094 C 
ATOM     15  C   UNL     1      -3.164   4.473  26.446  0.00  0.00    +0.130 C 
ATOM     16  C   UNL     1      -1.085   3.313  25.640  0.00  0.00    +0.047 A 
ATOM     21  C   UNL     1       0.070   2.665  25.921  0.00  0.00    +0.054 A 
ATOM     22  C   UNL     1      -1.649   3.415  28.037  0.00  0.00    +0.252 A 
ATOM     23  C   UNL     1       0.420   2.363  27.287  0.00  0.00    +0.030 A 
ATOM     24  C   UNL     1      -0.377   2.698  28.303  0.00  0.00    +0.072 A 
ENDROOT
BRANCH   5  14
ATOM      3  O   UNL     1      -1.949  -3.232  23.753  0.00  0.00    -0.276 OA
ATOM      7  N   UNL     1      -2.968  -1.301  24.549  0.00  0.00    -0.302 N 
ATOM     14  C   UNL     1      -4.360   1.148  23.778  0.00  0.00    +0.060 C 
ATOM     17  C   UNL     1      -4.887   0.218  24.881  0.00  0.00    +0.038 C 
ATOM     18  C   UNL     1      -3.495   0.350  22.791  0.00  0.00    +0.038 C 
ATOM     19  C   UNL     1      -3.772  -0.588  25.550  0.00  0.00    +0.109 C 
ATOM     20  C   UNL     1      -2.402  -0.456  23.494  0.00  0.00    +0.109 C 
ATOM     25  C   UNL     1      -2.672  -2.665  24.575  0.00  0.00    +0.212 C 
ATOM     26  C   UNL     1      -3.295  -3.470  25.688  0.00  0.00    +0.109 C 
ENDBRANCH   5  14
BRANCH  21   8
ATOM      4  O   UNL     1       0.001   0.165  24.625  0.00  0.00    -0.269 OA
ATOM      8  N   UNL     1       0.951   2.238  24.966  0.00  0.00    -0.280 N 
ATOM     27  C   UNL     1       0.876   0.989  24.353  0.00  0.00    +0.255 C 
ATOM     32  H   UNL     1       1.556   2.938  24.553  0.00  0.00    +0.155 HD
BRANCH  27  28
ATOM      1  S   UNL     1       1.519  -0.368  22.095  0.00  0.00    -0.092 S 
ATOM     28  C   UNL     1       1.898   0.728  23.328  0.00  0.00    +0.074 A 
ATOM     29  C   UNL     1       3.133   1.267  23.245  0.00  0.00    +0.021 A 
ATOM     30  C   UNL     1       3.826   0.762  22.107  0.00  0.00    +0.008 A 
ATOM     31  C   UNL     1       3.063  -0.136  21.393  0.00  0.00    +0.046 A 
ENDBRANCH  27  28
ENDBRANCH  21   8
TORSDOF 3
ENDMDL
