MODEL 1
REMARK VINA RESULT:      -2.5      0.000      0.000
REMARK  Name = 26744178
REMARK  7 active torsions:
REMARK  status: ('A' for Active; 'I' for Inactive)
REMARK    1  A    between atoms: O_1  and  C_10
REMARK    2  A    between atoms: O_4  and  C_28
REMARK    3  A    between atoms: O_4  and  C_29
REMARK    4  A    between atoms: N_5  and  C_12
REMARK    5  A    between atoms: C_8  and  C_13
REMARK    6  A    between atoms: C_12  and  C_14
REMARK    7  A    between atoms: C_17  and  C_19
REMARK                            x       y       z     vdW  Elec       q    Type
REMARK                         _______ _______ _______ _____ _____    ______ ____
ROOT
ATOM      5  N   UNL     1      -5.125   2.095  25.367  0.00  0.00    -0.282 NA
ATOM      8  C   UNL     1      -4.304   2.863  24.408  0.00  0.00    +0.149 C 
ATOM      9  C   UNL     1      -4.627   4.338  24.707  0.00  0.00    +0.061 C 
ATOM     10  C   UNL     1      -5.670   4.297  25.817  0.00  0.00    +0.130 C 
ATOM     11  C   UNL     1      -6.292   2.922  25.668  0.00  0.00    +0.117 C 
ENDROOT
BRANCH   8  13
ATOM      2  O   UNL     1      -2.213   2.942  25.669  0.00  0.00    -0.336 OA
ATOM      6  N   UNL     1      -2.037   1.951  23.668  0.00  0.00    -0.190 NA
ATOM      7  N   UNL     1      -0.874   2.551  25.545  0.00  0.00    -0.056 NA
ATOM     13  C   UNL     1      -2.828   2.551  24.523  0.00  0.00    +0.245 A 
ATOM     17  C   UNL     1      -0.849   1.974  24.340  0.00  0.00    +0.202 A 
BRANCH  17  19
ATOM     19  C   UNL     1       0.345   1.411  23.778  0.00  0.00    +0.023 A 
ATOM     24  C   UNL     1       0.305   0.157  23.167  0.00  0.00    +0.015 A 
ATOM     25  C   UNL     1       1.545   2.117  23.844  0.00  0.00    +0.015 A 
ATOM     26  C   UNL     1       1.467  -0.389  22.622  0.00  0.00    +0.046 A 
ATOM     27  C   UNL     1       2.707   1.570  23.299  0.00  0.00    +0.046 A 
ATOM     28  C   UNL     1       2.668   0.317  22.689  0.00  0.00    +0.120 A 
BRANCH  28   4
ATOM      4  O   UNL     1       3.802  -0.217  22.157  0.00  0.00    -0.495 OA
ATOM     29  C   UNL     1       5.028   0.062  22.832  0.00  0.00    +0.277 C 
ENDBRANCH  28   4
ENDBRANCH  17  19
ENDBRANCH   8  13
BRANCH  10   1
ATOM      1  O   UNL     1      -6.625   5.326  25.647  0.00  0.00    -0.390 OA
ATOM     30  H   UNL     1      -7.149   5.111  24.856  0.00  0.00    +0.210 HD
ENDBRANCH  10   1
BRANCH   5  12
ATOM     12  C   UNL     1      -5.500   0.776  24.874  0.00  0.00    +0.159 C 
BRANCH  12  14
ATOM      3  O   UNL     1      -3.362   0.029  25.764  0.00  0.00    -0.458 OA
ATOM     14  C   UNL     1      -4.320  -0.158  24.819  0.00  0.00    +0.120 A 
ATOM     15  C   UNL     1      -3.988  -1.202  23.988  0.00  0.00    +0.054 A 
ATOM     16  C   UNL     1      -2.737  -1.697  24.445  0.00  0.00    +0.020 A 
ATOM     18  C   UNL     1      -2.396  -0.906  25.539  0.00  0.00    +0.135 A 
ATOM     20  C   UNL     1      -1.858  -2.723  24.059  0.00  0.00    +0.011 A 
ATOM     21  C   UNL     1      -1.230  -1.065  26.284  0.00  0.00    +0.047 A 
ATOM     22  C   UNL     1      -0.677  -2.907  24.789  0.00  0.00    +0.001 A 
ATOM     23  C   UNL     1      -0.370  -2.091  25.881  0.00  0.00    +0.004 A 
ENDBRANCH  12  14
ENDBRANCH   5  12
TORSDOF 6
ENDMDL
MODEL 2
REMARK VINA RESULT:      -0.9     14.034     15.730
REMARK  Name = 26744178
REMARK  7 active torsions:
REMARK  status: ('A' for Active; 'I' for Inactive)
REMARK    1  A    between atoms: O_1  and  C_10
REMARK    2  A    between atoms: O_4  and  C_28
REMARK    3  A    between atoms: O_4  and  C_29
REMARK    4  A    between atoms: N_5  and  C_12
REMARK    5  A    between atoms: C_8  and  C_13
REMARK    6  A    between atoms: C_12  and  C_14
REMARK    7  A    between atoms: C_17  and  C_19
REMARK                            x       y       z     vdW  Elec       q    Type
REMARK                         _______ _______ _______ _____ _____    ______ ____
ROOT
ATOM      5  N   UNL     1      -4.800 -10.176  13.464  0.00  0.00    -0.282 NA
ATOM      8  C   UNL     1      -4.355 -10.675  12.147  0.00  0.00    +0.149 C 
ATOM      9  C   UNL     1      -5.594 -10.552  11.241  0.00  0.00    +0.061 C 
ATOM     10  C   UNL     1      -6.696 -10.018  12.149  0.00  0.00    +0.130 C 
ATOM     11  C   UNL     1      -6.238 -10.424  13.537  0.00  0.00    +0.117 C 
ENDROOT
BRANCH   8  13
ATOM      2  O   UNL     1      -3.189  -9.596  10.290  0.00  0.00    -0.336 OA
ATOM      6  N   UNL     1      -2.080  -9.520  12.234  0.00  0.00    -0.190 NA
ATOM      7  N   UNL     1      -1.995  -8.912  10.030  0.00  0.00    -0.056 NA
ATOM     13  C   UNL     1      -3.160  -9.918  11.609  0.00  0.00    +0.245 A 
ATOM     17  C   UNL     1      -1.396  -8.907  11.225  0.00  0.00    +0.202 A 
BRANCH  17  19
ATOM     19  C   UNL     1      -0.115  -8.299  11.443  0.00  0.00    +0.023 A 
ATOM     24  C   UNL     1       1.003  -8.754  10.742  0.00  0.00    +0.015 A 
ATOM     25  C   UNL     1       0.013  -7.256  12.359  0.00  0.00    +0.015 A 
ATOM     26  C   UNL     1       2.248  -8.162  10.957  0.00  0.00    +0.046 A 
ATOM     27  C   UNL     1       1.259  -6.665  12.574  0.00  0.00    +0.046 A 
ATOM     28  C   UNL     1       2.376  -7.119  11.873  0.00  0.00    +0.120 A 
BRANCH  28   4
ATOM      4  O   UNL     1       3.590  -6.542  12.083  0.00  0.00    -0.495 OA
ATOM     29  C   UNL     1       4.705  -7.418  12.250  0.00  0.00    +0.277 C 
ENDBRANCH  28   4
ENDBRANCH  17  19
ENDBRANCH   8  13
BRANCH  10   1
ATOM      1  O   UNL     1      -7.944 -10.595  11.818  0.00  0.00    -0.390 OA
ATOM     30  H   UNL     1      -8.603  -9.881  11.807  0.00  0.00    +0.210 HD
ENDBRANCH  10   1
BRANCH   5  12
ATOM     12  C   UNL     1      -4.082 -10.780  14.579  0.00  0.00    +0.159 C 
BRANCH  12  14
ATOM      3  O   UNL     1      -6.239 -10.754  15.704  0.00  0.00    -0.458 OA
ATOM     14  C   UNL     1      -4.888 -10.747  15.850  0.00  0.00    +0.120 A 
ATOM     15  C   UNL     1      -4.542 -10.710  17.181  0.00  0.00    +0.054 A 
ATOM     16  C   UNL     1      -5.759 -10.691  17.911  0.00  0.00    +0.020 A 
ATOM     18  C   UNL     1      -6.772 -10.720  16.957  0.00  0.00    +0.135 A 
ATOM     20  C   UNL     1      -6.118 -10.654  19.270  0.00  0.00    +0.011 A 
ATOM     21  C   UNL     1      -8.132 -10.715  17.262  0.00  0.00    +0.047 A 
ATOM     22  C   UNL     1      -7.478 -10.647  19.607  0.00  0.00    +0.001 A 
ATOM     23  C   UNL     1      -8.465 -10.677  18.619  0.00  0.00    +0.004 A 
ENDBRANCH  12  14
ENDBRANCH   5  12
TORSDOF 6
ENDMDL
MODEL 3
REMARK VINA RESULT:       0.7     14.092     15.850
REMARK  Name = 26744178
REMARK  7 active torsions:
REMARK  status: ('A' for Active; 'I' for Inactive)
REMARK    1  A    between atoms: O_1  and  C_10
REMARK    2  A    between atoms: O_4  and  C_28
REMARK    3  A    between atoms: O_4  and  C_29
REMARK    4  A    between atoms: N_5  and  C_12
REMARK    5  A    between atoms: C_8  and  C_13
REMARK    6  A    between atoms: C_12  and  C_14
REMARK    7  A    between atoms: C_17  and  C_19
REMARK                            x       y       z     vdW  Elec       q    Type
REMARK                         _______ _______ _______ _____ _____    ______ ____
ROOT
ATOM      5  N   UNL     1      -5.925  -9.887  13.493  0.00  0.00    -0.282 NA
ATOM      8  C   UNL     1      -5.507 -10.666  12.309  0.00  0.00    +0.149 C 
ATOM      9  C   UNL     1      -6.648 -10.480  11.292  0.00  0.00    +0.061 C 
ATOM     10  C   UNL     1      -7.681  -9.620  12.011  0.00  0.00    +0.130 C 
ATOM     11  C   UNL     1      -7.386  -9.865  13.479  0.00  0.00    +0.117 C 
ENDROOT
BRANCH   8  13
ATOM      2  O   UNL     1      -3.939 -10.456  10.447  0.00  0.00    -0.336 OA
ATOM      6  N   UNL     1      -3.164  -9.655  12.390  0.00  0.00    -0.190 NA
ATOM      7  N   UNL     1      -2.650  -9.975  10.184  0.00  0.00    -0.056 NA
ATOM     13  C   UNL     1      -4.163 -10.229  11.767  0.00  0.00    +0.245 A 
ATOM     17  C   UNL     1      -2.259  -9.519  11.377  0.00  0.00    +0.202 A 
BRANCH  17  19
ATOM     19  C   UNL     1      -0.972  -8.921  11.592  0.00  0.00    +0.023 A 
ATOM     24  C   UNL     1      -0.691  -8.284  12.801  0.00  0.00    +0.015 A 
ATOM     25  C   UNL     1      -0.004  -8.976  10.591  0.00  0.00    +0.015 A 
ATOM     26  C   UNL     1       0.559  -7.703  13.009  0.00  0.00    +0.046 A 
ATOM     27  C   UNL     1       1.247  -8.394  10.798  0.00  0.00    +0.046 A 
ATOM     28  C   UNL     1       1.528  -7.757  12.007  0.00  0.00    +0.120 A 
BRANCH  28   4
ATOM      4  O   UNL     1       2.749  -7.189  12.208  0.00  0.00    -0.495 OA
ATOM     29  C   UNL     1       2.862  -5.789  11.959  0.00  0.00    +0.277 C 
ENDBRANCH  28   4
ENDBRANCH  17  19
ENDBRANCH   8  13
BRANCH  10   1
ATOM      1  O   UNL     1      -8.993 -10.017  11.666  0.00  0.00    -0.390 OA
ATOM     30  H   UNL     1      -8.987 -10.259  10.724  0.00  0.00    +0.210 HD
ENDBRANCH  10   1
BRANCH   5  12
ATOM     12  C   UNL     1      -5.396 -10.416  14.744  0.00  0.00    +0.159 C 
BRANCH  12  14
ATOM      3  O   UNL     1      -5.995 -10.619  17.093  0.00  0.00    -0.458 OA
ATOM     14  C   UNL     1      -6.447 -10.465  15.820  0.00  0.00    +0.120 A 
ATOM     15  C   UNL     1      -7.820 -10.384  15.796  0.00  0.00    +0.054 A 
ATOM     16  C   UNL     1      -8.252 -10.497  17.145  0.00  0.00    +0.020 A 
ATOM     18  C   UNL     1      -7.092 -10.638  17.902  0.00  0.00    +0.135 A 
ATOM     20  C   UNL     1      -9.490 -10.494  17.809  0.00  0.00    +0.011 A 
ATOM     21  C   UNL     1      -7.077 -10.778  19.288  0.00  0.00    +0.047 A 
ATOM     22  C   UNL     1      -9.507 -10.634  19.202  0.00  0.00    +0.001 A 
ATOM     23  C   UNL     1      -8.321 -10.774  19.927  0.00  0.00    +0.004 A 
ENDBRANCH  12  14
ENDBRANCH   5  12
TORSDOF 6
ENDMDL
MODEL 4
REMARK VINA RESULT:       1.2      1.485      2.025
REMARK  Name = 26744178
REMARK  7 active torsions:
REMARK  status: ('A' for Active; 'I' for Inactive)
REMARK    1  A    between atoms: O_1  and  C_10
REMARK    2  A    between atoms: O_4  and  C_28
REMARK    3  A    between atoms: O_4  and  C_29
REMARK    4  A    between atoms: N_5  and  C_12
REMARK    5  A    between atoms: C_8  and  C_13
REMARK    6  A    between atoms: C_12  and  C_14
REMARK    7  A    between atoms: C_17  and  C_19
REMARK                            x       y       z     vdW  Elec       q    Type
REMARK                         _______ _______ _______ _____ _____    ______ ____
ROOT
ATOM      5  N   UNL     1      -3.836   2.835  25.653  0.00  0.00    -0.282 NA
ATOM      8  C   UNL     1      -3.231   3.437  24.447  0.00  0.00    +0.149 C 
ATOM      9  C   UNL     1      -2.649   4.779  24.927  0.00  0.00    +0.061 C 
ATOM     10  C   UNL     1      -3.016   4.863  26.404  0.00  0.00    +0.130 C 
ATOM     11  C   UNL     1      -4.218   3.945  26.523  0.00  0.00    +0.117 C 
ENDROOT
BRANCH   8  13
ATOM      2  O   UNL     1      -2.573   1.870  22.691  0.00  0.00    -0.336 OA
ATOM      6  N   UNL     1      -0.954   2.314  24.175  0.00  0.00    -0.190 NA
ATOM      7  N   UNL     1      -1.459   1.121  22.289  0.00  0.00    -0.056 NA
ATOM     13  C   UNL     1      -2.191   2.543  23.808  0.00  0.00    +0.245 A 
ATOM     17  C   UNL     1      -0.547   1.436  23.213  0.00  0.00    +0.202 A 
BRANCH  17  19
ATOM     19  C   UNL     1       0.781   0.892  23.203  0.00  0.00    +0.023 A 
ATOM     24  C   UNL     1       1.885   1.745  23.204  0.00  0.00    +0.015 A 
ATOM     25  C   UNL     1       0.967  -0.490  23.191  0.00  0.00    +0.015 A 
ATOM     26  C   UNL     1       3.175   1.215  23.194  0.00  0.00    +0.046 A 
ATOM     27  C   UNL     1       2.257  -1.019  23.180  0.00  0.00    +0.046 A 
ATOM     28  C   UNL     1       3.361  -0.167  23.181  0.00  0.00    +0.120 A 
BRANCH  28   4
ATOM      4  O   UNL     1       4.620  -0.685  23.170  0.00  0.00    -0.495 OA
ATOM     29  C   UNL     1       5.672   0.159  23.635  0.00  0.00    +0.277 C 
ENDBRANCH  28   4
ENDBRANCH  17  19
ENDBRANCH   8  13
BRANCH  10   1
ATOM      1  O   UNL     1      -3.333   6.192  26.768  0.00  0.00    -0.390 OA
ATOM     30  H   UNL     1      -2.896   6.782  26.130  0.00  0.00    +0.210 HD
ENDBRANCH  10   1
BRANCH   5  12
ATOM     12  C   UNL     1      -4.962   1.960  25.354  0.00  0.00    +0.159 C 
BRANCH  12  14
ATOM      3  O   UNL     1      -3.254   0.227  25.346  0.00  0.00    -0.458 OA
ATOM     14  C   UNL     1      -4.510   0.578  24.964  0.00  0.00    +0.120 A 
ATOM     15  C   UNL     1      -5.116  -0.450  24.279  0.00  0.00    +0.054 A 
ATOM     16  C   UNL     1      -4.172  -1.511  24.231  0.00  0.00    +0.020 A 
ATOM     18  C   UNL     1      -3.046  -1.044  24.901  0.00  0.00    +0.135 A 
ATOM     20  C   UNL     1      -4.146  -2.810  23.697  0.00  0.00    +0.011 A 
ATOM     21  C   UNL     1      -1.880  -1.787  25.081  0.00  0.00    +0.047 A 
ATOM     22  C   UNL     1      -2.987  -3.581  23.861  0.00  0.00    +0.001 A 
ATOM     23  C   UNL     1      -1.876  -3.077  24.541  0.00  0.00    +0.004 A 
ENDBRANCH  12  14
ENDBRANCH   5  12
TORSDOF 6
ENDMDL
MODEL 5
REMARK VINA RESULT:       1.4      2.169      4.867
REMARK  Name = 26744178
REMARK  7 active torsions:
REMARK  status: ('A' for Active; 'I' for Inactive)
REMARK    1  A    between atoms: O_1  and  C_10
REMARK    2  A    between atoms: O_4  and  C_28
REMARK    3  A    between atoms: O_4  and  C_29
REMARK    4  A    between atoms: N_5  and  C_12
REMARK    5  A    between atoms: C_8  and  C_13
REMARK    6  A    between atoms: C_12  and  C_14
REMARK    7  A    between atoms: C_17  and  C_19
REMARK                            x       y       z     vdW  Elec       q    Type
REMARK                         _______ _______ _______ _____ _____    ______ ____
ROOT
ATOM      5  N   UNL     1      -3.368  -0.812  24.617  0.00  0.00    -0.282 NA
ATOM      8  C   UNL     1      -2.154  -1.652  24.655  0.00  0.00    +0.149 C 
ATOM      9  C   UNL     1      -2.523  -2.912  23.849  0.00  0.00    +0.061 C 
ATOM     10  C   UNL     1      -3.976  -2.707  23.438  0.00  0.00    +0.130 C 
ATOM     11  C   UNL     1      -4.500  -1.725  24.468  0.00  0.00    +0.117 C 
ENDROOT
BRANCH   8  13
ATOM      2  O   UNL     1      -1.167   0.146  23.327  0.00  0.00    -0.336 OA
ATOM      6  N   UNL     1       0.333  -1.223  24.270  0.00  0.00    -0.190 NA
ATOM      7  N   UNL     1       0.092   0.625  22.944  0.00  0.00    -0.056 NA
ATOM     13  C   UNL     1      -0.935  -0.942  24.106  0.00  0.00    +0.245 A 
ATOM     17  C   UNL     1       0.924  -0.234  23.539  0.00  0.00    +0.202 A 
BRANCH  17  19
ATOM     19  C   UNL     1       2.351  -0.132  23.424  0.00  0.00    +0.023 A 
ATOM     24  C   UNL     1       3.161  -1.196  23.822  0.00  0.00    +0.015 A 
ATOM     25  C   UNL     1       2.927   1.031  22.915  0.00  0.00    +0.015 A 
ATOM     26  C   UNL     1       4.548  -1.096  23.711  0.00  0.00    +0.046 A 
ATOM     27  C   UNL     1       4.314   1.131  22.804  0.00  0.00    +0.046 A 
ATOM     28  C   UNL     1       5.124   0.069  23.203  0.00  0.00    +0.120 A 
BRANCH  28   4
ATOM      4  O   UNL     1       6.477   0.167  23.094  0.00  0.00    -0.495 OA
ATOM     29  C   UNL     1       7.184  -1.008  22.701  0.00  0.00    +0.277 C 
ENDBRANCH  28   4
ENDBRANCH  17  19
ENDBRANCH   8  13
BRANCH  10   1
ATOM      1  O   UNL     1      -4.684  -3.930  23.471  0.00  0.00    -0.390 OA
ATOM     30  H   UNL     1      -5.624  -3.728  23.324  0.00  0.00    +0.210 HD
ENDBRANCH  10   1
BRANCH   5  12
ATOM     12  C   UNL     1      -3.507   0.049  25.784  0.00  0.00    +0.159 C 
BRANCH  12  14
ATOM      3  O   UNL     1      -1.793   1.764  25.583  0.00  0.00    -0.458 OA
ATOM     14  C   UNL     1      -3.116   1.471  25.482  0.00  0.00    +0.120 A 
ATOM     15  C   UNL     1      -3.835   2.584  25.111  0.00  0.00    +0.054 A 
ATOM     16  C   UNL     1      -2.896   3.640  24.973  0.00  0.00    +0.020 A 
ATOM     18  C   UNL     1      -1.656   3.084  25.273  0.00  0.00    +0.135 A 
ATOM     20  C   UNL     1      -2.956   5.001  24.627  0.00  0.00    +0.011 A 
ATOM     21  C   UNL     1      -0.457   3.794  25.254  0.00  0.00    +0.047 A 
ATOM     22  C   UNL     1      -1.766   5.741  24.600  0.00  0.00    +0.001 A 
ATOM     23  C   UNL     1      -0.540   5.146  24.908  0.00  0.00    +0.004 A 
ENDBRANCH  12  14
ENDBRANCH   5  12
TORSDOF 6
ENDMDL
