MODEL 1
REMARK VINA RESULT:      -0.9      0.000      0.000
REMARK  Name = 51137546
REMARK  8 active torsions:
REMARK  status: ('A' for Active; 'I' for Inactive)
REMARK    1  A    between atoms: N_2  and  C_11
REMARK    2  A    between atoms: N_3  and  C_20
REMARK    3  A    between atoms: N_6  and  C_26
REMARK    4  A    between atoms: N_6  and  C_29
REMARK    5  A    between atoms: N_6  and  C_30
REMARK    6  A    between atoms: C_7  and  C_12
REMARK    7  A    between atoms: C_11  and  C_13
REMARK    8  A    between atoms: C_18  and  C_23
REMARK                            x       y       z     vdW  Elec       q    Type
REMARK                         _______ _______ _______ _____ _____    ______ ____
ROOT
ATOM      2  N   UNL     1      -7.535  -9.497  11.627  0.00  0.00    -0.297 NA
ATOM      7  C   UNL     1      -5.342  -9.052  10.923  0.00  0.00    +0.092 C 
ATOM      8  C   UNL     1      -6.181  -9.368  12.170  0.00  0.00    +0.097 C 
ATOM      9  C   UNL     1      -6.150  -9.639   9.751  0.00  0.00    +0.029 C 
ATOM     10  C   UNL     1      -7.376 -10.272  10.396  0.00  0.00    +0.085 C 
ENDROOT
BRANCH   7  12
ATOM      1  O   UNL     1      -2.951  -8.618  11.216  0.00  0.00    -0.420 OA
ATOM      4  N   UNL     1      -3.460 -10.781  10.964  0.00  0.00    -0.112 NA
ATOM      5  N   UNL     1      -2.090 -10.680  11.119  0.00  0.00    -0.107 NA
ATOM     12  C   UNL     1      -3.920  -9.554  11.028  0.00  0.00    +0.222 A 
ATOM     18  C   UNL     1      -1.839  -9.401  11.264  0.00  0.00    +0.248 A 
BRANCH  18  23
ATOM     23  C   UNL     1      -0.595  -8.712  11.459  0.00  0.00    +0.039 A 
ATOM     24  C   UNL     1      -0.501  -7.702  12.417  0.00  0.00    +0.015 A 
ATOM     25  C   UNL     1       0.518  -9.052  10.692  0.00  0.00    +0.015 A 
ATOM     26  C   UNL     1       1.823  -7.373  11.840  0.00  0.00    +0.029 A 
ATOM     27  C   UNL     1       0.708  -7.033  12.607  0.00  0.00    +0.024 A 
ATOM     28  C   UNL     1       1.727  -8.383  10.882  0.00  0.00    +0.024 A 
BRANCH  26   6
ATOM      6  N   UNL     1       3.043  -6.695  12.031  0.00  0.00    -0.336 N 
ATOM     29  C   UNL     1       3.064  -5.258  12.219  0.00  0.00    +0.129 C 
ATOM     30  C   UNL     1       4.295  -7.427  12.050  0.00  0.00    +0.129 C 
ENDBRANCH  26   6
ENDBRANCH  18  23
ENDBRANCH   7  12
BRANCH   2  11
ATOM     11  C   UNL     1      -8.451 -10.129  12.565  0.00  0.00    +0.121 C 
BRANCH  11  13
ATOM      3  N   UNL     1      -6.800  -9.923  15.846  0.00  0.00    -0.349 N 
ATOM     13  C   UNL     1      -8.021  -9.923  13.993  0.00  0.00    -0.008 A 
ATOM     14  C   UNL     1      -8.793  -9.336  15.034  0.00  0.00    +0.004 A 
ATOM     15  C   UNL     1      -6.801 -10.274  14.523  0.00  0.00    +0.091 A 
ATOM     16  C   UNL     1      -8.003  -9.348  16.186  0.00  0.00    +0.049 A 
ATOM     17  C   UNL     1     -10.091  -8.794  15.107  0.00  0.00    +0.010 A 
ATOM     19  C   UNL     1      -8.450  -8.843  17.413  0.00  0.00    +0.026 A 
ATOM     20  C   UNL     1      -5.685 -10.133  16.744  0.00  0.00    +0.149 C 
ATOM     21  C   UNL     1     -10.551  -8.284  16.327  0.00  0.00    +0.001 A 
ATOM     22  C   UNL     1      -9.741  -8.310  17.461  0.00  0.00    +0.002 A 
ENDBRANCH  11  13
ENDBRANCH   2  11
TORSDOF 5
ENDMDL
MODEL 2
REMARK VINA RESULT:       0.4      0.753      2.055
REMARK  Name = 51137546
REMARK  8 active torsions:
REMARK  status: ('A' for Active; 'I' for Inactive)
REMARK    1  A    between atoms: N_2  and  C_11
REMARK    2  A    between atoms: N_3  and  C_20
REMARK    3  A    between atoms: N_6  and  C_26
REMARK    4  A    between atoms: N_6  and  C_29
REMARK    5  A    between atoms: N_6  and  C_30
REMARK    6  A    between atoms: C_7  and  C_12
REMARK    7  A    between atoms: C_11  and  C_13
REMARK    8  A    between atoms: C_18  and  C_23
REMARK                            x       y       z     vdW  Elec       q    Type
REMARK                         _______ _______ _______ _____ _____    ______ ____
ROOT
ATOM      2  N   UNL     1      -7.550  -9.651  11.590  0.00  0.00    -0.297 NA
ATOM      7  C   UNL     1      -5.365  -9.085  10.954  0.00  0.00    +0.092 C 
ATOM      8  C   UNL     1      -6.200  -9.561  12.151  0.00  0.00    +0.097 C 
ATOM      9  C   UNL     1      -6.158  -9.544   9.718  0.00  0.00    +0.029 C 
ATOM     10  C   UNL     1      -7.373 -10.273  10.277  0.00  0.00    +0.085 C 
ENDROOT
BRANCH   7  12
ATOM      1  O   UNL     1      -2.976  -8.630  11.239  0.00  0.00    -0.420 OA
ATOM      4  N   UNL     1      -3.456 -10.781  10.857  0.00  0.00    -0.112 NA
ATOM      5  N   UNL     1      -2.085 -10.668  10.997  0.00  0.00    -0.107 NA
ATOM     12  C   UNL     1      -3.934  -9.568  11.005  0.00  0.00    +0.222 A 
ATOM     18  C   UNL     1      -1.851  -9.396  11.219  0.00  0.00    +0.248 A 
BRANCH  18  23
ATOM     23  C   UNL     1      -0.616  -8.701  11.439  0.00  0.00    +0.039 A 
ATOM     24  C   UNL     1       0.489  -8.969  10.630  0.00  0.00    +0.015 A 
ATOM     25  C   UNL     1      -0.519  -7.758  12.462  0.00  0.00    +0.015 A 
ATOM     26  C   UNL     1       1.787  -7.349  11.867  0.00  0.00    +0.029 A 
ATOM     27  C   UNL     1       1.690  -8.293  10.843  0.00  0.00    +0.024 A 
ATOM     28  C   UNL     1       0.682  -7.082  12.676  0.00  0.00    +0.024 A 
BRANCH  26   6
ATOM      6  N   UNL     1       3.002  -6.668  12.083  0.00  0.00    -0.336 N 
ATOM     29  C   UNL     1       3.026  -5.223  12.189  0.00  0.00    +0.129 C 
ATOM     30  C   UNL     1       4.245  -7.405  12.212  0.00  0.00    +0.129 C 
ENDBRANCH  26   6
ENDBRANCH  18  23
ENDBRANCH   7  12
BRANCH   2  11
ATOM     11  C   UNL     1      -8.456 -10.406  12.443  0.00  0.00    +0.121 C 
BRANCH  11  13
ATOM      3  N   UNL     1      -9.399  -8.518  15.457  0.00  0.00    -0.349 N 
ATOM     13  C   UNL     1      -8.617  -9.765  13.796  0.00  0.00    -0.008 A 
ATOM     14  C   UNL     1      -7.796  -9.981  14.938  0.00  0.00    +0.004 A 
ATOM     15  C   UNL     1      -9.593  -8.861  14.146  0.00  0.00    +0.091 A 
ATOM     16  C   UNL     1      -8.309  -9.186  15.967  0.00  0.00    +0.049 A 
ATOM     17  C   UNL     1      -6.664 -10.778  15.197  0.00  0.00    +0.010 A 
ATOM     19  C   UNL     1      -7.742  -9.149  17.246  0.00  0.00    +0.026 A 
ATOM     20  C   UNL     1     -10.230  -7.585  16.187  0.00  0.00    +0.149 C 
ATOM     21  C   UNL     1      -6.087 -10.751  16.473  0.00  0.00    +0.001 A 
ATOM     22  C   UNL     1      -6.620  -9.948  17.479  0.00  0.00    +0.002 A 
ENDBRANCH  11  13
ENDBRANCH   2  11
TORSDOF 5
ENDMDL
