MODEL 1
REMARK VINA RESULT:      -0.3      0.000      0.000
REMARK  Name = 45783910
REMARK  10 active torsions:
REMARK  status: ('A' for Active; 'I' for Inactive)
REMARK    1  A    between atoms: N_3  and  C_13
REMARK    2  A    between atoms: C_8  and  C_12
REMARK    3  A    between atoms: C_9  and  C_13
REMARK    4  A    between atoms: C_11  and  C_16
REMARK    5  A    between atoms: C_12  and  C_17
REMARK    6  A    between atoms: C_12  and  C_18
REMARK    7  A    between atoms: C_15  and  C_21
REMARK    8  A    between atoms: C_16  and  C_24
REMARK    9  A    between atoms: C_25  and  C_27
REMARK   10  A    between atoms: C_26  and  C_28
REMARK                            x       y       z     vdW  Elec       q    Type
REMARK                         _______ _______ _______ _____ _____    ______ ____
ROOT
ATOM      8  C   UNL     1      -1.744   3.639  23.689  0.00  0.00    +0.000 C 
ATOM      9  C   UNL     1      -1.062   2.805  24.797  0.00  0.00    +0.029 C 
ATOM     10  C   UNL     1      -3.266   3.659  23.888  0.00  0.00    +0.012 C 
ATOM     11  C   UNL     1      -3.693   4.198  25.271  0.00  0.00    +0.024 C 
ATOM     14  C   UNL     1      -1.622   3.095  26.167  0.00  0.00    -0.023 C 
ATOM     15  C   UNL     1      -2.788   3.727  26.400  0.00  0.00    -0.073 C 
ATOM     21  C   UNL     1      -3.211   4.043  27.808  0.00  0.00    +0.039 C 
ENDROOT
BRANCH   8  12
ATOM     12  C   UNL     1      -1.173   5.062  23.627  0.00  0.00    -0.013 C 
ATOM     17  C   UNL     1      -1.252   5.726  24.998  0.00  0.00    +0.007 C 
ATOM     18  C   UNL     1       0.265   5.037  23.120  0.00  0.00    +0.007 C 
ENDBRANCH   8  12
BRANCH   9  13
ATOM     13  C   UNL     1      -1.166   1.302  24.520  0.00  0.00    +0.092 C 
BRANCH  13   3
ATOM      2  O   UNL     1       4.209  -1.781  23.561  0.00  0.00    -0.276 OA
ATOM      3  N   UNL     1      -0.032   0.846  23.716  0.00  0.00    -0.299 NA
ATOM      4  N   UNL     1       2.639  -0.093  23.280  0.00  0.00    -0.299 N 
ATOM     19  C   UNL     1       1.111   1.757  23.873  0.00  0.00    +0.103 C 
ATOM     20  C   UNL     1       0.347  -0.525  24.089  0.00  0.00    +0.103 C 
ATOM     22  C   UNL     1       2.293   1.306  23.012  0.00  0.00    +0.123 C 
ATOM     23  C   UNL     1       1.508  -1.018  23.227  0.00  0.00    +0.123 C 
ATOM     25  C   UNL     1       3.933  -0.585  23.449  0.00  0.00    +0.213 C 
ATOM     27  C   UNL     1       5.042   0.437  23.497  0.00  0.00    +0.109 C 
ENDBRANCH  13   3
ENDBRANCH   9  13
BRANCH  11  16
ATOM     16  C   UNL     1      -5.168   3.841  25.501  0.00  0.00    +0.105 C 
BRANCH  16  24
ATOM      1  O   UNL     1      -4.395   1.542  25.228  0.00  0.00    -0.420 OA
ATOM      5  N   UNL     1      -6.568   1.836  24.789  0.00  0.00    -0.112 NA
ATOM      6  N   UNL     1      -6.271   0.501  24.597  0.00  0.00    -0.107 NA
ATOM     24  C   UNL     1      -5.444   2.406  25.158  0.00  0.00    +0.218 A 
ATOM     26  C   UNL     1      -4.992   0.375  24.863  0.00  0.00    +0.248 A 
BRANCH  26  28
ATOM      7  N   UNL     1      -2.491  -3.035  24.769  0.00  0.00    -0.263 NA
ATOM     28  C   UNL     1      -4.143  -0.781  24.831  0.00  0.00    +0.041 A 
ATOM     29  C   UNL     1      -3.117  -0.919  25.758  0.00  0.00    +0.033 A 
ATOM     30  C   UNL     1      -4.345  -1.768  23.873  0.00  0.00    +0.033 A 
ATOM     31  C   UNL     1      -2.326  -2.054  25.686  0.00  0.00    +0.111 A 
ATOM     32  C   UNL     1      -3.498  -2.866  23.885  0.00  0.00    +0.111 A 
ENDBRANCH  26  28
ENDBRANCH  16  24
ENDBRANCH  11  16
TORSDOF 6
ENDMDL
MODEL 2
REMARK VINA RESULT:       2.3      1.531      4.826
REMARK  Name = 45783910
REMARK  10 active torsions:
REMARK  status: ('A' for Active; 'I' for Inactive)
REMARK    1  A    between atoms: N_3  and  C_13
REMARK    2  A    between atoms: C_8  and  C_12
REMARK    3  A    between atoms: C_9  and  C_13
REMARK    4  A    between atoms: C_11  and  C_16
REMARK    5  A    between atoms: C_12  and  C_17
REMARK    6  A    between atoms: C_12  and  C_18
REMARK    7  A    between atoms: C_15  and  C_21
REMARK    8  A    between atoms: C_16  and  C_24
REMARK    9  A    between atoms: C_25  and  C_27
REMARK   10  A    between atoms: C_26  and  C_28
REMARK                            x       y       z     vdW  Elec       q    Type
REMARK                         _______ _______ _______ _____ _____    ______ ____
ROOT
ATOM      8  C   UNL     1      -1.364  -0.162  25.647  0.00  0.00    +0.000 C 
ATOM      9  C   UNL     1      -1.078  -0.599  24.192  0.00  0.00    +0.029 C 
ATOM     10  C   UNL     1      -2.789   0.393  25.774  0.00  0.00    +0.012 C 
ATOM     11  C   UNL     1      -3.876  -0.603  25.315  0.00  0.00    +0.024 C 
ATOM     14  C   UNL     1      -2.225  -1.365  23.582  0.00  0.00    -0.023 C 
ATOM     15  C   UNL     1      -3.478  -1.389  24.075  0.00  0.00    -0.073 C 
ATOM     21  C   UNL     1      -4.527  -2.257  23.436  0.00  0.00    +0.039 C 
ENDROOT
BRANCH   8  12
ATOM     12  C   UNL     1      -1.128  -1.314  26.634  0.00  0.00    -0.013 C 
ATOM     17  C   UNL     1      -2.453  -1.798  27.214  0.00  0.00    +0.007 C 
ATOM     18  C   UNL     1      -0.388  -2.458  25.948  0.00  0.00    +0.007 C 
ENDBRANCH   8  12
BRANCH   9  13
ATOM     13  C   UNL     1      -0.741   0.598  23.298  0.00  0.00    +0.092 C 
BRANCH  13   3
ATOM      2  O   UNL     1       5.187  -1.434  23.495  0.00  0.00    -0.276 OA
ATOM      3  N   UNL     1       0.643   0.521  22.831  0.00  0.00    -0.299 NA
ATOM      4  N   UNL     1       3.459   0.066  23.098  0.00  0.00    -0.299 N 
ATOM     19  C   UNL     1       1.486   1.484  23.554  0.00  0.00    +0.103 C 
ATOM     20  C   UNL     1       1.166  -0.844  22.991  0.00  0.00    +0.103 C 
ATOM     22  C   UNL     1       2.930   1.433  23.051  0.00  0.00    +0.123 C 
ATOM     23  C   UNL     1       2.600  -0.938  22.471  0.00  0.00    +0.123 C 
ATOM     25  C   UNL     1       4.721  -0.295  23.568  0.00  0.00    +0.213 C 
ATOM     27  C   UNL     1       5.541   0.799  24.206  0.00  0.00    +0.109 C 
ENDBRANCH  13   3
ENDBRANCH   9  13
BRANCH  11  16
ATOM     16  C   UNL     1      -5.196   0.159  25.138  0.00  0.00    +0.105 C 
BRANCH  16  24
ATOM      1  O   UNL     1      -3.708   2.091  25.035  0.00  0.00    -0.420 OA
ATOM      5  N   UNL     1      -5.856   2.607  25.382  0.00  0.00    -0.112 NA
ATOM      6  N   UNL     1      -5.134   3.785  25.346  0.00  0.00    -0.107 NA
ATOM     24  C   UNL     1      -4.983   1.645  25.195  0.00  0.00    +0.218 A 
ATOM     26  C   UNL     1      -3.886   3.436  25.141  0.00  0.00    +0.248 A 
BRANCH  26  28
ATOM      7  N   UNL     1      -0.399   5.800  24.765  0.00  0.00    -0.263 NA
ATOM     28  C   UNL     1      -2.703   4.238  25.015  0.00  0.00    +0.041 A 
ATOM     29  C   UNL     1      -1.464   3.631  24.843  0.00  0.00    +0.033 A 
ATOM     30  C   UNL     1      -2.792   5.624  25.062  0.00  0.00    +0.033 A 
ATOM     31  C   UNL     1      -0.352   4.449  24.724  0.00  0.00    +0.111 A 
ATOM     32  C   UNL     1      -1.620   6.354  24.933  0.00  0.00    +0.111 A 
ENDBRANCH  26  28
ENDBRANCH  16  24
ENDBRANCH  11  16
TORSDOF 6
ENDMDL
MODEL 3
REMARK VINA RESULT:       3.3      2.069      6.834
REMARK  Name = 45783910
REMARK  10 active torsions:
REMARK  status: ('A' for Active; 'I' for Inactive)
REMARK    1  A    between atoms: N_3  and  C_13
REMARK    2  A    between atoms: C_8  and  C_12
REMARK    3  A    between atoms: C_9  and  C_13
REMARK    4  A    between atoms: C_11  and  C_16
REMARK    5  A    between atoms: C_12  and  C_17
REMARK    6  A    between atoms: C_12  and  C_18
REMARK    7  A    between atoms: C_15  and  C_21
REMARK    8  A    between atoms: C_16  and  C_24
REMARK    9  A    between atoms: C_25  and  C_27
REMARK   10  A    between atoms: C_26  and  C_28
REMARK                            x       y       z     vdW  Elec       q    Type
REMARK                         _______ _______ _______ _____ _____    ______ ____
ROOT
ATOM      8  C   UNL     1      -4.289  -0.734  24.023  0.00  0.00    +0.000 C 
ATOM      9  C   UNL     1      -4.594   0.164  25.244  0.00  0.00    +0.029 C 
ATOM     10  C   UNL     1      -3.203  -0.099  23.145  0.00  0.00    +0.012 C 
ATOM     11  C   UNL     1      -1.892   0.191  23.908  0.00  0.00    +0.024 C 
ATOM     14  C   UNL     1      -3.344   0.704  25.892  0.00  0.00    -0.023 C 
ATOM     15  C   UNL     1      -2.127   0.714  25.318  0.00  0.00    -0.073 C 
ATOM     21  C   UNL     1      -0.929   1.198  26.088  0.00  0.00    +0.039 C 
ENDROOT
BRANCH   8  12
ATOM     12  C   UNL     1      -3.893  -2.152  24.457  0.00  0.00    -0.013 C 
ATOM     17  C   UNL     1      -4.613  -3.190  23.603  0.00  0.00    +0.007 C 
ATOM     18  C   UNL     1      -2.381  -2.333  24.368  0.00  0.00    +0.007 C 
ENDBRANCH   8  12
BRANCH   9  13
ATOM     13  C   UNL     1      -5.512   1.332  24.872  0.00  0.00    +0.092 C 
BRANCH  13   3
ATOM      2  O   UNL     1      -0.559   4.862  23.352  0.00  0.00    -0.276 OA
ATOM      3  N   UNL     1      -4.755   2.582  24.800  0.00  0.00    -0.299 NA
ATOM      4  N   UNL     1      -2.387   4.183  24.612  0.00  0.00    -0.299 N 
ATOM     19  C   UNL     1      -3.844   2.699  25.948  0.00  0.00    +0.103 C 
ATOM     20  C   UNL     1      -4.006   2.660  23.538  0.00  0.00    +0.103 C 
ATOM     22  C   UNL     1      -3.070   4.018  25.899  0.00  0.00    +0.123 C 
ATOM     23  C   UNL     1      -3.242   3.979  23.443  0.00  0.00    +0.123 C 
ATOM     25  C   UNL     1      -1.075   4.623  24.446  0.00  0.00    +0.213 C 
ATOM     27  C   UNL     1      -0.260   4.803  25.703  0.00  0.00    +0.109 C 
ENDBRANCH  13   3
ENDBRANCH   9  13
BRANCH  11  16
ATOM     16  C   UNL     1      -1.029   1.134  23.059  0.00  0.00    +0.105 C 
BRANCH  16  24
ATOM      1  O   UNL     1       1.331   0.569  23.315  0.00  0.00    -0.420 OA
ATOM      5  N   UNL     1       0.380  -0.280  21.477  0.00  0.00    -0.112 NA
ATOM      6  N   UNL     1       1.704  -0.676  21.495  0.00  0.00    -0.107 NA
ATOM     24  C   UNL     1       0.207   0.444  22.559  0.00  0.00    +0.218 A 
ATOM     26  C   UNL     1       2.220  -0.157  22.584  0.00  0.00    +0.248 A 
BRANCH  26  28
ATOM      7  N   UNL     1       6.145  -0.393  24.144  0.00  0.00    -0.263 NA
ATOM     28  C   UNL     1       3.551  -0.237  23.114  0.00  0.00    +0.041 A 
ATOM     29  C   UNL     1       3.996  -1.412  23.708  0.00  0.00    +0.033 A 
ATOM     30  C   UNL     1       4.401   0.860  23.033  0.00  0.00    +0.033 A 
ATOM     31  C   UNL     1       5.290  -1.439  24.203  0.00  0.00    +0.111 A 
ATOM     32  C   UNL     1       5.677   0.732  23.559  0.00  0.00    +0.111 A 
ENDBRANCH  26  28
ENDBRANCH  16  24
ENDBRANCH  11  16
TORSDOF 6
ENDMDL
MODEL 4
REMARK VINA RESULT:       3.4      1.490      4.857
REMARK  Name = 45783910
REMARK  10 active torsions:
REMARK  status: ('A' for Active; 'I' for Inactive)
REMARK    1  A    between atoms: N_3  and  C_13
REMARK    2  A    between atoms: C_8  and  C_12
REMARK    3  A    between atoms: C_9  and  C_13
REMARK    4  A    between atoms: C_11  and  C_16
REMARK    5  A    between atoms: C_12  and  C_17
REMARK    6  A    between atoms: C_12  and  C_18
REMARK    7  A    between atoms: C_15  and  C_21
REMARK    8  A    between atoms: C_16  and  C_24
REMARK    9  A    between atoms: C_25  and  C_27
REMARK   10  A    between atoms: C_26  and  C_28
REMARK                            x       y       z     vdW  Elec       q    Type
REMARK                         _______ _______ _______ _____ _____    ______ ____
ROOT
ATOM      8  C   UNL     1      -2.724  -1.196  25.292  0.00  0.00    +0.000 C 
ATOM      9  C   UNL     1      -2.371  -0.287  24.092  0.00  0.00    +0.029 C 
ATOM     10  C   UNL     1      -3.694  -0.482  26.242  0.00  0.00    +0.012 C 
ATOM     11  C   UNL     1      -4.994  -0.016  25.552  0.00  0.00    +0.024 C 
ATOM     14  C   UNL     1      -3.578   0.415  23.523  0.00  0.00    -0.023 C 
ATOM     15  C   UNL     1      -4.761   0.536  24.153  0.00  0.00    -0.073 C 
ATOM     21  C   UNL     1      -5.928   1.182  23.458  0.00  0.00    +0.039 C 
ENDROOT
BRANCH   8  12
ATOM     12  C   UNL     1      -3.295  -2.542  24.825  0.00  0.00    -0.013 C 
ATOM     17  C   UNL     1      -4.387  -2.324  23.783  0.00  0.00    +0.007 C 
ATOM     18  C   UNL     1      -2.185  -3.427  24.267  0.00  0.00    +0.007 C 
ENDBRANCH   8  12
BRANCH   9  13
ATOM     13  C   UNL     1      -1.312   0.755  24.464  0.00  0.00    +0.092 C 
BRANCH  13   3
ATOM      2  O   UNL     1       4.398  -1.536  23.254  0.00  0.00    -0.276 OA
ATOM      3  N   UNL     1      -0.106   0.577  23.656  0.00  0.00    -0.299 NA
ATOM      4  N   UNL     1       2.666   0.011  23.205  0.00  0.00    -0.299 N 
ATOM     19  C   UNL     1       0.925   1.550  24.047  0.00  0.00    +0.103 C 
ATOM     20  C   UNL     1       0.406  -0.795  23.785  0.00  0.00    +0.103 C 
ATOM     22  C   UNL     1       2.180   1.394  23.186  0.00  0.00    +0.123 C 
ATOM     23  C   UNL     1       1.645  -0.995  22.914  0.00  0.00    +0.123 C 
ATOM     25  C   UNL     1       3.998  -0.374  23.353  0.00  0.00    +0.213 C 
ATOM     27  C   UNL     1       4.987   0.725  23.657  0.00  0.00    +0.109 C 
ENDBRANCH  13   3
ENDBRANCH   9  13
BRANCH  11  16
ATOM     16  C   UNL     1      -5.709   0.981  26.474  0.00  0.00    +0.105 C 
BRANCH  16  24
ATOM      1  O   UNL     1      -3.958   2.583  25.903  0.00  0.00    -0.420 OA
ATOM      5  N   UNL     1      -5.976   3.499  26.202  0.00  0.00    -0.112 NA
ATOM      6  N   UNL     1      -5.090   4.511  25.886  0.00  0.00    -0.107 NA
ATOM     24  C   UNL     1      -5.273   2.391  26.200  0.00  0.00    +0.218 A 
ATOM     26  C   UNL     1      -3.925   3.931  25.721  0.00  0.00    +0.248 A 
BRANCH  26  28
ATOM      7  N   UNL     1      -0.155   5.572  24.728  0.00  0.00    -0.263 NA
ATOM     28  C   UNL     1      -2.647   4.487  25.383  0.00  0.00    +0.041 A 
ATOM     29  C   UNL     1      -2.541   5.827  25.028  0.00  0.00    +0.033 A 
ATOM     30  C   UNL     1      -1.509   3.689  25.412  0.00  0.00    +0.033 A 
ATOM     31  C   UNL     1      -1.283   6.316  24.712  0.00  0.00    +0.111 A 
ATOM     32  C   UNL     1      -0.297   4.274  25.078  0.00  0.00    +0.111 A 
ENDBRANCH  26  28
ENDBRANCH  16  24
ENDBRANCH  11  16
TORSDOF 6
ENDMDL
