MODEL 1
REMARK VINA RESULT:      -2.2      0.000      0.000
REMARK  Name = 75537010
REMARK  2 active torsions:
REMARK  status: ('A' for Active; 'I' for Inactive)
REMARK    1  A    between atoms: N_3  and  C_7
REMARK    2  A    between atoms: C_18  and  C_19
REMARK                            x       y       z     vdW  Elec       q    Type
REMARK                         _______ _______ _______ _____ _____    ______ ____
ROOT
ATOM      1  O   UNL     1      -5.480 -10.454   9.552  0.00  0.00    -0.252 OA
ATOM      2  O   UNL     1     -10.717 -10.084  14.162  0.00  0.00    -0.270 OA
ATOM      3  N   UNL     1      -4.356 -10.269  11.617  0.00  0.00    -0.281 N 
ATOM      4  N   UNL     1      -6.597 -10.430  11.618  0.00  0.00    -0.278 N 
ATOM      5  N   UNL     1      -8.512  -9.694  13.495  0.00  0.00    -0.294 N 
ATOM      6  C   UNL     1      -6.227 -10.453  13.024  0.00  0.00    +0.112 C 
ATOM      8  C   UNL     1      -4.736 -10.130  13.012  0.00  0.00    +0.133 C 
ATOM     11  C   UNL     1      -7.088  -9.472  13.812  0.00  0.00    +0.132 C 
ATOM     12  C   UNL     1      -5.479 -10.395  10.775  0.00  0.00    +0.305 C 
ATOM     13  C   UNL     1      -7.995 -10.545  11.237  0.00  0.00    +0.128 C 
ATOM     17  C   UNL     1      -8.845  -9.585  12.067  0.00  0.00    +0.127 C 
ATOM     18  C   UNL     1      -9.524  -9.942  14.424  0.00  0.00    +0.247 C 
ENDROOT
BRANCH   3   7
ATOM      7  C   UNL     1      -2.985 -10.151  11.183  0.00  0.00    +0.078 C 
ATOM      9  C   UNL     1      -2.754  -8.813  10.477  0.00  0.00    +0.022 C 
ATOM     10  C   UNL     1      -2.030 -10.329  12.366  0.00  0.00    +0.022 C 
ATOM     14  C   UNL     1      -1.297  -8.643  10.056  0.00  0.00    +0.002 C 
ATOM     15  C   UNL     1      -0.573 -10.157  11.944  0.00  0.00    +0.002 C 
ATOM     16  C   UNL     1      -0.346  -8.823  11.237  0.00  0.00    +0.000 C 
ENDBRANCH   3   7
BRANCH  18  19
ATOM     19  C   UNL     1      -9.150 -10.058  15.839  0.00  0.00    +0.037 A 
ATOM     20  C   UNL     1      -9.996  -9.557  16.828  0.00  0.00    +0.013 A 
ATOM     21  C   UNL     1      -7.948 -10.670  16.195  0.00  0.00    +0.013 A 
ATOM     22  C   UNL     1      -9.642  -9.669  18.173  0.00  0.00    +0.001 A 
ATOM     23  C   UNL     1      -7.593 -10.781  17.540  0.00  0.00    +0.001 A 
ATOM     24  C   UNL     1      -8.441 -10.281  18.528  0.00  0.00    +0.000 A 
ENDBRANCH  18  19
TORSDOF 2
ENDMDL
MODEL 2
REMARK VINA RESULT:       1.1     15.313     16.488
REMARK  Name = 75537010
REMARK  2 active torsions:
REMARK  status: ('A' for Active; 'I' for Inactive)
REMARK    1  A    between atoms: N_3  and  C_7
REMARK    2  A    between atoms: C_18  and  C_19
REMARK                            x       y       z     vdW  Elec       q    Type
REMARK                         _______ _______ _______ _____ _____    ______ ____
ROOT
ATOM      1  O   UNL     1       0.700  -2.429  24.616  0.00  0.00    -0.252 OA
ATOM      2  O   UNL     1      -5.574   0.431  25.742  0.00  0.00    -0.270 OA
ATOM      3  N   UNL     1       0.953  -0.244  23.766  0.00  0.00    -0.281 N 
ATOM      4  N   UNL     1      -0.977  -0.792  24.776  0.00  0.00    -0.278 N 
ATOM      5  N   UNL     1      -3.532   0.292  24.616  0.00  0.00    -0.294 N 
ATOM      6  C   UNL     1      -1.105   0.627  24.486  0.00  0.00    +0.112 C 
ATOM      8  C   UNL     1       0.112   0.930  23.617  0.00  0.00    +0.133 C 
ATOM     11  C   UNL     1      -2.450   0.910  23.825  0.00  0.00    +0.132 C 
ATOM     12  C   UNL     1       0.279  -1.297  24.415  0.00  0.00    +0.305 C 
ATOM     13  C   UNL     1      -2.050  -1.488  25.467  0.00  0.00    +0.128 C 
ATOM     17  C   UNL     1      -3.393  -1.158  24.816  0.00  0.00    +0.127 C 
ATOM     18  C   UNL     1      -4.652   0.955  25.120  0.00  0.00    +0.247 C 
ENDROOT
BRANCH   3   7
ATOM      7  C   UNL     1       2.270  -0.319  23.181  0.00  0.00    +0.078 C 
ATOM      9  C   UNL     1       2.865   1.080  23.003  0.00  0.00    +0.022 C 
ATOM     10  C   UNL     1       3.184  -1.209  24.028  0.00  0.00    +0.022 C 
ATOM     14  C   UNL     1       4.280   1.022  22.436  0.00  0.00    +0.002 C 
ATOM     15  C   UNL     1       4.600  -1.264  23.460  0.00  0.00    +0.002 C 
ATOM     16  C   UNL     1       5.189   0.132  23.281  0.00  0.00    +0.000 C 
ENDBRANCH   3   7
BRANCH  18  19
ATOM     19  C   UNL     1      -4.749   2.405  24.912  0.00  0.00    +0.037 A 
ATOM     20  C   UNL     1      -5.615   3.166  25.697  0.00  0.00    +0.013 A 
ATOM     21  C   UNL     1      -3.976   3.022  23.930  0.00  0.00    +0.013 A 
ATOM     22  C   UNL     1      -5.706   4.545  25.501  0.00  0.00    +0.001 A 
ATOM     23  C   UNL     1      -4.067   4.400  23.732  0.00  0.00    +0.001 A 
ATOM     24  C   UNL     1      -4.932   5.161  24.519  0.00  0.00    +0.000 A 
ENDBRANCH  18  19
TORSDOF 2
ENDMDL
MODEL 3
REMARK VINA RESULT:       1.6      1.584      2.178
REMARK  Name = 75537010
REMARK  2 active torsions:
REMARK  status: ('A' for Active; 'I' for Inactive)
REMARK    1  A    between atoms: N_3  and  C_7
REMARK    2  A    between atoms: C_18  and  C_19
REMARK                            x       y       z     vdW  Elec       q    Type
REMARK                         _______ _______ _______ _____ _____    ______ ____
ROOT
ATOM      1  O   UNL     1      -3.164  -9.705   9.299  0.00  0.00    -0.252 OA
ATOM      2  O   UNL     1      -9.873  -9.991  11.224  0.00  0.00    -0.270 OA
ATOM      3  N   UNL     1      -3.036  -9.802  11.652  0.00  0.00    -0.281 N 
ATOM      4  N   UNL     1      -5.051  -9.969  10.672  0.00  0.00    -0.278 N 
ATOM      5  N   UNL     1      -7.622  -9.505  11.620  0.00  0.00    -0.294 N 
ATOM      6  C   UNL     1      -5.311 -10.183  12.086  0.00  0.00    +0.112 C 
ATOM      8  C   UNL     1      -3.979  -9.856  12.754  0.00  0.00    +0.133 C 
ATOM     11  C   UNL     1      -6.484  -9.323  12.542  0.00  0.00    +0.132 C 
ATOM     12  C   UNL     1      -3.685  -9.815  10.401  0.00  0.00    +0.305 C 
ATOM     13  C   UNL     1      -6.144 -10.036   9.718  0.00  0.00    +0.128 C 
ATOM     17  C   UNL     1      -7.325  -9.202  10.213  0.00  0.00    +0.127 C 
ATOM     18  C   UNL     1      -8.915  -9.881  11.988  0.00  0.00    +0.247 C 
ENDROOT
BRANCH   3   7
ATOM      7  C   UNL     1      -1.620  -9.619  11.866  0.00  0.00    +0.078 C 
ATOM      9  C   UNL     1      -1.051  -8.594  10.883  0.00  0.00    +0.022 C 
ATOM     10  C   UNL     1      -1.344  -9.215  13.315  0.00  0.00    +0.022 C 
ATOM     14  C   UNL     1       0.435  -8.345  11.126  0.00  0.00    +0.002 C 
ATOM     15  C   UNL     1       0.143  -8.964  13.557  0.00  0.00    +0.002 C 
ATOM     16  C   UNL     1       0.708  -7.943  12.573  0.00  0.00    +0.000 C 
ENDBRANCH   3   7
BRANCH  18  19
ATOM     19  C   UNL     1      -9.171 -10.189  13.401  0.00  0.00    +0.037 A 
ATOM     20  C   UNL     1     -10.476 -10.185  13.891  0.00  0.00    +0.013 A 
ATOM     21  C   UNL     1      -8.108 -10.488  14.253  0.00  0.00    +0.013 A 
ATOM     22  C   UNL     1     -10.719 -10.479  15.233  0.00  0.00    +0.001 A 
ATOM     23  C   UNL     1      -8.350 -10.781  15.595  0.00  0.00    +0.001 A 
ATOM     24  C   UNL     1      -9.657 -10.777  16.084  0.00  0.00    +0.000 A 
ENDBRANCH  18  19
TORSDOF 2
ENDMDL
