MODEL 1
REMARK VINA RESULT:      10.0      0.000      0.000
REMARK  Name = 11882471
REMARK  9 active torsions:
REMARK  status: ('A' for Active; 'I' for Inactive)
REMARK    1  A    between atoms: N_8  and  C_14
REMARK    2  A    between atoms: N_9  and  C_21
REMARK    3  A    between atoms: C_15  and  C_19
REMARK    4  A    between atoms: C_20  and  C_23
REMARK    5  A    between atoms: C_21  and  C_24
REMARK    6  A    between atoms: C_21  and  C_25
REMARK    7  A    between atoms: C_22  and  C_26
REMARK    8  A    between atoms: C_24  and  C_28
REMARK    9  A    between atoms: C_29  and  C_32
REMARK                            x       y       z     vdW  Elec       q    Type
REMARK                         _______ _______ _______ _____ _____    ______ ____
ROOT
ATOM      4  O   UNL     1      -3.431   0.653  25.658  0.00  0.00    -0.268 OA
ATOM      7  N   UNL     1      -1.500   0.435  24.389  0.00  0.00    -0.285 N 
ATOM     14  C   UNL     1       1.284   1.014  23.701  0.00  0.00    +0.077 C 
ATOM     15  C   UNL     1      -0.808   1.539  25.067  0.00  0.00    +0.164 C 
ATOM     16  C   UNL     1       0.714   1.407  25.065  0.00  0.00    +0.054 C 
ATOM     17  C   UNL     1       0.570  -0.229  23.176  0.00  0.00    +0.041 C 
ATOM     18  C   UNL     1      -0.938  -0.011  23.102  0.00  0.00    +0.111 C 
ATOM     20  C   UNL     1      -2.715  -0.040  24.933  0.00  0.00    +0.266 C 
ENDROOT
BRANCH  20  23
ATOM      1  S   UNL     1      -3.198  -3.929  24.422  0.00  0.00    -0.080 S 
ATOM     10  N   UNL     1      -4.253  -1.637  23.863  0.00  0.00    -0.240 NA
ATOM     23  C   UNL     1      -3.113  -1.406  24.606  0.00  0.00    +0.133 A 
ATOM     27  C   UNL     1      -2.409  -2.521  25.001  0.00  0.00    +0.080 A 
ATOM     29  C   UNL     1      -4.396  -2.933  23.704  0.00  0.00    +0.076 A 
ATOM     32  C   UNL     1      -5.506  -3.566  22.959  0.00  0.00    +0.073 C 
ENDBRANCH  20  23
BRANCH  15  19
ATOM      3  O   UNL     1      -0.753   3.216  23.367  0.00  0.00    -0.274 OA
ATOM      9  N   UNL     1      -2.297   3.417  25.099  0.00  0.00    -0.302 N 
ATOM     19  C   UNL     1      -1.270   2.802  24.401  0.00  0.00    +0.234 C 
ATOM     38  H   UNL     1      -2.661   2.982  25.940  0.00  0.00    +0.150 HD
BRANCH   9  21
ATOM     21  C   UNL     1      -2.903   4.660  24.681  0.00  0.00    +0.163 C 
BRANCH  21  25
ATOM      6  O   UNL     1      -2.306   6.903  25.402  0.00  0.00    -0.274 OA
ATOM     11  N   UNL     1      -0.624   5.378  25.051  0.00  0.00    -0.328 N 
ATOM     25  C   UNL     1      -1.944   5.777  25.067  0.00  0.00    +0.231 C 
ATOM     39  H   UNL     1      -0.339   4.441  24.782  0.00  0.00    +0.145 HD
ATOM     40  H   UNL     1       0.117   6.024  25.303  0.00  0.00    +0.145 HD
ENDBRANCH  21  25
BRANCH  21  24
ATOM     24  C   UNL     1      -4.274   4.885  25.327  0.00  0.00    +0.074 C 
BRANCH  24  28
ATOM      2  S   UNL     1      -5.169   2.643  23.990  0.00  0.00    -0.102 S 
ATOM     28  C   UNL     1      -5.100   3.622  25.376  0.00  0.00    -0.008 A 
ATOM     31  C   UNL     1      -5.825   3.148  26.423  0.00  0.00    +0.011 A 
ATOM     33  C   UNL     1      -6.472   1.925  26.085  0.00  0.00    +0.008 A 
ATOM     34  C   UNL     1      -6.200   1.535  24.793  0.00  0.00    +0.045 A 
ENDBRANCH  24  28
ENDBRANCH  21  24
ENDBRANCH   9  21
ENDBRANCH  15  19
BRANCH  14   8
ATOM      5  O   UNL     1       2.949   0.152  21.593  0.00  0.00    -0.268 OA
ATOM      8  N   UNL     1       2.708   0.789  23.787  0.00  0.00    -0.307 N 
ATOM     22  C   UNL     1       3.461   0.362  22.695  0.00  0.00    +0.264 C 
ATOM     37  H   UNL     1       3.181   1.002  24.662  0.00  0.00    +0.149 HD
BRANCH  22  26
ATOM     12  N   UNL     1       5.393   0.857  23.997  0.00  0.00    -0.247 NA
ATOM     13  N   UNL     1       6.996  -0.704  22.305  0.00  0.00    -0.259 NA
ATOM     26  C   UNL     1       4.904   0.208  22.933  0.00  0.00    +0.143 A 
ATOM     30  C   UNL     1       5.672  -0.556  22.098  0.00  0.00    +0.143 A 
ATOM     35  C   UNL     1       6.717   0.709  24.203  0.00  0.00    +0.131 A 
ATOM     36  C   UNL     1       7.504  -0.057  23.372  0.00  0.00    +0.130 A 
ENDBRANCH  22  26
ENDBRANCH  14   8
TORSDOF 8
ENDMDL
