MODEL 1
REMARK VINA RESULT:      -4.0      0.000      0.000
REMARK  Name = 51137740
REMARK  5 active torsions:
REMARK  status: ('A' for Active; 'I' for Inactive)
REMARK    1  A    between atoms: S_1  and  N_5
REMARK    2  A    between atoms: S_1  and  C_14
REMARK    3  A    between atoms: C_9  and  C_13
REMARK    4  A    between atoms: C_17  and  C_20
REMARK    5  A    between atoms: C_21  and  C_26
REMARK                            x       y       z     vdW  Elec       q    Type
REMARK                         _______ _______ _______ _____ _____    ______ ____
ROOT
ATOM      5  N   UNL     1      -4.721   3.370  24.947  0.00  0.00    -0.176 NA
ATOM      9  C   UNL     1      -2.518   4.340  25.179  0.00  0.00    +0.094 C 
ATOM     10  C   UNL     1      -2.978   4.392  23.721  0.00  0.00    +0.031 C 
ATOM     11  C   UNL     1      -3.816   4.022  25.939  0.00  0.00    +0.122 C 
ATOM     12  C   UNL     1      -4.035   3.299  23.635  0.00  0.00    +0.110 C 
ENDROOT
BRANCH   9  13
ATOM      2  O   UNL     1      -0.848   2.800  24.246  0.00  0.00    -0.420 OA
ATOM      6  N   UNL     1      -0.753   3.004  26.472  0.00  0.00    -0.112 NA
ATOM      7  N   UNL     1       0.232   2.116  26.082  0.00  0.00    -0.107 NA
ATOM     13  C   UNL     1      -1.358   3.377  25.369  0.00  0.00    +0.222 A 
ATOM     17  C   UNL     1       0.140   2.027  24.776  0.00  0.00    +0.248 A 
BRANCH  17  20
ATOM     20  C   UNL     1       0.905   1.257  23.839  0.00  0.00    +0.038 A 
ATOM     22  C   UNL     1       2.246   1.565  23.613  0.00  0.00    +0.013 A 
ATOM     23  C   UNL     1       0.307   0.198  23.155  0.00  0.00    +0.013 A 
ATOM     24  C   UNL     1       2.989   0.816  22.701  0.00  0.00    +0.001 A 
ATOM     25  C   UNL     1       1.051  -0.552  22.244  0.00  0.00    +0.001 A 
ATOM     27  C   UNL     1       2.393  -0.242  22.017  0.00  0.00    +0.000 A 
ENDBRANCH  17  20
ENDBRANCH   9  13
BRANCH   5   1
ATOM      1  S   UNL     1      -5.665   2.052  25.440  0.00  0.00    +0.061 S 
ATOM      3  O   UNL     1      -6.797   1.903  24.543  0.00  0.00    -0.153 OA
ATOM      4  O   UNL     1      -5.868   2.111  26.876  0.00  0.00    -0.153 OA
BRANCH   1  14
ATOM     14  C   UNL     1      -4.551   0.718  25.115  0.00  0.00    +0.106 A 
ATOM     15  C   UNL     1      -3.309   0.676  25.747  0.00  0.00    +0.030 A 
ATOM     16  C   UNL     1      -4.915  -0.294  24.225  0.00  0.00    +0.030 A 
ATOM     18  C   UNL     1      -2.430  -0.376  25.490  0.00  0.00    +0.021 A 
ATOM     19  C   UNL     1      -4.036  -1.346  23.969  0.00  0.00    +0.021 A 
ATOM     21  C   UNL     1      -2.794  -1.387  24.601  0.00  0.00    +0.052 A 
BRANCH  21  26
ATOM      8  N   UNL     1      -1.161  -3.340  24.123  0.00  0.00    -0.191 NA
ATOM     26  C   UNL     1      -1.893  -2.465  24.338  0.00  0.00    +0.099 C 
ENDBRANCH  21  26
ENDBRANCH   1  14
ENDBRANCH   5   1
TORSDOF 5
ENDMDL
MODEL 2
REMARK VINA RESULT:      -2.7      1.611      2.219
REMARK  Name = 51137740
REMARK  5 active torsions:
REMARK  status: ('A' for Active; 'I' for Inactive)
REMARK    1  A    between atoms: S_1  and  N_5
REMARK    2  A    between atoms: S_1  and  C_14
REMARK    3  A    between atoms: C_9  and  C_13
REMARK    4  A    between atoms: C_17  and  C_20
REMARK    5  A    between atoms: C_21  and  C_26
REMARK                            x       y       z     vdW  Elec       q    Type
REMARK                         _______ _______ _______ _____ _____    ______ ____
ROOT
ATOM      5  N   UNL     1      -3.114   4.381  25.405  0.00  0.00    -0.176 NA
ATOM      9  C   UNL     1      -1.082   3.400  26.276  0.00  0.00    +0.094 C 
ATOM     10  C   UNL     1      -0.762   4.613  25.401  0.00  0.00    +0.031 C 
ATOM     11  C   UNL     1      -2.592   3.545  26.527  0.00  0.00    +0.122 C 
ATOM     12  C   UNL     1      -1.991   4.754  24.513  0.00  0.00    +0.110 C 
ENDROOT
BRANCH   9  13
ATOM      2  O   UNL     1       0.388   2.200  24.717  0.00  0.00    -0.420 OA
ATOM      6  N   UNL     1      -1.029   0.876  25.833  0.00  0.00    -0.112 NA
ATOM      7  N   UNL     1      -0.268   0.080  24.998  0.00  0.00    -0.107 NA
ATOM     13  C   UNL     1      -0.613   2.105  25.636  0.00  0.00    +0.222 A 
ATOM     17  C   UNL     1       0.544   0.894  24.366  0.00  0.00    +0.248 A 
BRANCH  17  20
ATOM     20  C   UNL     1       1.553   0.625  23.383  0.00  0.00    +0.038 A 
ATOM     22  C   UNL     1       1.266  -0.200  22.296  0.00  0.00    +0.013 A 
ATOM     23  C   UNL     1       2.822   1.189  23.515  0.00  0.00    +0.013 A 
ATOM     24  C   UNL     1       2.247  -0.461  21.341  0.00  0.00    +0.001 A 
ATOM     25  C   UNL     1       3.804   0.928  22.559  0.00  0.00    +0.001 A 
ATOM     27  C   UNL     1       3.516   0.102  21.471  0.00  0.00    +0.000 A 
ENDBRANCH  17  20
ENDBRANCH   9  13
BRANCH   5   1
ATOM      1  S   UNL     1      -4.605   3.980  24.707  0.00  0.00    +0.061 S 
ATOM      3  O   UNL     1      -4.685   4.547  23.373  0.00  0.00    -0.153 OA
ATOM      4  O   UNL     1      -5.668   4.211  25.668  0.00  0.00    -0.153 OA
BRANCH   1  14
ATOM     14  C   UNL     1      -4.418   2.230  24.530  0.00  0.00    +0.106 A 
ATOM     15  C   UNL     1      -3.585   1.715  23.536  0.00  0.00    +0.030 A 
ATOM     16  C   UNL     1      -5.103   1.365  25.382  0.00  0.00    +0.030 A 
ATOM     18  C   UNL     1      -3.438   0.336  23.396  0.00  0.00    +0.021 A 
ATOM     19  C   UNL     1      -4.956  -0.014  25.242  0.00  0.00    +0.021 A 
ATOM     21  C   UNL     1      -4.123  -0.530  24.249  0.00  0.00    +0.052 A 
BRANCH  21  26
ATOM      8  N   UNL     1      -3.850  -3.092  23.989  0.00  0.00    -0.191 NA
ATOM     26  C   UNL     1      -3.972  -1.943  24.105  0.00  0.00    +0.099 C 
ENDBRANCH  21  26
ENDBRANCH   1  14
ENDBRANCH   5   1
TORSDOF 5
ENDMDL
MODEL 3
REMARK VINA RESULT:      -1.2      2.502      5.172
REMARK  Name = 51137740
REMARK  5 active torsions:
REMARK  status: ('A' for Active; 'I' for Inactive)
REMARK    1  A    between atoms: S_1  and  N_5
REMARK    2  A    between atoms: S_1  and  C_14
REMARK    3  A    between atoms: C_9  and  C_13
REMARK    4  A    between atoms: C_17  and  C_20
REMARK    5  A    between atoms: C_21  and  C_26
REMARK                            x       y       z     vdW  Elec       q    Type
REMARK                         _______ _______ _______ _____ _____    ______ ____
ROOT
ATOM      5  N   UNL     1      -2.703  -2.037  24.794  0.00  0.00    -0.176 NA
ATOM      9  C   UNL     1      -0.376  -1.417  25.010  0.00  0.00    +0.094 C 
ATOM     10  C   UNL     1      -1.067  -1.400  26.375  0.00  0.00    +0.031 C 
ATOM     11  C   UNL     1      -1.376  -2.183  24.127  0.00  0.00    +0.122 C 
ATOM     12  C   UNL     1      -2.542  -1.239  26.033  0.00  0.00    +0.110 C 
ENDROOT
BRANCH   9  13
ATOM      2  O   UNL     1      -0.749   1.010  25.024  0.00  0.00    -0.420 OA
ATOM      6  N   UNL     1       0.985   0.364  23.766  0.00  0.00    -0.112 NA
ATOM      7  N   UNL     1       0.888   1.740  23.685  0.00  0.00    -0.107 NA
ATOM     13  C   UNL     1       0.010  -0.019  24.557  0.00  0.00    +0.222 A 
ATOM     17  C   UNL     1      -0.137   2.073  24.434  0.00  0.00    +0.248 A 
BRANCH  17  20
ATOM     20  C   UNL     1      -0.700   3.361  24.722  0.00  0.00    +0.038 A 
ATOM     22  C   UNL     1      -0.246   4.489  24.040  0.00  0.00    +0.013 A 
ATOM     23  C   UNL     1      -1.703   3.483  25.684  0.00  0.00    +0.013 A 
ATOM     24  C   UNL     1      -0.794   5.741  24.321  0.00  0.00    +0.001 A 
ATOM     25  C   UNL     1      -2.252   4.735  25.964  0.00  0.00    +0.001 A 
ATOM     27  C   UNL     1      -1.796   5.864  25.282  0.00  0.00    +0.000 A 
ENDBRANCH  17  20
ENDBRANCH   9  13
BRANCH   5   1
ATOM      1  S   UNL     1      -4.077  -1.776  23.837  0.00  0.00    +0.061 S 
ATOM      3  O   UNL     1      -5.150  -2.649  24.279  0.00  0.00    -0.153 OA
ATOM      4  O   UNL     1      -3.693  -1.736  22.437  0.00  0.00    -0.153 OA
BRANCH   1  14
ATOM     14  C   UNL     1      -4.500  -0.129  24.320  0.00  0.00    +0.106 A 
ATOM     15  C   UNL     1      -5.452   0.082  25.318  0.00  0.00    +0.030 A 
ATOM     16  C   UNL     1      -3.883   0.959  23.704  0.00  0.00    +0.030 A 
ATOM     18  C   UNL     1      -5.786   1.381  25.699  0.00  0.00    +0.021 A 
ATOM     19  C   UNL     1      -4.217   2.258  24.085  0.00  0.00    +0.021 A 
ATOM     21  C   UNL     1      -5.169   2.470  25.083  0.00  0.00    +0.052 A 
BRANCH  21  26
ATOM      8  N   UNL     1      -5.790   4.881  25.792  0.00  0.00    -0.191 NA
ATOM     26  C   UNL     1      -5.511   3.801  25.474  0.00  0.00    +0.099 C 
ENDBRANCH  21  26
ENDBRANCH   1  14
ENDBRANCH   5   1
TORSDOF 5
ENDMDL
MODEL 4
REMARK VINA RESULT:      -1.2      1.634      4.178
REMARK  Name = 51137740
REMARK  5 active torsions:
REMARK  status: ('A' for Active; 'I' for Inactive)
REMARK    1  A    between atoms: S_1  and  N_5
REMARK    2  A    between atoms: S_1  and  C_14
REMARK    3  A    between atoms: C_9  and  C_13
REMARK    4  A    between atoms: C_17  and  C_20
REMARK    5  A    between atoms: C_21  and  C_26
REMARK                            x       y       z     vdW  Elec       q    Type
REMARK                         _______ _______ _______ _____ _____    ______ ____
ROOT
ATOM      5  N   UNL     1      -5.097   0.029  25.225  0.00  0.00    -0.176 NA
ATOM      9  C   UNL     1      -3.065  -0.970  24.378  0.00  0.00    +0.094 C 
ATOM     10  C   UNL     1      -3.460  -1.603  25.713  0.00  0.00    +0.031 C 
ATOM     11  C   UNL     1      -4.339  -0.217  23.963  0.00  0.00    +0.122 C 
ATOM     12  C   UNL     1      -4.348  -0.551  26.364  0.00  0.00    +0.110 C 
ENDROOT
BRANCH   9  13
ATOM      2  O   UNL     1      -0.802  -0.414  23.602  0.00  0.00    -0.420 OA
ATOM      6  N   UNL     1      -1.485   0.799  25.353  0.00  0.00    -0.112 NA
ATOM      7  N   UNL     1      -0.208   1.209  25.021  0.00  0.00    -0.107 NA
ATOM     13  C   UNL     1      -1.791  -0.150  24.499  0.00  0.00    +0.222 A 
ATOM     17  C   UNL     1       0.151   0.474  23.995  0.00  0.00    +0.248 A 
BRANCH  17  20
ATOM     20  C   UNL     1       1.369   0.465  23.238  0.00  0.00    +0.038 A 
ATOM     22  C   UNL     1       1.472  -0.323  22.092  0.00  0.00    +0.013 A 
ATOM     23  C   UNL     1       2.451   1.243  23.649  0.00  0.00    +0.013 A 
ATOM     24  C   UNL     1       2.657  -0.333  21.356  0.00  0.00    +0.001 A 
ATOM     25  C   UNL     1       3.636   1.234  22.913  0.00  0.00    +0.001 A 
ATOM     27  C   UNL     1       3.738   0.446  21.766  0.00  0.00    +0.000 A 
ENDBRANCH  17  20
ENDBRANCH   9  13
BRANCH   5   1
ATOM      1  S   UNL     1      -5.869   1.522  25.440  0.00  0.00    +0.061 S 
ATOM      3  O   UNL     1      -6.342   1.632  26.808  0.00  0.00    -0.153 OA
ATOM      4  O   UNL     1      -6.772   1.765  24.329  0.00  0.00    -0.153 OA
BRANCH   1  14
ATOM     14  C   UNL     1      -4.498   2.624  25.262  0.00  0.00    +0.106 A 
ATOM     15  C   UNL     1      -3.940   2.846  24.003  0.00  0.00    +0.030 A 
ATOM     16  C   UNL     1      -3.973   3.270  26.381  0.00  0.00    +0.030 A 
ATOM     18  C   UNL     1      -2.858   3.715  23.862  0.00  0.00    +0.021 A 
ATOM     19  C   UNL     1      -2.891   4.139  26.240  0.00  0.00    +0.021 A 
ATOM     21  C   UNL     1      -2.333   4.361  24.981  0.00  0.00    +0.052 A 
BRANCH  21  26
ATOM      8  N   UNL     1      -0.323   5.973  24.720  0.00  0.00    -0.191 NA
ATOM     26  C   UNL     1      -1.225   5.251  24.837  0.00  0.00    +0.099 C 
ENDBRANCH  21  26
ENDBRANCH   1  14
ENDBRANCH   5   1
TORSDOF 5
ENDMDL
MODEL 5
REMARK VINA RESULT:      -0.9      2.647      6.825
REMARK  Name = 51137740
REMARK  5 active torsions:
REMARK  status: ('A' for Active; 'I' for Inactive)
REMARK    1  A    between atoms: S_1  and  N_5
REMARK    2  A    between atoms: S_1  and  C_14
REMARK    3  A    between atoms: C_9  and  C_13
REMARK    4  A    between atoms: C_17  and  C_20
REMARK    5  A    between atoms: C_21  and  C_26
REMARK                            x       y       z     vdW  Elec       q    Type
REMARK                         _______ _______ _______ _____ _____    ______ ____
ROOT
ATOM      5  N   UNL     1       0.037  -1.461  24.133  0.00  0.00    -0.176 NA
ATOM      9  C   UNL     1      -1.950  -1.761  25.478  0.00  0.00    +0.094 C 
ATOM     10  C   UNL     1      -1.684  -3.004  24.626  0.00  0.00    +0.031 C 
ATOM     11  C   UNL     1      -0.624  -0.989  25.386  0.00  0.00    +0.122 C 
ATOM     12  C   UNL     1      -0.819  -2.483  23.486  0.00  0.00    +0.110 C 
ENDROOT
BRANCH   9  13
ATOM      2  O   UNL     1      -3.299   0.288  25.359  0.00  0.00    -0.420 OA
ATOM      6  N   UNL     1      -4.237  -1.477  24.354  0.00  0.00    -0.112 NA
ATOM      7  N   UNL     1      -5.093  -0.400  24.214  0.00  0.00    -0.107 NA
ATOM     13  C   UNL     1      -3.204  -1.029  25.028  0.00  0.00    +0.222 A 
ATOM     17  C   UNL     1      -4.505   0.607  24.816  0.00  0.00    +0.248 A 
BRANCH  17  20
ATOM     20  C   UNL     1      -4.930   1.966  24.985  0.00  0.00    +0.038 A 
ATOM     22  C   UNL     1      -5.833   2.295  25.996  0.00  0.00    +0.013 A 
ATOM     23  C   UNL     1      -4.440   2.960  24.138  0.00  0.00    +0.013 A 
ATOM     24  C   UNL     1      -6.246   3.616  26.159  0.00  0.00    +0.001 A 
ATOM     25  C   UNL     1      -4.852   4.282  24.302  0.00  0.00    +0.001 A 
ATOM     27  C   UNL     1      -5.756   4.610  25.313  0.00  0.00    +0.000 A 
ENDBRANCH  17  20
ENDBRANCH   9  13
BRANCH   5   1
ATOM      1  S   UNL     1       0.834  -0.333  23.152  0.00  0.00    +0.061 S 
ATOM      3  O   UNL     1       0.403  -0.496  21.775  0.00  0.00    -0.153 OA
ATOM      4  O   UNL     1       2.248  -0.317  23.482  0.00  0.00    -0.153 OA
BRANCH   1  14
ATOM     14  C   UNL     1       0.130   1.174  23.753  0.00  0.00    +0.106 A 
ATOM     15  C   UNL     1      -0.984   1.725  23.119  0.00  0.00    +0.030 A 
ATOM     16  C   UNL     1       0.688   1.811  24.861  0.00  0.00    +0.030 A 
ATOM     18  C   UNL     1      -1.540   2.913  23.593  0.00  0.00    +0.021 A 
ATOM     19  C   UNL     1       0.132   3.000  25.335  0.00  0.00    +0.021 A 
ATOM     21  C   UNL     1      -0.982   3.550  24.701  0.00  0.00    +0.052 A 
BRANCH  21  26
ATOM      8  N   UNL     1      -2.014   5.757  25.579  0.00  0.00    -0.191 NA
ATOM     26  C   UNL     1      -1.551   4.768  25.186  0.00  0.00    +0.099 C 
ENDBRANCH  21  26
ENDBRANCH   1  14
ENDBRANCH   5   1
TORSDOF 5
ENDMDL
MODEL 6
REMARK VINA RESULT:      -0.4      2.230      3.265
REMARK  Name = 51137740
REMARK  5 active torsions:
REMARK  status: ('A' for Active; 'I' for Inactive)
REMARK    1  A    between atoms: S_1  and  N_5
REMARK    2  A    between atoms: S_1  and  C_14
REMARK    3  A    between atoms: C_9  and  C_13
REMARK    4  A    between atoms: C_17  and  C_20
REMARK    5  A    between atoms: C_21  and  C_26
REMARK                            x       y       z     vdW  Elec       q    Type
REMARK                         _______ _______ _______ _____ _____    ______ ____
ROOT
ATOM      5  N   UNL     1      -4.869   3.232  24.656  0.00  0.00    -0.176 NA
ATOM      9  C   UNL     1      -2.746   4.381  24.799  0.00  0.00    +0.094 C 
ATOM     10  C   UNL     1      -3.157   4.188  23.338  0.00  0.00    +0.031 C 
ATOM     11  C   UNL     1      -4.047   4.085  25.564  0.00  0.00    +0.122 C 
ATOM     12  C   UNL     1      -4.133   3.021  23.387  0.00  0.00    +0.110 C 
ENDROOT
BRANCH   9  13
ATOM      2  O   UNL     1      -1.042   3.679  26.421  0.00  0.00    -0.420 OA
ATOM      6  N   UNL     1      -0.861   2.685  24.425  0.00  0.00    -0.112 NA
ATOM      7  N   UNL     1       0.151   2.204  25.235  0.00  0.00    -0.107 NA
ATOM     13  C   UNL     1      -1.531   3.543  25.158  0.00  0.00    +0.222 A 
ATOM     17  C   UNL     1       0.006   2.811  26.390  0.00  0.00    +0.248 A 
BRANCH  17  20
ATOM     20  C   UNL     1       0.768   2.702  27.600  0.00  0.00    +0.038 A 
ATOM     22  C   UNL     1       2.145   2.919  27.580  0.00  0.00    +0.013 A 
ATOM     23  C   UNL     1       0.130   2.379  28.798  0.00  0.00    +0.013 A 
ATOM     24  C   UNL     1       2.885   2.812  28.757  0.00  0.00    +0.001 A 
ATOM     25  C   UNL     1       0.870   2.274  29.976  0.00  0.00    +0.001 A 
ATOM     27  C   UNL     1       2.248   2.490  29.955  0.00  0.00    +0.000 A 
ENDBRANCH  17  20
ENDBRANCH   9  13
BRANCH   5   1
ATOM      1  S   UNL     1      -5.739   1.935  25.314  0.00  0.00    +0.061 S 
ATOM      3  O   UNL     1      -6.909   1.671  24.497  0.00  0.00    -0.153 OA
ATOM      4  O   UNL     1      -5.871   2.117  26.748  0.00  0.00    -0.153 OA
BRANCH   1  14
ATOM     14  C   UNL     1      -4.596   0.612  25.048  0.00  0.00    +0.106 A 
ATOM     15  C   UNL     1      -4.934  -0.440  24.197  0.00  0.00    +0.030 A 
ATOM     16  C   UNL     1      -3.358   0.620  25.690  0.00  0.00    +0.030 A 
ATOM     18  C   UNL     1      -4.033  -1.484  23.986  0.00  0.00    +0.021 A 
ATOM     19  C   UNL     1      -2.457  -0.424  25.479  0.00  0.00    +0.021 A 
ATOM     21  C   UNL     1      -2.794  -1.476  24.628  0.00  0.00    +0.052 A 
BRANCH  21  26
ATOM      8  N   UNL     1      -1.122  -3.415  24.239  0.00  0.00    -0.191 NA
ATOM     26  C   UNL     1      -1.871  -2.545  24.413  0.00  0.00    +0.099 C 
ENDBRANCH  21  26
ENDBRANCH   1  14
ENDBRANCH   5   1
TORSDOF 5
ENDMDL
