MODEL 1
REMARK VINA RESULT:      -1.7      0.000      0.000
REMARK  Name = 11912850
REMARK  7 active torsions:
REMARK  status: ('A' for Active; 'I' for Inactive)
REMARK    1  A    between atoms: O_5  and  C_28
REMARK    2  A    between atoms: O_5  and  C_31
REMARK    3  A    between atoms: N_8  and  C_16
REMARK    4  A    between atoms: N_10  and  C_25
REMARK    5  A    between atoms: N_11  and  C_24
REMARK    6  A    between atoms: C_12  and  C_17
REMARK    7  A    between atoms: C_23  and  C_24
REMARK                            x       y       z     vdW  Elec       q    Type
REMARK                         _______ _______ _______ _____ _____    ______ ____
ROOT
ATOM      3  O   UNL     1       0.760   2.699  25.545  0.00  0.00    -0.252 OA
ATOM      4  O   UNL     1      -5.736   4.074  26.672  0.00  0.00    -0.274 OA
ATOM      6  N   UNL     1      -1.439   2.629  24.816  0.00  0.00    -0.271 N 
ATOM      7  N   UNL     1      -4.093   3.646  25.088  0.00  0.00    -0.297 N 
ATOM     10  N   UNL     1       0.319   1.872  23.423  0.00  0.00    -0.269 N 
ATOM     12  C   UNL     1      -2.481   2.201  23.862  0.00  0.00    +0.181 C 
ATOM     13  C   UNL     1      -3.663   3.172  23.770  0.00  0.00    +0.139 C 
ATOM     14  C   UNL     1      -1.913   3.185  26.093  0.00  0.00    +0.129 C 
ATOM     15  C   UNL     1      -3.018   4.212  25.896  0.00  0.00    +0.127 C 
ATOM     22  C   UNL     1      -0.045   2.425  24.652  0.00  0.00    +0.307 C 
ATOM     23  C   UNL     1      -5.400   3.630  25.571  0.00  0.00    +0.229 C 
ATOM     34  H   UNL     1      -0.267   2.062  22.618  0.00  0.00    +0.156 HD
ENDROOT
BRANCH  10  25
ATOM     25  C   UNL     1       1.429   1.036  23.149  0.00  0.00    +0.038 A 
ATOM     26  C   UNL     1       2.719   1.464  23.468  0.00  0.00    +0.069 A 
ATOM     27  C   UNL     1       1.234  -0.213  22.562  0.00  0.00    +0.023 A 
ATOM     28  C   UNL     1       3.812   0.641  23.199  0.00  0.00    +0.122 A 
ATOM     29  C   UNL     1       2.328  -1.037  22.293  0.00  0.00    +0.005 A 
ATOM     30  C   UNL     1       3.617  -0.610  22.611  0.00  0.00    +0.046 A 
BRANCH  28   5
ATOM      5  O   UNL     1       5.070   1.057  23.509  0.00  0.00    -0.495 OA
ATOM     31  C   UNL     1       6.019   0.052  23.861  0.00  0.00    +0.277 C 
ENDBRANCH  28   5
ENDBRANCH  10  25
BRANCH  12  17
ATOM      1  O   UNL     1      -3.975   0.336  23.900  0.00  0.00    -0.274 OA
ATOM      8  N   UNL     1      -2.046   0.262  25.200  0.00  0.00    -0.302 N 
ATOM     17  C   UNL     1      -2.928   0.837  24.302  0.00  0.00    +0.236 C 
ATOM     32  H   UNL     1      -1.230   0.788  25.498  0.00  0.00    +0.150 HD
BRANCH   8  16
ATOM      2  O   UNL     1      -0.040  -1.827  25.325  0.00  0.00    -0.274 OA
ATOM      9  N   UNL     1      -1.734  -2.843  24.183  0.00  0.00    -0.314 N 
ATOM     16  C   UNL     1      -2.258  -1.037  25.792  0.00  0.00    +0.159 C 
ATOM     18  C   UNL     1      -3.713  -1.480  25.692  0.00  0.00    +0.033 C 
ATOM     19  C   UNL     1      -4.041  -1.974  24.292  0.00  0.00    +0.021 C 
ATOM     20  C   UNL     1      -3.135  -3.144  23.959  0.00  0.00    +0.104 C 
ATOM     21  C   UNL     1      -1.248  -1.956  25.118  0.00  0.00    +0.233 C 
ATOM     33  H   UNL     1      -1.056  -3.427  23.703  0.00  0.00    +0.149 HD
ENDBRANCH   8  16
ENDBRANCH  12  17
BRANCH  23  24
ATOM     24  C   UNL     1      -6.445   3.022  24.670  0.00  0.00    +0.174 C 
BRANCH  24  11
ATOM     11  N   UNL     1      -6.570   1.638  25.070  0.00  0.00    -0.322 NA
ATOM     35  H   UNL     1      -5.861   1.421  25.770  0.00  0.00    +0.119 HD
ATOM     36  H   UNL     1      -7.469   1.488  25.526  0.00  0.00    +0.119 HD
ENDBRANCH  24  11
ENDBRANCH  23  24
TORSDOF 6
ENDMDL
MODEL 2
REMARK VINA RESULT:      -0.5     18.197     20.015
REMARK  Name = 11912850
REMARK  7 active torsions:
REMARK  status: ('A' for Active; 'I' for Inactive)
REMARK    1  A    between atoms: O_5  and  C_28
REMARK    2  A    between atoms: O_5  and  C_31
REMARK    3  A    between atoms: N_8  and  C_16
REMARK    4  A    between atoms: N_10  and  C_25
REMARK    5  A    between atoms: N_11  and  C_24
REMARK    6  A    between atoms: C_12  and  C_17
REMARK    7  A    between atoms: C_23  and  C_24
REMARK                            x       y       z     vdW  Elec       q    Type
REMARK                         _______ _______ _______ _____ _____    ______ ____
ROOT
ATOM      3  O   UNL     1      13.730  -6.081  27.227  0.00  0.00    -0.252 OA
ATOM      4  O   UNL     1      13.424  -9.740  32.873  0.00  0.00    -0.274 OA
ATOM      6  N   UNL     1      14.697  -7.655  28.627  0.00  0.00    -0.271 N 
ATOM      7  N   UNL     1      14.329  -9.535  30.744  0.00  0.00    -0.297 N 
ATOM     10  N   UNL     1      15.721  -7.078  26.572  0.00  0.00    -0.269 N 
ATOM     12  C   UNL     1      15.821  -8.524  29.029  0.00  0.00    +0.181 C 
ATOM     13  C   UNL     1      15.379  -9.798  29.757  0.00  0.00    +0.139 C 
ATOM     14  C   UNL     1      13.617  -7.489  29.612  0.00  0.00    +0.129 C 
ATOM     15  C   UNL     1      13.177  -8.817  30.210  0.00  0.00    +0.127 C 
ATOM     22  C   UNL     1      14.647  -6.878  27.442  0.00  0.00    +0.307 C 
ATOM     23  C   UNL     1      14.343  -9.943  32.076  0.00  0.00    +0.229 C 
ATOM     34  H   UNL     1      16.176  -7.984  26.570  0.00  0.00    +0.156 HD
ENDROOT
BRANCH  10  25
ATOM     25  C   UNL     1      16.288  -6.139  25.675  0.00  0.00    +0.038 A 
ATOM     26  C   UNL     1      16.531  -4.832  26.096  0.00  0.00    +0.069 A 
ATOM     27  C   UNL     1      16.603  -6.522  24.372  0.00  0.00    +0.023 A 
ATOM     28  C   UNL     1      17.089  -3.907  25.212  0.00  0.00    +0.122 A 
ATOM     29  C   UNL     1      17.161  -5.598  23.488  0.00  0.00    +0.005 A 
ATOM     30  C   UNL     1      17.405  -4.291  23.908  0.00  0.00    +0.046 A 
BRANCH  28   5
ATOM      5  O   UNL     1      17.327  -2.632  25.622  0.00  0.00    -0.495 OA
ATOM     31  C   UNL     1      17.039  -1.587  24.695  0.00  0.00    +0.277 C 
ENDBRANCH  28   5
ENDBRANCH  10  25
BRANCH  12  17
ATOM      1  O   UNL     1      17.405  -8.178  30.785  0.00  0.00    -0.274 OA
ATOM      8  N   UNL     1      16.654  -6.342  29.566  0.00  0.00    -0.302 N 
ATOM     17  C   UNL     1      16.721  -7.686  29.891  0.00  0.00    +0.236 C 
ATOM     32  H   UNL     1      16.017  -6.041  28.835  0.00  0.00    +0.150 HD
BRANCH   8  16
ATOM      2  O   UNL     1      16.997  -6.238  32.443  0.00  0.00    -0.274 OA
ATOM      9  N   UNL     1      16.019  -4.226  31.993  0.00  0.00    -0.314 N 
ATOM     16  C   UNL     1      17.405  -5.324  30.261  0.00  0.00    +0.159 C 
ATOM     18  C   UNL     1      17.386  -3.994  29.518  0.00  0.00    +0.033 C 
ATOM     19  C   UNL     1      16.063  -3.271  29.718  0.00  0.00    +0.021 C 
ATOM     20  C   UNL     1      15.860  -3.022  31.200  0.00  0.00    +0.104 C 
ATOM     21  C   UNL     1      16.830  -5.292  31.670  0.00  0.00    +0.233 C 
ATOM     33  H   UNL     1      15.602  -4.226  32.919  0.00  0.00    +0.149 HD
ENDBRANCH   8  16
ENDBRANCH  12  17
BRANCH  23  24
ATOM     24  C   UNL     1      15.577 -10.675  32.544  0.00  0.00    +0.174 C 
BRANCH  24  11
ATOM     11  N   UNL     1      16.555  -9.658  32.862  0.00  0.00    -0.322 NA
ATOM     35  H   UNL     1      17.393 -10.099  33.241  0.00  0.00    +0.119 HD
ATOM     36  H   UNL     1      16.850  -9.182  32.011  0.00  0.00    +0.119 HD
ENDBRANCH  24  11
ENDBRANCH  23  24
TORSDOF 6
ENDMDL
MODEL 3
REMARK VINA RESULT:       1.4      1.951      7.728
REMARK  Name = 11912850
REMARK  7 active torsions:
REMARK  status: ('A' for Active; 'I' for Inactive)
REMARK    1  A    between atoms: O_5  and  C_28
REMARK    2  A    between atoms: O_5  and  C_31
REMARK    3  A    between atoms: N_8  and  C_16
REMARK    4  A    between atoms: N_10  and  C_25
REMARK    5  A    between atoms: N_11  and  C_24
REMARK    6  A    between atoms: C_12  and  C_17
REMARK    7  A    between atoms: C_23  and  C_24
REMARK                            x       y       z     vdW  Elec       q    Type
REMARK                         _______ _______ _______ _____ _____    ______ ____
ROOT
ATOM      3  O   UNL     1      -2.542  -1.368  25.318  0.00  0.00    -0.252 OA
ATOM      4  O   UNL     1       4.027  -1.454  23.835  0.00  0.00    -0.274 OA
ATOM      6  N   UNL     1      -0.752  -0.435  24.178  0.00  0.00    -0.271 N 
ATOM      7  N   UNL     1       1.904  -0.774  23.186  0.00  0.00    -0.297 N 
ATOM     10  N   UNL     1      -2.943   0.412  23.884  0.00  0.00    -0.269 N 
ATOM     12  C   UNL     1      -0.150   0.622  23.342  0.00  0.00    +0.181 C 
ATOM     13  C   UNL     1       1.001   0.123  22.461  0.00  0.00    +0.139 C 
ATOM     14  C   UNL     1       0.184  -1.373  24.817  0.00  0.00    +0.129 C 
ATOM     15  C   UNL     1       1.231  -1.891  23.842  0.00  0.00    +0.127 C 
ATOM     22  C   UNL     1      -2.126  -0.529  24.514  0.00  0.00    +0.307 C 
ATOM     23  C   UNL     1       3.291  -0.658  23.248  0.00  0.00    +0.229 C 
ATOM     34  H   UNL     1      -2.662   0.759  22.974  0.00  0.00    +0.156 HD
ENDROOT
BRANCH  10  25
ATOM     25  C   UNL     1      -4.144   0.978  24.378  0.00  0.00    +0.038 A 
ATOM     26  C   UNL     1      -4.133   2.253  24.946  0.00  0.00    +0.069 A 
ATOM     27  C   UNL     1      -5.338   0.262  24.296  0.00  0.00    +0.023 A 
ATOM     28  C   UNL     1      -5.316   2.810  25.432  0.00  0.00    +0.122 A 
ATOM     29  C   UNL     1      -6.521   0.819  24.782  0.00  0.00    +0.005 A 
ATOM     30  C   UNL     1      -6.510   2.093  25.350  0.00  0.00    +0.046 A 
BRANCH  28   5
ATOM      5  O   UNL     1      -5.305   4.053  25.986  0.00  0.00    -0.495 OA
ATOM     31  C   UNL     1      -6.159   5.033  25.400  0.00  0.00    +0.277 C 
ENDBRANCH  28   5
ENDBRANCH  10  25
BRANCH  12  17
ATOM      1  O   UNL     1       1.335   1.588  24.946  0.00  0.00    -0.274 OA
ATOM      8  N   UNL     1      -0.561   2.777  24.304  0.00  0.00    -0.302 N 
ATOM     17  C   UNL     1       0.308   1.701  24.280  0.00  0.00    +0.236 C 
ATOM     32  H   UNL     1      -1.406   2.743  23.743  0.00  0.00    +0.150 HD
BRANCH   8  16
ATOM      2  O   UNL     1      -0.751   2.757  27.197  0.00  0.00    -0.274 OA
ATOM      9  N   UNL     1      -2.314   4.316  26.614  0.00  0.00    -0.314 N 
ATOM     16  C   UNL     1      -0.360   3.935  25.142  0.00  0.00    +0.159 C 
ATOM     18  C   UNL     1      -0.745   5.227  24.432  0.00  0.00    +0.033 C 
ATOM     19  C   UNL     1      -2.255   5.409  24.403  0.00  0.00    +0.021 C 
ATOM     20  C   UNL     1      -2.773   5.444  25.827  0.00  0.00    +0.104 C 
ATOM     21  C   UNL     1      -1.127   3.641  26.424  0.00  0.00    +0.233 C 
ATOM     33  H   UNL     1      -2.845   4.089  27.449  0.00  0.00    +0.149 HD
ENDBRANCH   8  16
ENDBRANCH  12  17
BRANCH  23  24
ATOM     24  C   UNL     1       3.900   0.530  22.544  0.00  0.00    +0.174 C 
BRANCH  24  11
ATOM     11  N   UNL     1       5.063   0.905  23.317  0.00  0.00    -0.322 NA
ATOM     35  H   UNL     1       4.766   1.388  24.164  0.00  0.00    +0.119 HD
ATOM     36  H   UNL     1       5.557   0.070  23.628  0.00  0.00    +0.119 HD
ENDBRANCH  24  11
ENDBRANCH  23  24
TORSDOF 6
ENDMDL
