MODEL 1
REMARK VINA RESULT:       3.4      0.000      0.000
REMARK  Name = 11884504
REMARK  6 active torsions:
REMARK  status: ('A' for Active; 'I' for Inactive)
REMARK    1  A    between atoms: N_7  and  C_16
REMARK    2  A    between atoms: N_8  and  C_18
REMARK    3  A    between atoms: N_9  and  C_20
REMARK    4  A    between atoms: C_16  and  C_19
REMARK    5  A    between atoms: C_20  and  C_24
REMARK    6  A    between atoms: C_24  and  C_30
REMARK                            x       y       z     vdW  Elec       q    Type
REMARK                         _______ _______ _______ _____ _____    ______ ____
ROOT
ATOM      3  O   UNL     1       0.930   2.141  24.279  0.00  0.00    -0.273 OA
ATOM      4  O   UNL     1      -3.716   2.160  23.619  0.00  0.00    -0.252 OA
ATOM      5  O   UNL     1       2.632   0.467  22.296  0.00  0.00    -0.253 OA
ATOM      6  N   UNL     1       1.020  -0.484  23.649  0.00  0.00    -0.272 N 
ATOM      7  N   UNL     1      -2.548   0.185  23.449  0.00  0.00    -0.275 N 
ATOM      8  N   UNL     1      -1.403   2.215  23.996  0.00  0.00    -0.192 N 
ATOM      9  N   UNL     1       3.227  -1.272  23.686  0.00  0.00    -0.299 N 
ATOM     10  C   UNL     1      -1.301  -0.545  23.470  0.00  0.00    +0.109 C 
ATOM     11  C   UNL     1      -0.097   0.308  23.130  0.00  0.00    +0.185 C 
ATOM     12  C   UNL     1      -0.929  -1.141  24.830  0.00  0.00    +0.044 C 
ATOM     13  C   UNL     1       0.557  -1.442  24.656  0.00  0.00    +0.112 C 
ATOM     14  C   UNL     1      -0.117   1.638  23.864  0.00  0.00    +0.250 C 
ATOM     15  C   UNL     1      -2.637   1.560  23.699  0.00  0.00    +0.316 C 
ATOM     17  C   UNL     1       2.317  -0.369  23.146  0.00  0.00    +0.303 C 
ATOM     31  H   UNL     1       2.927  -1.940  24.388  0.00  0.00    +0.150 HD
ENDROOT
BRANCH   8  18
ATOM      2  F   UNL     1      -3.423   5.580  26.794  0.00  0.00    -0.205 F 
ATOM     18  C   UNL     1      -1.473   3.581  24.479  0.00  0.00    +0.048 A 
ATOM     21  C   UNL     1      -2.433   3.924  25.422  0.00  0.00    +0.062 A 
ATOM     22  C   UNL     1      -0.581   4.525  23.991  0.00  0.00    +0.024 A 
ATOM     26  C   UNL     1      -2.501   5.237  25.885  0.00  0.00    +0.125 A 
ATOM     27  C   UNL     1      -0.649   5.838  24.454  0.00  0.00    +0.005 A 
ATOM     29  C   UNL     1      -1.609   6.194  25.402  0.00  0.00    +0.038 A 
ENDBRANCH   8  18
BRANCH   7  16
ATOM     16  C   UNL     1      -3.752  -0.597  23.193  0.00  0.00    +0.152 C 
BRANCH  16  19
ATOM      1  S   UNL     1      -3.508  -1.720  25.702  0.00  0.00    -0.100 S 
ATOM     19  C   UNL     1      -3.720  -1.848  24.017  0.00  0.00    +0.007 A 
ATOM     23  C   UNL     1      -3.842  -3.138  23.587  0.00  0.00    +0.013 A 
ATOM     25  C   UNL     1      -3.760  -4.059  24.670  0.00  0.00    +0.008 A 
ATOM     28  C   UNL     1      -3.578  -3.421  25.878  0.00  0.00    +0.045 A 
ENDBRANCH  16  19
ENDBRANCH   7  16
BRANCH   9  20
ATOM     20  C   UNL     1       4.615  -1.296  23.287  0.00  0.00    +0.105 C 
BRANCH  20  24
ATOM     24  C   UNL     1       5.519  -0.591  24.290  0.00  0.00    +0.015 C 
ATOM     30  C   UNL     1       5.731   0.880  23.959  0.00  0.00    +0.005 C 
ENDBRANCH  20  24
ENDBRANCH   9  20
TORSDOF 5
ENDMDL
MODEL 2
REMARK VINA RESULT:       5.0      1.399      1.875
REMARK  Name = 11884504
REMARK  6 active torsions:
REMARK  status: ('A' for Active; 'I' for Inactive)
REMARK    1  A    between atoms: N_7  and  C_16
REMARK    2  A    between atoms: N_8  and  C_18
REMARK    3  A    between atoms: N_9  and  C_20
REMARK    4  A    between atoms: C_16  and  C_19
REMARK    5  A    between atoms: C_20  and  C_24
REMARK    6  A    between atoms: C_24  and  C_30
REMARK                            x       y       z     vdW  Elec       q    Type
REMARK                         _______ _______ _______ _____ _____    ______ ____
ROOT
ATOM      3  O   UNL     1       1.012   2.006  24.262  0.00  0.00    -0.273 OA
ATOM      4  O   UNL     1      -3.662   2.224  23.920  0.00  0.00    -0.252 OA
ATOM      5  O   UNL     1       2.476   0.022  22.374  0.00  0.00    -0.253 OA
ATOM      6  N   UNL     1       0.922  -0.674  23.935  0.00  0.00    -0.272 N 
ATOM      7  N   UNL     1      -2.612   0.178  23.901  0.00  0.00    -0.275 N 
ATOM      8  N   UNL     1      -1.328   2.184  24.131  0.00  0.00    -0.192 N 
ATOM      9  N   UNL     1       3.082  -1.582  23.913  0.00  0.00    -0.299 N 
ATOM     10  C   UNL     1      -1.406  -0.618  23.922  0.00  0.00    +0.109 C 
ATOM     11  C   UNL     1      -0.189   0.119  23.404  0.00  0.00    +0.185 C 
ATOM     12  C   UNL     1      -0.965  -1.080  25.313  0.00  0.00    +0.044 C 
ATOM     13  C   UNL     1       0.486  -1.485  25.075  0.00  0.00    +0.112 C 
ATOM     14  C   UNL     1      -0.087   1.521  23.980  0.00  0.00    +0.250 C 
ATOM     15  C   UNL     1      -2.613   1.574  23.996  0.00  0.00    +0.316 C 
ATOM     17  C   UNL     1       2.182  -0.693  23.335  0.00  0.00    +0.303 C 
ATOM     31  H   UNL     1       2.801  -2.149  24.706  0.00  0.00    +0.150 HD
ENDROOT
BRANCH   8  18
ATOM      2  F   UNL     1      -3.086   5.991  26.510  0.00  0.00    -0.205 F 
ATOM     18  C   UNL     1      -1.293   3.598  24.456  0.00  0.00    +0.048 A 
ATOM     21  C   UNL     1      -2.225   4.118  25.344  0.00  0.00    +0.062 A 
ATOM     22  C   UNL     1      -0.329   4.409  23.875  0.00  0.00    +0.024 A 
ATOM     26  C   UNL     1      -2.192   5.477  25.655  0.00  0.00    +0.125 A 
ATOM     27  C   UNL     1      -0.296   5.768  24.187  0.00  0.00    +0.005 A 
ATOM     29  C   UNL     1      -1.227   6.301  25.077  0.00  0.00    +0.038 A 
ENDBRANCH   8  18
BRANCH   7  16
ATOM     16  C   UNL     1      -3.870  -0.556  23.820  0.00  0.00    +0.152 C 
BRANCH  16  19
ATOM      1  S   UNL     1      -4.808   0.341  26.255  0.00  0.00    -0.100 S 
ATOM     19  C   UNL     1      -4.934   0.191  24.563  0.00  0.00    +0.007 A 
ATOM     23  C   UNL     1      -6.046   0.799  24.052  0.00  0.00    +0.013 A 
ATOM     25  C   UNL     1      -6.824   1.409  25.077  0.00  0.00    +0.008 A 
ATOM     28  C   UNL     1      -6.265   1.236  26.324  0.00  0.00    +0.045 A 
ENDBRANCH  16  19
ENDBRANCH   7  16
BRANCH   9  20
ATOM     20  C   UNL     1       4.434  -1.733  23.426  0.00  0.00    +0.105 C 
BRANCH  20  24
ATOM     24  C   UNL     1       5.429  -0.879  24.203  0.00  0.00    +0.015 C 
ATOM     30  C   UNL     1       5.516   0.547  23.679  0.00  0.00    +0.005 C 
ENDBRANCH  20  24
ENDBRANCH   9  20
TORSDOF 5
ENDMDL
MODEL 3
REMARK VINA RESULT:       5.1      2.762      5.393
REMARK  Name = 11884504
REMARK  6 active torsions:
REMARK  status: ('A' for Active; 'I' for Inactive)
REMARK    1  A    between atoms: N_7  and  C_16
REMARK    2  A    between atoms: N_8  and  C_18
REMARK    3  A    between atoms: N_9  and  C_20
REMARK    4  A    between atoms: C_16  and  C_19
REMARK    5  A    between atoms: C_20  and  C_24
REMARK    6  A    between atoms: C_24  and  C_30
REMARK                            x       y       z     vdW  Elec       q    Type
REMARK                         _______ _______ _______ _____ _____    ______ ____
ROOT
ATOM      3  O   UNL     1      -0.194  -0.833  23.340  0.00  0.00    -0.273 OA
ATOM      4  O   UNL     1      -3.454   1.111  26.098  0.00  0.00    -0.252 OA
ATOM      5  O   UNL     1       2.772  -0.456  24.176  0.00  0.00    -0.253 OA
ATOM      6  N   UNL     1       1.393   1.328  23.674  0.00  0.00    -0.272 N 
ATOM      7  N   UNL     1      -1.556   2.296  25.567  0.00  0.00    -0.275 N 
ATOM      8  N   UNL     1      -1.882   0.095  24.687  0.00  0.00    -0.192 N 
ATOM      9  N   UNL     1       3.432   1.042  22.554  0.00  0.00    -0.299 N 
ATOM     10  C   UNL     1      -0.270   2.386  24.914  0.00  0.00    +0.109 C 
ATOM     11  C   UNL     1       0.397   1.042  24.709  0.00  0.00    +0.185 C 
ATOM     12  C   UNL     1      -0.305   2.974  23.502  0.00  0.00    +0.044 C 
ATOM     13  C   UNL     1       1.047   2.547  22.939  0.00  0.00    +0.112 C 
ATOM     14  C   UNL     1      -0.571   0.006  24.161  0.00  0.00    +0.250 C 
ATOM     15  C   UNL     1      -2.383   1.170  25.482  0.00  0.00    +0.316 C 
ATOM     17  C   UNL     1       2.551   0.563  23.518  0.00  0.00    +0.303 C 
ATOM     31  H   UNL     1       3.208   1.882  22.031  0.00  0.00    +0.150 HD
ENDROOT
BRANCH   8  18
ATOM      2  F   UNL     1      -3.498  -4.375  25.495  0.00  0.00    -0.205 F 
ATOM     18  C   UNL     1      -2.794  -0.993  24.387  0.00  0.00    +0.048 A 
ATOM     21  C   UNL     1      -2.702  -2.179  25.101  0.00  0.00    +0.062 A 
ATOM     22  C   UNL     1      -3.745  -0.832  23.389  0.00  0.00    +0.024 A 
ATOM     26  C   UNL     1      -3.578  -3.225  24.812  0.00  0.00    +0.125 A 
ATOM     27  C   UNL     1      -4.621  -1.878  23.100  0.00  0.00    +0.005 A 
ATOM     29  C   UNL     1      -4.538  -3.074  23.812  0.00  0.00    +0.038 A 
ENDBRANCH   8  18
BRANCH   7  16
ATOM     16  C   UNL     1      -1.992   3.478  26.302  0.00  0.00    +0.152 C 
BRANCH  16  19
ATOM      1  S   UNL     1      -3.633   4.238  24.218  0.00  0.00    -0.100 S 
ATOM     19  C   UNL     1      -3.370   3.863  25.859  0.00  0.00    +0.007 A 
ATOM     23  C   UNL     1      -4.499   3.962  26.620  0.00  0.00    +0.013 A 
ATOM     25  C   UNL     1      -5.622   4.358  25.839  0.00  0.00    +0.008 A 
ATOM     28  C   UNL     1      -5.291   4.542  24.514  0.00  0.00    +0.045 A 
ENDBRANCH  16  19
ENDBRANCH   7  16
BRANCH   9  20
ATOM     20  C   UNL     1       4.678   0.377  22.255  0.00  0.00    +0.105 C 
BRANCH  20  24
ATOM     24  C   UNL     1       5.660   0.434  23.419  0.00  0.00    +0.015 C 
ATOM     30  C   UNL     1       5.780  -0.895  24.153  0.00  0.00    +0.005 C 
ENDBRANCH  20  24
ENDBRANCH   9  20
TORSDOF 5
ENDMDL
MODEL 4
REMARK VINA RESULT:       5.1      1.321      1.635
REMARK  Name = 11884504
REMARK  6 active torsions:
REMARK  status: ('A' for Active; 'I' for Inactive)
REMARK    1  A    between atoms: N_7  and  C_16
REMARK    2  A    between atoms: N_8  and  C_18
REMARK    3  A    between atoms: N_9  and  C_20
REMARK    4  A    between atoms: C_16  and  C_19
REMARK    5  A    between atoms: C_20  and  C_24
REMARK    6  A    between atoms: C_24  and  C_30
REMARK                            x       y       z     vdW  Elec       q    Type
REMARK                         _______ _______ _______ _____ _____    ______ ____
ROOT
ATOM      3  O   UNL     1       0.336   2.133  24.405  0.00  0.00    -0.273 OA
ATOM      4  O   UNL     1      -4.323   2.062  24.960  0.00  0.00    -0.252 OA
ATOM      5  O   UNL     1       1.548   0.122  22.374  0.00  0.00    -0.253 OA
ATOM      6  N   UNL     1       0.369  -0.563  24.239  0.00  0.00    -0.272 N 
ATOM      7  N   UNL     1      -3.158   0.082  24.843  0.00  0.00    -0.275 N 
ATOM      8  N   UNL     1      -1.994   2.169  24.719  0.00  0.00    -0.192 N 
ATOM      9  N   UNL     1       2.543  -1.345  23.847  0.00  0.00    -0.299 N 
ATOM     10  C   UNL     1      -1.918  -0.641  24.671  0.00  0.00    +0.109 C 
ATOM     11  C   UNL     1      -0.874   0.130  23.892  0.00  0.00    +0.185 C 
ATOM     12  C   UNL     1      -1.191  -0.988  25.973  0.00  0.00    +0.044 C 
ATOM     13  C   UNL     1       0.213  -1.324  25.480  0.00  0.00    +0.112 C 
ATOM     14  C   UNL     1      -0.761   1.570  24.365  0.00  0.00    +0.250 C 
ATOM     15  C   UNL     1      -3.236   1.479  24.865  0.00  0.00    +0.316 C 
ATOM     17  C   UNL     1       1.491  -0.547  23.408  0.00  0.00    +0.303 C 
ATOM     31  H   UNL     1       2.456  -1.875  24.706  0.00  0.00    +0.150 HD
ENDROOT
BRANCH   8  18
ATOM      2  F   UNL     1       0.168   6.470  24.467  0.00  0.00    -0.205 F 
ATOM     18  C   UNL     1      -1.994   3.600  24.959  0.00  0.00    +0.048 A 
ATOM     21  C   UNL     1      -0.891   4.355  24.588  0.00  0.00    +0.062 A 
ATOM     22  C   UNL     1      -3.097   4.191  25.558  0.00  0.00    +0.024 A 
ATOM     26  C   UNL     1      -0.891   5.731  24.821  0.00  0.00    +0.125 A 
ATOM     27  C   UNL     1      -3.097   5.567  25.791  0.00  0.00    +0.005 A 
ATOM     29  C   UNL     1      -1.994   6.336  25.422  0.00  0.00    +0.038 A 
ENDBRANCH   8  18
BRANCH   7  16
ATOM     16  C   UNL     1      -4.356  -0.727  25.043  0.00  0.00    +0.152 C 
BRANCH  16  19
ATOM      1  S   UNL     1      -3.270  -3.263  25.061  0.00  0.00    -0.100 S 
ATOM     19  C   UNL     1      -4.201  -2.036  24.333  0.00  0.00    +0.007 A 
ATOM     23  C   UNL     1      -4.724  -2.403  23.126  0.00  0.00    +0.013 A 
ATOM     25  C   UNL     1      -4.354  -3.734  22.780  0.00  0.00    +0.008 A 
ATOM     28  C   UNL     1      -3.563  -4.318  23.745  0.00  0.00    +0.045 A 
ENDBRANCH  16  19
ENDBRANCH   7  16
BRANCH   9  20
ATOM     20  C   UNL     1       3.785  -1.448  23.116  0.00  0.00    +0.105 C 
BRANCH  20  24
ATOM     24  C   UNL     1       4.978  -0.962  23.930  0.00  0.00    +0.015 C 
ATOM     30  C   UNL     1       5.333   0.490  23.643  0.00  0.00    +0.005 C 
ENDBRANCH  20  24
ENDBRANCH   9  20
TORSDOF 5
ENDMDL
MODEL 5
REMARK VINA RESULT:       5.4      2.573      5.296
REMARK  Name = 11884504
REMARK  6 active torsions:
REMARK  status: ('A' for Active; 'I' for Inactive)
REMARK    1  A    between atoms: N_7  and  C_16
REMARK    2  A    between atoms: N_8  and  C_18
REMARK    3  A    between atoms: N_9  and  C_20
REMARK    4  A    between atoms: C_16  and  C_19
REMARK    5  A    between atoms: C_20  and  C_24
REMARK    6  A    between atoms: C_24  and  C_30
REMARK                            x       y       z     vdW  Elec       q    Type
REMARK                         _______ _______ _______ _____ _____    ______ ____
ROOT
ATOM      3  O   UNL     1       0.044  -0.967  23.345  0.00  0.00    -0.273 OA
ATOM      4  O   UNL     1      -3.281   0.861  26.105  0.00  0.00    -0.252 OA
ATOM      5  O   UNL     1       2.996  -0.459  24.162  0.00  0.00    -0.253 OA
ATOM      6  N   UNL     1       1.540   1.261  23.653  0.00  0.00    -0.272 N 
ATOM      7  N   UNL     1      -1.437   2.121  25.554  0.00  0.00    -0.275 N 
ATOM      8  N   UNL     1      -1.675  -0.099  24.693  0.00  0.00    -0.192 N 
ATOM      9  N   UNL     1       3.584   1.052  22.525  0.00  0.00    -0.299 N 
ATOM     10  C   UNL     1      -0.158   2.259  24.894  0.00  0.00    +0.109 C 
ATOM     11  C   UNL     1       0.562   0.943  24.696  0.00  0.00    +0.185 C 
ATOM     12  C   UNL     1      -0.225   2.834  23.477  0.00  0.00    +0.044 C 
ATOM     13  C   UNL     1       1.140   2.459  22.911  0.00  0.00    +0.112 C 
ATOM     14  C   UNL     1      -0.364  -0.137  24.162  0.00  0.00    +0.250 C 
ATOM     15  C   UNL     1      -2.217   0.961  25.482  0.00  0.00    +0.316 C 
ATOM     17  C   UNL     1       2.728   0.544  23.497  0.00  0.00    +0.303 C 
ATOM     31  H   UNL     1       3.323   1.878  21.997  0.00  0.00    +0.150 HD
ENDROOT
BRANCH   8  18
ATOM      2  F   UNL     1      -5.990  -1.877  23.486  0.00  0.00    -0.205 F 
ATOM     18  C   UNL     1      -2.543  -1.226  24.407  0.00  0.00    +0.048 A 
ATOM     21  C   UNL     1      -3.872  -1.000  24.078  0.00  0.00    +0.062 A 
ATOM     22  C   UNL     1      -2.031  -2.515  24.466  0.00  0.00    +0.024 A 
ATOM     26  C   UNL     1      -4.706  -2.084  23.804  0.00  0.00    +0.125 A 
ATOM     27  C   UNL     1      -2.865  -3.599  24.193  0.00  0.00    +0.005 A 
ATOM     29  C   UNL     1      -4.202  -3.383  23.861  0.00  0.00    +0.038 A 
ENDBRANCH   8  18
BRANCH   7  16
ATOM     16  C   UNL     1      -1.918   3.289  26.283  0.00  0.00    +0.152 C 
BRANCH  16  19
ATOM      1  S   UNL     1      -3.548   3.866  24.132  0.00  0.00    -0.100 S 
ATOM     19  C   UNL     1      -3.290   3.649  25.802  0.00  0.00    +0.007 A 
ATOM     23  C   UNL     1      -4.418   3.837  26.548  0.00  0.00    +0.013 A 
ATOM     25  C   UNL     1      -5.535   4.171  25.730  0.00  0.00    +0.008 A 
ATOM     28  C   UNL     1      -5.202   4.220  24.394  0.00  0.00    +0.045 A 
ENDBRANCH  16  19
ENDBRANCH   7  16
BRANCH   9  20
ATOM     20  C   UNL     1       4.856   0.437  22.224  0.00  0.00    +0.105 C 
BRANCH  20  24
ATOM     24  C   UNL     1       5.790   0.417  23.428  0.00  0.00    +0.015 C 
ATOM     30  C   UNL     1       5.803  -0.928  24.141  0.00  0.00    +0.005 C 
ENDBRANCH  20  24
ENDBRANCH   9  20
TORSDOF 5
ENDMDL
MODEL 6
REMARK VINA RESULT:       6.2      3.642      6.268
REMARK  Name = 11884504
REMARK  6 active torsions:
REMARK  status: ('A' for Active; 'I' for Inactive)
REMARK    1  A    between atoms: N_7  and  C_16
REMARK    2  A    between atoms: N_8  and  C_18
REMARK    3  A    between atoms: N_9  and  C_20
REMARK    4  A    between atoms: C_16  and  C_19
REMARK    5  A    between atoms: C_20  and  C_24
REMARK    6  A    between atoms: C_24  and  C_30
REMARK                            x       y       z     vdW  Elec       q    Type
REMARK                         _______ _______ _______ _____ _____    ______ ____
ROOT
ATOM      3  O   UNL     1      -0.424  -0.031  26.034  0.00  0.00    -0.273 OA
ATOM      4  O   UNL     1      -4.199   0.951  23.426  0.00  0.00    -0.252 OA
ATOM      5  O   UNL     1       0.105   1.788  28.494  0.00  0.00    -0.253 OA
ATOM      6  N   UNL     1       0.068   2.608  26.335  0.00  0.00    -0.272 N 
ATOM      7  N   UNL     1      -2.846   2.659  24.161  0.00  0.00    -0.275 N 
ATOM      8  N   UNL     1      -2.310   0.388  24.694  0.00  0.00    -0.192 N 
ATOM      9  N   UNL     1       1.932   2.955  27.712  0.00  0.00    -0.299 N 
ATOM     10  C   UNL     1      -1.704   3.124  24.914  0.00  0.00    +0.109 C 
ATOM     11  C   UNL     1      -1.307   2.196  26.042  0.00  0.00    +0.185 C 
ATOM     12  C   UNL     1      -0.411   3.257  24.105  0.00  0.00    +0.044 C 
ATOM     13  C   UNL     1       0.650   3.327  25.199  0.00  0.00    +0.112 C 
ATOM     14  C   UNL     1      -1.281   0.743  25.600  0.00  0.00    +0.250 C 
ATOM     15  C   UNL     1      -3.183   1.306  24.034  0.00  0.00    +0.316 C 
ATOM     17  C   UNL     1       0.660   2.406  27.583  0.00  0.00    +0.303 C 
ATOM     31  H   UNL     1       2.354   3.451  26.935  0.00  0.00    +0.150 HD
ENDROOT
BRANCH   8  18
ATOM      2  F   UNL     1      -5.157  -3.362  23.661  0.00  0.00    -0.205 F 
ATOM     18  C   UNL     1      -2.487  -1.023  24.407  0.00  0.00    +0.048 A 
ATOM     21  C   UNL     1      -3.761  -1.517  24.168  0.00  0.00    +0.062 A 
ATOM     22  C   UNL     1      -1.379  -1.858  24.377  0.00  0.00    +0.024 A 
ATOM     26  C   UNL     1      -3.931  -2.874  23.893  0.00  0.00    +0.125 A 
ATOM     27  C   UNL     1      -1.549  -3.215  24.103  0.00  0.00    +0.005 A 
ATOM     29  C   UNL     1      -2.825  -3.722  23.860  0.00  0.00    +0.038 A 
ENDBRANCH   8  18
BRANCH   7  16
ATOM     16  C   UNL     1      -3.632   3.681  23.479  0.00  0.00    +0.152 C 
BRANCH  16  19
ATOM      1  S   UNL     1      -5.428   3.065  25.481  0.00  0.00    -0.100 S 
ATOM     19  C   UNL     1      -4.722   4.163  24.387  0.00  0.00    +0.007 A 
ATOM     23  C   UNL     1      -5.256   5.417  24.464  0.00  0.00    +0.013 A 
ATOM     25  C   UNL     1      -6.280   5.488  25.452  0.00  0.00    +0.008 A 
ATOM     28  C   UNL     1      -6.475   4.278  26.082  0.00  0.00    +0.045 A 
ENDBRANCH  16  19
ENDBRANCH   7  16
BRANCH   9  20
ATOM     20  C   UNL     1       2.698   2.840  28.932  0.00  0.00    +0.105 C 
BRANCH  20  24
ATOM     24  C   UNL     1       1.981   2.011  29.991  0.00  0.00    +0.015 C 
ATOM     30  C   UNL     1       0.935   2.811  30.756  0.00  0.00    +0.005 C 
ENDBRANCH  20  24
ENDBRANCH   9  20
TORSDOF 5
ENDMDL
MODEL 7
REMARK VINA RESULT:       7.2      2.983      6.591
REMARK  Name = 11884504
REMARK  6 active torsions:
REMARK  status: ('A' for Active; 'I' for Inactive)
REMARK    1  A    between atoms: N_7  and  C_16
REMARK    2  A    between atoms: N_8  and  C_18
REMARK    3  A    between atoms: N_9  and  C_20
REMARK    4  A    between atoms: C_16  and  C_19
REMARK    5  A    between atoms: C_20  and  C_24
REMARK    6  A    between atoms: C_24  and  C_30
REMARK                            x       y       z     vdW  Elec       q    Type
REMARK                         _______ _______ _______ _____ _____    ______ ____
ROOT
ATOM      3  O   UNL     1       0.649  -1.433  24.031  0.00  0.00    -0.273 OA
ATOM      4  O   UNL     1       1.613   3.125  23.481  0.00  0.00    -0.252 OA
ATOM      5  O   UNL     1      -2.189  -2.387  23.209  0.00  0.00    -0.253 OA
ATOM      6  N   UNL     1      -1.844  -0.816  24.867  0.00  0.00    -0.272 N 
ATOM      7  N   UNL     1      -0.413   2.487  24.363  0.00  0.00    -0.275 N 
ATOM      8  N   UNL     1       1.210   0.834  23.763  0.00  0.00    -0.192 N 
ATOM      9  N   UNL     1      -3.081  -2.760  25.300  0.00  0.00    -0.299 N 
ATOM     10  C   UNL     1      -1.345   1.455  24.757  0.00  0.00    +0.109 C 
ATOM     11  C   UNL     1      -1.148   0.150  24.015  0.00  0.00    +0.185 C 
ATOM     12  C   UNL     1      -1.254   1.035  26.226  0.00  0.00    +0.044 C 
ATOM     13  C   UNL     1      -1.998  -0.297  26.229  0.00  0.00    +0.112 C 
ATOM     14  C   UNL     1       0.316  -0.249  23.946  0.00  0.00    +0.250 C 
ATOM     15  C   UNL     1       0.864   2.216  23.858  0.00  0.00    +0.316 C 
ATOM     17  C   UNL     1      -2.361  -2.015  24.372  0.00  0.00    +0.303 C 
ATOM     31  H   UNL     1      -3.194  -2.420  26.249  0.00  0.00    +0.150 HD
ENDROOT
BRANCH   8  18
ATOM      2  F   UNL     1       4.986  -2.148  24.048  0.00  0.00    -0.205 F 
ATOM     18  C   UNL     1       2.592   0.512  23.460  0.00  0.00    +0.048 A 
ATOM     21  C   UNL     1       3.128  -0.687  23.909  0.00  0.00    +0.062 A 
ATOM     22  C   UNL     1       3.357   1.408  22.727  0.00  0.00    +0.024 A 
ATOM     26  C   UNL     1       4.458  -0.995  23.620  0.00  0.00    +0.125 A 
ATOM     27  C   UNL     1       4.686   1.100  22.438  0.00  0.00    +0.005 A 
ATOM     29  C   UNL     1       5.236  -0.102  22.883  0.00  0.00    +0.038 A 
ENDBRANCH   8  18
BRANCH   7  16
ATOM     16  C   UNL     1      -0.851   3.865  24.560  0.00  0.00    +0.152 C 
BRANCH  16  19
ATOM      1  S   UNL     1      -3.477   3.395  23.858  0.00  0.00    -0.100 S 
ATOM     19  C   UNL     1      -2.289   3.878  24.978  0.00  0.00    +0.007 A 
ATOM     23  C   UNL     1      -2.807   4.241  26.188  0.00  0.00    +0.013 A 
ATOM     25  C   UNL     1      -4.227   4.121  26.205  0.00  0.00    +0.008 A 
ATOM     28  C   UNL     1      -4.721   3.670  25.000  0.00  0.00    +0.045 A 
ENDBRANCH  16  19
ENDBRANCH   7  16
BRANCH   9  20
ATOM     20  C   UNL     1      -3.683  -4.029  24.966  0.00  0.00    +0.105 C 
BRANCH  20  24
ATOM     24  C   UNL     1      -4.637  -3.924  23.782  0.00  0.00    +0.015 C 
ATOM     30  C   UNL     1      -5.058  -2.490  23.491  0.00  0.00    +0.005 C 
ENDBRANCH  20  24
ENDBRANCH   9  20
TORSDOF 5
ENDMDL
