MODEL 1
REMARK VINA RESULT:       2.1      0.000      0.000
REMARK  Name = 51137898
REMARK  5 active torsions:
REMARK  status: ('A' for Active; 'I' for Inactive)
REMARK    1  A    between atoms: N_1  and  C_10
REMARK    2  A    between atoms: N_2  and  C_14
REMARK    3  A    between atoms: C_5  and  C_9
REMARK    4  A    between atoms: C_10  and  C_12
REMARK    5  A    between atoms: C_23  and  C_24
REMARK                            x       y       z     vdW  Elec       q    Type
REMARK                         _______ _______ _______ _____ _____    ______ ____
ROOT
ATOM      1  N   UNL     1      -3.434  -1.851  25.011  0.00  0.00    -0.297 NA
ATOM      5  C   UNL     1      -3.907   0.400  25.469  0.00  0.00    +0.070 C 
ATOM      6  C   UNL     1      -4.728  -0.061  24.253  0.00  0.00    +0.028 C 
ATOM      7  C   UNL     1      -2.825  -0.675  25.638  0.00  0.00    +0.096 C 
ATOM      8  C   UNL     1      -4.054  -1.346  23.787  0.00  0.00    +0.085 C 
ENDROOT
BRANCH   5   9
ATOM      2  N   UNL     1      -4.109   2.912  25.535  0.00  0.00    -0.330 N 
ATOM      3  N   UNL     1      -2.089   2.100  25.090  0.00  0.00    -0.232 NA
ATOM      9  C   UNL     1      -3.339   1.796  25.358  0.00  0.00    +0.115 A 
ATOM     11  C   UNL     1      -3.301   4.008  25.370  0.00  0.00    +0.069 A 
ATOM     13  C   UNL     1      -2.046   3.475  25.093  0.00  0.00    +0.089 A 
ATOM     14  C   UNL     1      -5.522   2.937  25.841  0.00  0.00    +0.150 C 
ATOM     15  C   UNL     1      -3.555   5.379  25.436  0.00  0.00    +0.028 A 
ATOM     18  C   UNL     1      -0.967   4.346  24.867  0.00  0.00    +0.030 A 
ATOM     19  C   UNL     1      -2.469   6.232  25.208  0.00  0.00    +0.002 A 
ATOM     20  C   UNL     1      -1.197   5.726  24.929  0.00  0.00    +0.002 A 
ENDBRANCH   5   9
BRANCH   1  10
ATOM     10  C   UNL     1      -2.463  -2.903  24.749  0.00  0.00    +0.119 C 
BRANCH  10  12
ATOM     12  C   UNL     1      -1.098  -2.345  24.447  0.00  0.00    -0.033 A 
ATOM     16  C   UNL     1      -0.942  -1.397  23.435  0.00  0.00    +0.005 A 
ATOM     17  C   UNL     1       0.009  -2.774  25.179  0.00  0.00    +0.005 A 
ATOM     21  C   UNL     1       0.324  -0.879  23.155  0.00  0.00    +0.010 A 
ATOM     22  C   UNL     1       1.273  -2.256  24.899  0.00  0.00    +0.010 A 
ATOM     23  C   UNL     1       1.430  -1.308  23.887  0.00  0.00    +0.000 A 
BRANCH  23  24
ATOM      4  N   UNL     1       3.777  -1.551  23.984  0.00  0.00    -0.255 NA
ATOM     24  C   UNL     1       2.742  -0.771  23.597  0.00  0.00    +0.071 A 
ATOM     25  C   UNL     1       2.888   0.454  22.968  0.00  0.00    +0.028 A 
ATOM     26  C   UNL     1       4.179   0.909  22.719  0.00  0.00    +0.004 A 
ATOM     27  C   UNL     1       5.016  -1.075  23.727  0.00  0.00    +0.111 A 
ATOM     28  C   UNL     1       5.268   0.136  23.103  0.00  0.00    +0.020 A 
ENDBRANCH  23  24
ENDBRANCH  10  12
ENDBRANCH   1  10
TORSDOF 4
ENDMDL
MODEL 2
REMARK VINA RESULT:       4.7     18.727     20.281
REMARK  Name = 51137898
REMARK  5 active torsions:
REMARK  status: ('A' for Active; 'I' for Inactive)
REMARK    1  A    between atoms: N_1  and  C_10
REMARK    2  A    between atoms: N_2  and  C_14
REMARK    3  A    between atoms: C_5  and  C_9
REMARK    4  A    between atoms: C_10  and  C_12
REMARK    5  A    between atoms: C_23  and  C_24
REMARK                            x       y       z     vdW  Elec       q    Type
REMARK                         _______ _______ _______ _____ _____    ______ ____
ROOT
ATOM      1  N   UNL     1      17.395  -5.455  25.755  0.00  0.00    -0.297 NA
ATOM      5  C   UNL     1      17.401  -7.374  27.105  0.00  0.00    +0.070 C 
ATOM      6  C   UNL     1      16.822  -7.719  25.722  0.00  0.00    +0.028 C 
ATOM      7  C   UNL     1      17.367  -5.840  27.168  0.00  0.00    +0.096 C 
ATOM      8  C   UNL     1      16.469  -6.376  25.096  0.00  0.00    +0.085 C 
ENDROOT
BRANCH   5   9
ATOM      2  N   UNL     1      16.254  -9.321  28.221  0.00  0.00    -0.330 N 
ATOM      3  N   UNL     1      16.429  -7.461  29.425  0.00  0.00    -0.232 NA
ATOM      9  C   UNL     1      16.695  -8.027  28.270  0.00  0.00    +0.115 A 
ATOM     11  C   UNL     1      15.663  -9.607  29.425  0.00  0.00    +0.069 A 
ATOM     13  C   UNL     1      15.785  -8.431  30.159  0.00  0.00    +0.089 A 
ATOM     14  C   UNL     1      16.383 -10.227  27.102  0.00  0.00    +0.150 C 
ATOM     15  C   UNL     1      15.050 -10.760  29.919  0.00  0.00    +0.028 A 
ATOM     18  C   UNL     1      15.272  -8.383  31.466  0.00  0.00    +0.030 A 
ATOM     19  C   UNL     1      14.545 -10.694  31.222  0.00  0.00    +0.002 A 
ATOM     20  C   UNL     1      14.653  -9.528  31.984  0.00  0.00    +0.002 A 
ENDBRANCH   5   9
BRANCH   1  10
ATOM     10  C   UNL     1      17.029  -4.061  25.553  0.00  0.00    +0.119 C 
BRANCH  10  12
ATOM     12  C   UNL     1      17.053  -3.283  26.842  0.00  0.00    -0.033 A 
ATOM     16  C   UNL     1      16.906  -1.896  26.822  0.00  0.00    +0.005 A 
ATOM     17  C   UNL     1      17.221  -3.949  28.056  0.00  0.00    +0.005 A 
ATOM     21  C   UNL     1      16.928  -1.176  28.016  0.00  0.00    +0.010 A 
ATOM     22  C   UNL     1      17.244  -3.229  29.249  0.00  0.00    +0.010 A 
ATOM     23  C   UNL     1      17.096  -1.842  29.230  0.00  0.00    +0.000 A 
BRANCH  23  24
ATOM      4  N   UNL     1      17.365  -1.831  31.576  0.00  0.00    -0.255 NA
ATOM     24  C   UNL     1      17.120  -1.094  30.468  0.00  0.00    +0.071 A 
ATOM     25  C   UNL     1      16.901   0.274  30.480  0.00  0.00    +0.028 A 
ATOM     26  C   UNL     1      16.938   0.929  31.706  0.00  0.00    +0.004 A 
ATOM     27  C   UNL     1      17.392  -1.159  32.749  0.00  0.00    +0.111 A 
ATOM     28  C   UNL     1      17.188   0.206  32.867  0.00  0.00    +0.020 A 
ENDBRANCH  23  24
ENDBRANCH  10  12
ENDBRANCH   1  10
TORSDOF 4
ENDMDL
MODEL 3
REMARK VINA RESULT:       6.1      1.713      5.334
REMARK  Name = 51137898
REMARK  5 active torsions:
REMARK  status: ('A' for Active; 'I' for Inactive)
REMARK    1  A    between atoms: N_1  and  C_10
REMARK    2  A    between atoms: N_2  and  C_14
REMARK    3  A    between atoms: C_5  and  C_9
REMARK    4  A    between atoms: C_10  and  C_12
REMARK    5  A    between atoms: C_23  and  C_24
REMARK                            x       y       z     vdW  Elec       q    Type
REMARK                         _______ _______ _______ _____ _____    ______ ____
ROOT
ATOM      1  N   UNL     1      -3.232   4.175  25.189  0.00  0.00    -0.297 NA
ATOM      5  C   UNL     1      -4.522   2.266  24.747  0.00  0.00    +0.070 C 
ATOM      6  C   UNL     1      -4.764   2.727  26.194  0.00  0.00    +0.028 C 
ATOM      7  C   UNL     1      -3.245   3.000  24.314  0.00  0.00    +0.096 C 
ATOM      8  C   UNL     1      -3.605   3.666  26.508  0.00  0.00    +0.085 C 
ENDROOT
BRANCH   5   9
ATOM      2  N   UNL     1      -3.399   0.034  25.077  0.00  0.00    -0.330 N 
ATOM      3  N   UNL     1      -5.295   0.018  23.920  0.00  0.00    -0.232 NA
ATOM      9  C   UNL     1      -4.431   0.769  24.564  0.00  0.00    +0.115 A 
ATOM     11  C   UNL     1      -3.611  -1.278  24.740  0.00  0.00    +0.069 A 
ATOM     13  C   UNL     1      -4.800  -1.262  24.018  0.00  0.00    +0.089 A 
ATOM     14  C   UNL     1      -2.280   0.545  25.838  0.00  0.00    +0.150 C 
ATOM     15  C   UNL     1      -2.885  -2.442  24.996  0.00  0.00    +0.028 A 
ATOM     18  C   UNL     1      -5.312  -2.470  23.515  0.00  0.00    +0.030 A 
ATOM     19  C   UNL     1      -3.409  -3.636  24.487  0.00  0.00    +0.002 A 
ATOM     20  C   UNL     1      -4.601  -3.651  23.760  0.00  0.00    +0.002 A 
ENDBRANCH   5   9
BRANCH   1  10
ATOM     10  C   UNL     1      -1.940   4.845  25.198  0.00  0.00    +0.119 C 
BRANCH  10  12
ATOM     12  C   UNL     1      -0.832   3.933  24.742  0.00  0.00    -0.033 A 
ATOM     16  C   UNL     1      -0.442   2.858  25.542  0.00  0.00    +0.005 A 
ATOM     17  C   UNL     1      -0.197   4.161  23.522  0.00  0.00    +0.005 A 
ATOM     21  C   UNL     1       0.584   2.012  25.120  0.00  0.00    +0.010 A 
ATOM     22  C   UNL     1       0.829   3.316  23.101  0.00  0.00    +0.010 A 
ATOM     23  C   UNL     1       1.219   2.241  23.899  0.00  0.00    +0.000 A 
BRANCH  23  24
ATOM      4  N   UNL     1       3.449   1.984  23.166  0.00  0.00    -0.255 NA
ATOM     24  C   UNL     1       2.284   1.364  23.462  0.00  0.00    +0.071 A 
ATOM     25  C   UNL     1       2.087  -0.003  23.366  0.00  0.00    +0.028 A 
ATOM     26  C   UNL     1       3.155  -0.786  22.939  0.00  0.00    +0.004 A 
ATOM     27  C   UNL     1       4.463   1.191  22.754  0.00  0.00    +0.111 A 
ATOM     28  C   UNL     1       4.368  -0.185  22.625  0.00  0.00    +0.020 A 
ENDBRANCH  23  24
ENDBRANCH  10  12
ENDBRANCH   1  10
TORSDOF 4
ENDMDL
