MODEL 1
REMARK VINA RESULT:       1.2      0.000      0.000
REMARK  Name = 51136687
REMARK  8 active torsions:
REMARK  status: ('A' for Active; 'I' for Inactive)
REMARK    1  A    between atoms: O_2  and  C_16
REMARK    2  A    between atoms: O_4  and  C_30
REMARK    3  A    between atoms: O_4  and  C_31
REMARK    4  A    between atoms: C_7  and  C_12
REMARK    5  A    between atoms: C_8  and  C_13
REMARK    6  A    between atoms: C_12  and  C_14
REMARK    7  A    between atoms: C_13  and  C_16
REMARK    8  A    between atoms: C_15  and  C_21
REMARK                            x       y       z     vdW  Elec       q    Type
REMARK                         _______ _______ _______ _____ _____    ______ ____
ROOT
ATOM      1  O   UNL     1      -1.003   5.339  25.229  0.00  0.00    -0.270 OA
ATOM      5  N   UNL     1      -0.715   3.499  23.812  0.00  0.00    -0.297 N 
ATOM      7  C   UNL     1      -0.272   1.073  23.503  0.00  0.00    +0.016 C 
ATOM      8  C   UNL     1       1.176   1.432  23.079  0.00  0.00    +0.006 C 
ATOM      9  C   UNL     1       1.633   2.763  23.699  0.00  0.00    +0.023 C 
ATOM     10  C   UNL     1      -1.213   2.256  23.207  0.00  0.00    +0.112 C 
ATOM     11  C   UNL     1       0.636   3.881  23.408  0.00  0.00    +0.108 C 
ATOM     15  C   UNL     1      -1.417   4.301  24.716  0.00  0.00    +0.247 C 
ENDROOT
BRANCH  15  21
ATOM     21  C   UNL     1      -2.771   3.885  25.099  0.00  0.00    +0.037 A 
ATOM     24  C   UNL     1      -3.124   3.813  26.447  0.00  0.00    +0.016 A 
ATOM     25  C   UNL     1      -3.705   3.558  24.115  0.00  0.00    +0.016 A 
ATOM     28  C   UNL     1      -4.410   3.416  26.811  0.00  0.00    +0.046 A 
ATOM     29  C   UNL     1      -4.991   3.161  24.479  0.00  0.00    +0.046 A 
ATOM     30  C   UNL     1      -5.344   3.089  25.827  0.00  0.00    +0.120 A 
BRANCH  30   4
ATOM      4  O   UNL     1      -6.599   2.701  26.183  0.00  0.00    -0.495 OA
ATOM     31  C   UNL     1      -6.716   1.496  26.938  0.00  0.00    +0.277 C 
ENDBRANCH  30   4
ENDBRANCH  15  21
BRANCH   7  12
ATOM     12  C   UNL     1      -0.403   0.642  24.968  0.00  0.00    +0.061 C 
BRANCH  12  14
ATOM      6  N   UNL     1      -0.083  -1.702  25.380  0.00  0.00    -0.287 NA
ATOM     14  C   UNL     1      -0.917  -0.776  25.041  0.00  0.00    +0.044 C 
ATOM     17  C   UNL     1      -2.343  -1.037  24.716  0.00  0.00    -0.001 A 
ATOM     18  C   UNL     1      -2.690  -2.361  24.417  0.00  0.00    -0.037 A 
ATOM     19  C   UNL     1      -1.614  -3.407  24.428  0.00  0.00    +0.059 C 
ATOM     20  C   UNL     1      -0.596  -3.070  25.510  0.00  0.00    +0.146 C 
ATOM     22  C   UNL     1      -3.308  -0.028  24.689  0.00  0.00    +0.010 A 
ATOM     23  C   UNL     1      -4.007  -2.666  24.063  0.00  0.00    +0.004 A 
ATOM     26  C   UNL     1      -4.625  -0.346  24.350  0.00  0.00    +0.001 A 
ATOM     27  C   UNL     1      -4.973  -1.660  24.035  0.00  0.00    +0.000 A 
ENDBRANCH  12  14
ENDBRANCH   7  12
BRANCH   8  13
ATOM     13  C   UNL     1       2.182   0.322  23.380  0.00  0.00    +0.124 C 
BRANCH  13  16
ATOM      3  O   UNL     1       4.558   0.861  23.467  0.00  0.00    -0.251 OA
ATOM     16  C   UNL     1       3.543   0.641  22.824  0.00  0.00    +0.305 C 
BRANCH  16   2
ATOM      2  O   UNL     1       3.491   0.652  21.467  0.00  0.00    -0.481 OA
ATOM     32  H   UNL     1       2.667   1.068  21.136  0.00  0.00    +0.295 HD
ENDBRANCH  16   2
ENDBRANCH  13  16
ENDBRANCH   8  13
TORSDOF 7
ENDMDL
MODEL 2
REMARK VINA RESULT:       2.6      1.434      5.807
REMARK  Name = 51136687
REMARK  8 active torsions:
REMARK  status: ('A' for Active; 'I' for Inactive)
REMARK    1  A    between atoms: O_2  and  C_16
REMARK    2  A    between atoms: O_4  and  C_30
REMARK    3  A    between atoms: O_4  and  C_31
REMARK    4  A    between atoms: C_7  and  C_12
REMARK    5  A    between atoms: C_8  and  C_13
REMARK    6  A    between atoms: C_12  and  C_14
REMARK    7  A    between atoms: C_13  and  C_16
REMARK    8  A    between atoms: C_15  and  C_21
REMARK                            x       y       z     vdW  Elec       q    Type
REMARK                         _______ _______ _______ _____ _____    ______ ____
ROOT
ATOM      1  O   UNL     1       0.278   4.379  22.646  0.00  0.00    -0.270 OA
ATOM      5  N   UNL     1      -0.506   3.771  24.766  0.00  0.00    -0.297 N 
ATOM      7  C   UNL     1      -2.051   2.439  26.185  0.00  0.00    +0.016 C 
ATOM      8  C   UNL     1      -2.886   3.724  26.414  0.00  0.00    +0.006 C 
ATOM      9  C   UNL     1      -2.729   4.716  25.249  0.00  0.00    +0.023 C 
ATOM     10  C   UNL     1      -0.589   2.812  25.876  0.00  0.00    +0.112 C 
ATOM     11  C   UNL     1      -1.258   5.007  24.965  0.00  0.00    +0.108 C 
ATOM     15  C   UNL     1       0.210   3.582  23.580  0.00  0.00    +0.247 C 
ENDROOT
BRANCH  15  21
ATOM     21  C   UNL     1       0.953   2.328  23.416  0.00  0.00    +0.037 A 
ATOM     24  C   UNL     1       2.346   2.346  23.341  0.00  0.00    +0.016 A 
ATOM     25  C   UNL     1       0.266   1.117  23.331  0.00  0.00    +0.016 A 
ATOM     28  C   UNL     1       3.051   1.153  23.183  0.00  0.00    +0.046 A 
ATOM     29  C   UNL     1       0.971  -0.076  23.173  0.00  0.00    +0.046 A 
ATOM     30  C   UNL     1       2.364  -0.058  23.099  0.00  0.00    +0.120 A 
BRANCH  30   4
ATOM      4  O   UNL     1       3.053  -1.221  22.944  0.00  0.00    -0.495 OA
ATOM     31  C   UNL     1       4.246  -1.376  23.711  0.00  0.00    +0.277 C 
ENDBRANCH  30   4
ENDBRANCH  15  21
BRANCH   7  12
ATOM     12  C   UNL     1      -2.608   1.520  25.092  0.00  0.00    +0.061 C 
BRANCH  12  14
ATOM      6  N   UNL     1      -1.055  -0.063  26.013  0.00  0.00    -0.287 NA
ATOM     14  C   UNL     1      -2.130   0.105  25.318  0.00  0.00    +0.044 C 
ATOM     17  C   UNL     1      -2.907  -1.015  24.728  0.00  0.00    -0.001 A 
ATOM     18  C   UNL     1      -2.253  -2.249  24.618  0.00  0.00    -0.037 A 
ATOM     19  C   UNL     1      -0.829  -2.352  25.081  0.00  0.00    +0.059 C 
ATOM     20  C   UNL     1      -0.623  -1.439  26.283  0.00  0.00    +0.146 C 
ATOM     22  C   UNL     1      -4.223  -0.869  24.283  0.00  0.00    +0.010 A 
ATOM     23  C   UNL     1      -2.916  -3.332  24.035  0.00  0.00    +0.004 A 
ATOM     26  C   UNL     1      -4.882  -1.962  23.717  0.00  0.00    +0.001 A 
ATOM     27  C   UNL     1      -4.230  -3.188  23.590  0.00  0.00    +0.000 A 
ENDBRANCH  12  14
ENDBRANCH   7  12
BRANCH   8  13
ATOM     13  C   UNL     1      -4.363   3.440  26.685  0.00  0.00    +0.124 C 
BRANCH  13  16
ATOM      3  O   UNL     1      -5.034   2.979  24.388  0.00  0.00    -0.251 OA
ATOM     16  C   UNL     1      -5.193   3.580  25.438  0.00  0.00    +0.305 C 
BRANCH  16   2
ATOM      2  O   UNL     1      -6.175   4.496  25.643  0.00  0.00    -0.481 OA
ATOM     32  H   UNL     1      -6.235   5.139  24.904  0.00  0.00    +0.295 HD
ENDBRANCH  16   2
ENDBRANCH  13  16
ENDBRANCH   8  13
TORSDOF 7
ENDMDL
MODEL 3
REMARK VINA RESULT:       2.8      1.852      4.734
REMARK  Name = 51136687
REMARK  8 active torsions:
REMARK  status: ('A' for Active; 'I' for Inactive)
REMARK    1  A    between atoms: O_2  and  C_16
REMARK    2  A    between atoms: O_4  and  C_30
REMARK    3  A    between atoms: O_4  and  C_31
REMARK    4  A    between atoms: C_7  and  C_12
REMARK    5  A    between atoms: C_8  and  C_13
REMARK    6  A    between atoms: C_12  and  C_14
REMARK    7  A    between atoms: C_13  and  C_16
REMARK    8  A    between atoms: C_15  and  C_21
REMARK                            x       y       z     vdW  Elec       q    Type
REMARK                         _______ _______ _______ _____ _____    ______ ____
ROOT
ATOM      1  O   UNL     1      -3.639  -2.082  25.242  0.00  0.00    -0.270 OA
ATOM      5  N   UNL     1      -1.716  -0.750  25.178  0.00  0.00    -0.297 N 
ATOM      7  C   UNL     1      -0.202   0.780  23.936  0.00  0.00    +0.016 C 
ATOM      8  C   UNL     1       0.794  -0.397  23.778  0.00  0.00    +0.006 C 
ATOM      9  C   UNL     1       0.075  -1.756  23.818  0.00  0.00    +0.023 C 
ATOM     10  C   UNL     1      -1.068   0.569  25.192  0.00  0.00    +0.112 C 
ATOM     11  C   UNL     1      -0.800  -1.882  25.062  0.00  0.00    +0.108 C 
ATOM     15  C   UNL     1      -3.092  -0.981  25.259  0.00  0.00    +0.247 C 
ENDROOT
BRANCH  15  21
ATOM     21  C   UNL     1      -3.980   0.182  25.374  0.00  0.00    +0.037 A 
ATOM     24  C   UNL     1      -3.520   1.355  25.971  0.00  0.00    +0.016 A 
ATOM     25  C   UNL     1      -5.286   0.112  24.888  0.00  0.00    +0.016 A 
ATOM     28  C   UNL     1      -4.365   2.459  26.082  0.00  0.00    +0.046 A 
ATOM     29  C   UNL     1      -6.131   1.216  24.998  0.00  0.00    +0.046 A 
ATOM     30  C   UNL     1      -5.671   2.389  25.596  0.00  0.00    +0.120 A 
BRANCH  30   4
ATOM      4  O   UNL     1      -6.496   3.467  25.704  0.00  0.00    -0.495 OA
ATOM     31  C   UNL     1      -5.885   4.756  25.677  0.00  0.00    +0.277 C 
ENDBRANCH  30   4
ENDBRANCH  15  21
BRANCH   7  12
ATOM     12  C   UNL     1      -1.091   1.013  22.709  0.00  0.00    +0.061 C 
BRANCH  12  14
ATOM      6  N   UNL     1      -3.312   1.909  22.546  0.00  0.00    -0.287 NA
ATOM     14  C   UNL     1      -2.120   2.074  23.014  0.00  0.00    +0.044 C 
ATOM     17  C   UNL     1      -1.714   3.252  23.823  0.00  0.00    -0.001 A 
ATOM     18  C   UNL     1      -2.547   4.377  23.763  0.00  0.00    -0.037 A 
ATOM     19  C   UNL     1      -3.764   4.325  22.887  0.00  0.00    +0.059 C 
ATOM     20  C   UNL     1      -4.328   2.910  22.892  0.00  0.00    +0.146 C 
ATOM     22  C   UNL     1      -0.556   3.269  24.603  0.00  0.00    +0.010 A 
ATOM     23  C   UNL     1      -2.199   5.532  24.469  0.00  0.00    +0.004 A 
ATOM     26  C   UNL     1      -0.226   4.422  25.318  0.00  0.00    +0.001 A 
ATOM     27  C   UNL     1      -1.043   5.551  25.249  0.00  0.00    +0.000 A 
ENDBRANCH  12  14
ENDBRANCH   7  12
BRANCH   8  13
ATOM     13  C   UNL     1       1.664  -0.284  22.527  0.00  0.00    +0.124 C 
BRANCH  13  16
ATOM      3  O   UNL     1       3.686   1.073  22.637  0.00  0.00    -0.251 OA
ATOM     16  C   UNL     1       3.094   0.031  22.872  0.00  0.00    +0.305 C 
BRANCH  16   2
ATOM      2  O   UNL     1       3.658  -1.033  23.500  0.00  0.00    -0.481 OA
ATOM     32  H   UNL     1       3.992  -1.700  22.863  0.00  0.00    +0.295 HD
ENDBRANCH  16   2
ENDBRANCH  13  16
ENDBRANCH   8  13
TORSDOF 7
ENDMDL
MODEL 4
REMARK VINA RESULT:       3.2      1.865      4.691
REMARK  Name = 51136687
REMARK  8 active torsions:
REMARK  status: ('A' for Active; 'I' for Inactive)
REMARK    1  A    between atoms: O_2  and  C_16
REMARK    2  A    between atoms: O_4  and  C_30
REMARK    3  A    between atoms: O_4  and  C_31
REMARK    4  A    between atoms: C_7  and  C_12
REMARK    5  A    between atoms: C_8  and  C_13
REMARK    6  A    between atoms: C_12  and  C_14
REMARK    7  A    between atoms: C_13  and  C_16
REMARK    8  A    between atoms: C_15  and  C_21
REMARK                            x       y       z     vdW  Elec       q    Type
REMARK                         _______ _______ _______ _____ _____    ______ ____
ROOT
ATOM      1  O   UNL     1      -4.691  -2.075  23.876  0.00  0.00    -0.270 OA
ATOM      5  N   UNL     1      -2.711  -1.490  24.976  0.00  0.00    -0.297 N 
ATOM      7  C   UNL     1      -0.574  -0.221  25.026  0.00  0.00    +0.016 C 
ATOM      8  C   UNL     1       0.172  -1.542  24.708  0.00  0.00    +0.006 C 
ATOM      9  C   UNL     1      -0.728  -2.532  23.950  0.00  0.00    +0.023 C 
ATOM     10  C   UNL     1      -1.904  -0.530  25.741  0.00  0.00    +0.112 C 
ATOM     11  C   UNL     1      -2.045  -2.758  24.687  0.00  0.00    +0.108 C 
ATOM     15  C   UNL     1      -4.015  -1.276  24.521  0.00  0.00    +0.247 C 
ENDROOT
BRANCH  15  21
ATOM     21  C   UNL     1      -4.650   0.010  24.830  0.00  0.00    +0.037 A 
ATOM     24  C   UNL     1      -4.012   0.917  25.676  0.00  0.00    +0.016 A 
ATOM     25  C   UNL     1      -5.893   0.323  24.280  0.00  0.00    +0.016 A 
ATOM     28  C   UNL     1      -4.617   2.139  25.971  0.00  0.00    +0.046 A 
ATOM     29  C   UNL     1      -6.498   1.545  24.575  0.00  0.00    +0.046 A 
ATOM     30  C   UNL     1      -5.860   2.453  25.421  0.00  0.00    +0.120 A 
BRANCH  30   4
ATOM      4  O   UNL     1      -6.450   3.645  25.709  0.00  0.00    -0.495 OA
ATOM     31  C   UNL     1      -5.587   4.740  26.010  0.00  0.00    +0.277 C 
ENDBRANCH  30   4
ENDBRANCH  15  21
BRANCH   7  12
ATOM     12  C   UNL     1      -0.822   0.665  23.801  0.00  0.00    +0.061 C 
BRANCH  12  14
ATOM      6  N   UNL     1      -0.015   2.580  25.004  0.00  0.00    -0.287 NA
ATOM     14  C   UNL     1      -0.932   2.110  24.226  0.00  0.00    +0.044 C 
ATOM     17  C   UNL     1      -2.084   2.913  23.740  0.00  0.00    -0.001 A 
ATOM     18  C   UNL     1      -2.371   4.092  24.438  0.00  0.00    -0.037 A 
ATOM     19  C   UNL     1      -1.521   4.453  25.621  0.00  0.00    +0.059 C 
ATOM     20  C   UNL     1      -0.089   3.999  25.369  0.00  0.00    +0.146 C 
ATOM     22  C   UNL     1      -2.868   2.525  22.651  0.00  0.00    +0.010 A 
ATOM     23  C   UNL     1      -3.466   4.872  24.056  0.00  0.00    +0.004 A 
ATOM     26  C   UNL     1      -3.950   3.319  22.266  0.00  0.00    +0.001 A 
ATOM     27  C   UNL     1      -4.250   4.487  22.968  0.00  0.00    +0.000 A 
ENDBRANCH  12  14
ENDBRANCH   7  12
BRANCH   8  13
ATOM     13  C   UNL     1       1.486  -1.324  23.958  0.00  0.00    +0.124 C 
BRANCH  13  16
ATOM      3  O   UNL     1       0.703  -0.458  21.818  0.00  0.00    -0.251 OA
ATOM     16  C   UNL     1       1.333  -0.313  22.855  0.00  0.00    +0.305 C 
BRANCH  16   2
ATOM      2  O   UNL     1       2.011   0.820  23.175  0.00  0.00    -0.481 OA
ATOM     32  H   UNL     1       2.675   1.054  22.491  0.00  0.00    +0.295 HD
ENDBRANCH  16   2
ENDBRANCH  13  16
ENDBRANCH   8  13
TORSDOF 7
ENDMDL
MODEL 5
REMARK VINA RESULT:       3.5      1.768      4.599
REMARK  Name = 51136687
REMARK  8 active torsions:
REMARK  status: ('A' for Active; 'I' for Inactive)
REMARK    1  A    between atoms: O_2  and  C_16
REMARK    2  A    between atoms: O_4  and  C_30
REMARK    3  A    between atoms: O_4  and  C_31
REMARK    4  A    between atoms: C_7  and  C_12
REMARK    5  A    between atoms: C_8  and  C_13
REMARK    6  A    between atoms: C_12  and  C_14
REMARK    7  A    between atoms: C_13  and  C_16
REMARK    8  A    between atoms: C_15  and  C_21
REMARK                            x       y       z     vdW  Elec       q    Type
REMARK                         _______ _______ _______ _____ _____    ______ ____
ROOT
ATOM      1  O   UNL     1      -2.068  -2.623  23.401  0.00  0.00    -0.270 OA
ATOM      5  N   UNL     1      -0.597  -1.106  24.406  0.00  0.00    -0.297 N 
ATOM      7  C   UNL     1       0.496   1.126  24.444  0.00  0.00    +0.016 C 
ATOM      8  C   UNL     1       1.790   0.457  23.913  0.00  0.00    +0.006 C 
ATOM      9  C   UNL     1       1.480  -0.819  23.113  0.00  0.00    +0.023 C 
ATOM     10  C   UNL     1      -0.348   0.094  25.217  0.00  0.00    +0.112 C 
ATOM     11  C   UNL     1       0.605  -1.777  23.917  0.00  0.00    +0.108 C 
ATOM     15  C   UNL     1      -1.854  -1.622  24.083  0.00  0.00    +0.247 C 
ENDROOT
BRANCH  15  21
ATOM     21  C   UNL     1      -3.039  -0.921  24.591  0.00  0.00    +0.037 A 
ATOM     24  C   UNL     1      -4.269  -1.077  23.953  0.00  0.00    +0.016 A 
ATOM     25  C   UNL     1      -2.933  -0.096  25.711  0.00  0.00    +0.016 A 
ATOM     28  C   UNL     1      -5.395  -0.408  24.436  0.00  0.00    +0.046 A 
ATOM     29  C   UNL     1      -4.058   0.573  26.194  0.00  0.00    +0.046 A 
ATOM     30  C   UNL     1      -5.289   0.417  25.556  0.00  0.00    +0.120 A 
BRANCH  30   4
ATOM      4  O   UNL     1      -6.387   1.069  26.027  0.00  0.00    -0.495 OA
ATOM     31  C   UNL     1      -6.171   2.076  27.014  0.00  0.00    +0.277 C 
ENDBRANCH  30   4
ENDBRANCH  15  21
BRANCH   7  12
ATOM     12  C   UNL     1      -0.350   1.797  23.355  0.00  0.00    +0.061 C 
BRANCH  12  14
ATOM      6  N   UNL     1      -0.123   3.994  24.296  0.00  0.00    -0.287 NA
ATOM     14  C   UNL     1      -0.939   3.083  23.884  0.00  0.00    +0.044 C 
ATOM     17  C   UNL     1      -2.417   3.234  23.911  0.00  0.00    -0.001 A 
ATOM     18  C   UNL     1      -2.933   4.237  24.741  0.00  0.00    -0.037 A 
ATOM     19  C   UNL     1      -1.978   5.068  25.546  0.00  0.00    +0.059 C 
ATOM     20  C   UNL     1      -0.693   5.267  24.753  0.00  0.00    +0.146 C 
ATOM     22  C   UNL     1      -3.273   2.419  23.168  0.00  0.00    +0.010 A 
ATOM     23  C   UNL     1      -4.318   4.404  24.843  0.00  0.00    +0.004 A 
ATOM     26  C   UNL     1      -4.653   2.605  23.263  0.00  0.00    +0.001 A 
ATOM     27  C   UNL     1      -5.174   3.592  24.101  0.00  0.00    +0.000 A 
ENDBRANCH  12  14
ENDBRANCH   7  12
BRANCH   8  13
ATOM     13  C   UNL     1       2.664   1.407  23.095  0.00  0.00    +0.124 C 
BRANCH  13  16
ATOM      3  O   UNL     1       4.855   0.368  23.345  0.00  0.00    -0.251 OA
ATOM     16  C   UNL     1       3.932   0.739  22.637  0.00  0.00    +0.305 C 
BRANCH  16   2
ATOM      2  O   UNL     1       3.912   0.599  21.286  0.00  0.00    -0.481 OA
ATOM     32  H   UNL     1       4.015  -0.338  21.014  0.00  0.00    +0.295 HD
ENDBRANCH  16   2
ENDBRANCH  13  16
ENDBRANCH   8  13
TORSDOF 7
ENDMDL
MODEL 6
REMARK VINA RESULT:       3.8      1.989      7.645
REMARK  Name = 51136687
REMARK  8 active torsions:
REMARK  status: ('A' for Active; 'I' for Inactive)
REMARK    1  A    between atoms: O_2  and  C_16
REMARK    2  A    between atoms: O_4  and  C_30
REMARK    3  A    between atoms: O_4  and  C_31
REMARK    4  A    between atoms: C_7  and  C_12
REMARK    5  A    between atoms: C_8  and  C_13
REMARK    6  A    between atoms: C_12  and  C_14
REMARK    7  A    between atoms: C_13  and  C_16
REMARK    8  A    between atoms: C_15  and  C_21
REMARK                            x       y       z     vdW  Elec       q    Type
REMARK                         _______ _______ _______ _____ _____    ______ ____
ROOT
ATOM      1  O   UNL     1      -1.176  -2.970  23.997  0.00  0.00    -0.270 OA
ATOM      5  N   UNL     1      -2.561  -1.128  23.589  0.00  0.00    -0.297 N 
ATOM      7  C   UNL     1      -3.496   1.059  24.309  0.00  0.00    +0.016 C 
ATOM      8  C   UNL     1      -4.821   0.334  24.657  0.00  0.00    +0.006 C 
ATOM      9  C   UNL     1      -4.583  -1.147  24.997  0.00  0.00    +0.023 C 
ATOM     10  C   UNL     1      -2.745   0.280  23.213  0.00  0.00    +0.112 C 
ATOM     11  C   UNL     1      -3.796  -1.848  23.893  0.00  0.00    +0.108 C 
ATOM     15  C   UNL     1      -1.335  -1.793  23.677  0.00  0.00    +0.247 C 
ENDROOT
BRANCH  15  21
ATOM     21  C   UNL     1      -0.117  -1.037  23.365  0.00  0.00    +0.037 A 
ATOM     24  C   UNL     1       0.426  -1.089  22.081  0.00  0.00    +0.016 A 
ATOM     25  C   UNL     1       0.499  -0.269  24.353  0.00  0.00    +0.016 A 
ATOM     28  C   UNL     1       1.585  -0.371  21.785  0.00  0.00    +0.046 A 
ATOM     29  C   UNL     1       1.658   0.449  24.057  0.00  0.00    +0.046 A 
ATOM     30  C   UNL     1       2.201   0.397  22.773  0.00  0.00    +0.120 A 
BRANCH  30   4
ATOM      4  O   UNL     1       3.332   1.097  22.483  0.00  0.00    -0.495 OA
ATOM     31  C   UNL     1       4.552   0.621  23.050  0.00  0.00    +0.277 C 
ENDBRANCH  30   4
ENDBRANCH  15  21
BRANCH   7  12
ATOM     12  C   UNL     1      -2.581   1.297  25.515  0.00  0.00    +0.061 C 
BRANCH  12  14
ATOM      6  N   UNL     1      -3.301   3.251  26.711  0.00  0.00    -0.287 NA
ATOM     14  C   UNL     1      -2.502   2.775  25.815  0.00  0.00    +0.044 C 
ATOM     17  C   UNL     1      -1.522   3.606  25.068  0.00  0.00    -0.001 A 
ATOM     18  C   UNL     1      -1.732   4.990  25.078  0.00  0.00    -0.037 A 
ATOM     19  C   UNL     1      -2.919   5.534  25.816  0.00  0.00    +0.059 C 
ATOM     20  C   UNL     1      -3.184   4.675  27.045  0.00  0.00    +0.146 C 
ATOM     22  C   UNL     1      -0.445   3.057  24.369  0.00  0.00    +0.010 A 
ATOM     23  C   UNL     1      -0.869   5.824  24.360  0.00  0.00    +0.004 A 
ATOM     26  C   UNL     1       0.421   3.899  23.669  0.00  0.00    +0.001 A 
ATOM     27  C   UNL     1       0.208   5.278  23.662  0.00  0.00    +0.000 A 
ENDBRANCH  12  14
ENDBRANCH   7  12
BRANCH   8  13
ATOM     13  C   UNL     1      -5.608   1.023  25.772  0.00  0.00    +0.124 C 
BRANCH  13  16
ATOM      3  O   UNL     1      -6.002   3.408  25.463  0.00  0.00    -0.251 OA
ATOM     16  C   UNL     1      -6.325   2.246  25.270  0.00  0.00    +0.305 C 
BRANCH  16   2
ATOM      2  O   UNL     1      -7.415   1.875  24.550  0.00  0.00    -0.481 OA
ATOM     32  H   UNL     1      -8.010   1.288  25.063  0.00  0.00    +0.295 HD
ENDBRANCH  16   2
ENDBRANCH  13  16
ENDBRANCH   8  13
TORSDOF 7
ENDMDL
MODEL 7
REMARK VINA RESULT:       4.2      1.182      1.900
REMARK  Name = 51136687
REMARK  8 active torsions:
REMARK  status: ('A' for Active; 'I' for Inactive)
REMARK    1  A    between atoms: O_2  and  C_16
REMARK    2  A    between atoms: O_4  and  C_30
REMARK    3  A    between atoms: O_4  and  C_31
REMARK    4  A    between atoms: C_7  and  C_12
REMARK    5  A    between atoms: C_8  and  C_13
REMARK    6  A    between atoms: C_12  and  C_14
REMARK    7  A    between atoms: C_13  and  C_16
REMARK    8  A    between atoms: C_15  and  C_21
REMARK                            x       y       z     vdW  Elec       q    Type
REMARK                         _______ _______ _______ _____ _____    ______ ____
ROOT
ATOM      1  O   UNL     1      -0.324   5.043  25.003  0.00  0.00    -0.270 OA
ATOM      5  N   UNL     1      -0.253   3.135  23.650  0.00  0.00    -0.297 N 
ATOM      7  C   UNL     1      -0.140   0.663  23.425  0.00  0.00    +0.016 C 
ATOM      8  C   UNL     1       1.355   0.805  23.038  0.00  0.00    +0.006 C 
ATOM      9  C   UNL     1       1.974   2.081  23.634  0.00  0.00    +0.023 C 
ATOM     10  C   UNL     1      -0.900   1.953  23.064  0.00  0.00    +0.112 C 
ATOM     11  C   UNL     1       1.149   3.314  23.278  0.00  0.00    +0.108 C 
ATOM     15  C   UNL     1      -0.863   4.056  24.506  0.00  0.00    +0.247 C 
ENDROOT
BRANCH  15  21
ATOM     21  C   UNL     1      -2.271   3.842  24.857  0.00  0.00    +0.037 A 
ATOM     24  C   UNL     1      -2.705   4.061  26.165  0.00  0.00    +0.016 A 
ATOM     25  C   UNL     1      -3.175   3.416  23.884  0.00  0.00    +0.016 A 
ATOM     28  C   UNL     1      -4.044   3.856  26.498  0.00  0.00    +0.046 A 
ATOM     29  C   UNL     1      -4.514   3.211  24.218  0.00  0.00    +0.046 A 
ATOM     30  C   UNL     1      -4.948   3.431  25.525  0.00  0.00    +0.120 A 
BRANCH  30   4
ATOM      4  O   UNL     1      -6.255   3.230  25.852  0.00  0.00    -0.495 OA
ATOM     31  C   UNL     1      -6.889   2.074  25.309  0.00  0.00    +0.277 C 
ENDBRANCH  30   4
ENDBRANCH  15  21
BRANCH   7  12
ATOM     12  C   UNL     1      -0.371   0.302  24.897  0.00  0.00    +0.061 C 
BRANCH  12  14
ATOM      6  N   UNL     1      -2.614   0.652  25.677  0.00  0.00    -0.287 NA
ATOM     14  C   UNL     1      -1.795  -0.159  25.095  0.00  0.00    +0.044 C 
ATOM     17  C   UNL     1      -2.180  -1.514  24.624  0.00  0.00    -0.001 A 
ATOM     18  C   UNL     1      -3.359  -2.055  25.154  0.00  0.00    -0.037 A 
ATOM     19  C   UNL     1      -4.133  -1.251  26.157  0.00  0.00    +0.059 C 
ATOM     20  C   UNL     1      -4.012   0.229  25.816  0.00  0.00    +0.146 C 
ATOM     22  C   UNL     1      -1.415  -2.241  23.710  0.00  0.00    +0.010 A 
ATOM     23  C   UNL     1      -3.755  -3.342  24.781  0.00  0.00    +0.004 A 
ATOM     26  C   UNL     1      -1.829  -3.519  23.332  0.00  0.00    +0.001 A 
ATOM     27  C   UNL     1      -2.993  -4.070  23.868  0.00  0.00    +0.000 A 
ENDBRANCH  12  14
ENDBRANCH   7  12
BRANCH   8  13
ATOM     13  C   UNL     1       2.189  -0.421  23.404  0.00  0.00    +0.124 C 
BRANCH  13  16
ATOM      3  O   UNL     1       4.110   0.576  22.282  0.00  0.00    -0.251 OA
ATOM     16  C   UNL     1       3.645  -0.216  23.087  0.00  0.00    +0.305 C 
BRANCH  16   2
ATOM      2  O   UNL     1       4.400  -1.057  23.841  0.00  0.00    -0.481 OA
ATOM     32  H   UNL     1       4.571  -1.907  23.381  0.00  0.00    +0.295 HD
ENDBRANCH  16   2
ENDBRANCH  13  16
ENDBRANCH   8  13
TORSDOF 7
ENDMDL
MODEL 8
REMARK VINA RESULT:       4.6      2.584      5.339
REMARK  Name = 51136687
REMARK  8 active torsions:
REMARK  status: ('A' for Active; 'I' for Inactive)
REMARK    1  A    between atoms: O_2  and  C_16
REMARK    2  A    between atoms: O_4  and  C_30
REMARK    3  A    between atoms: O_4  and  C_31
REMARK    4  A    between atoms: C_7  and  C_12
REMARK    5  A    between atoms: C_8  and  C_13
REMARK    6  A    between atoms: C_12  and  C_14
REMARK    7  A    between atoms: C_13  and  C_16
REMARK    8  A    between atoms: C_15  and  C_21
REMARK                            x       y       z     vdW  Elec       q    Type
REMARK                         _______ _______ _______ _____ _____    ______ ____
ROOT
ATOM      1  O   UNL     1       0.155   1.215  27.431  0.00  0.00    -0.270 OA
ATOM      5  N   UNL     1      -0.236   0.368  25.285  0.00  0.00    -0.297 N 
ATOM      7  C   UNL     1      -1.817  -0.468  23.560  0.00  0.00    +0.016 C 
ATOM      8  C   UNL     1      -1.338  -1.909  23.875  0.00  0.00    +0.006 C 
ATOM      9  C   UNL     1      -0.812  -2.027  25.315  0.00  0.00    +0.023 C 
ATOM     10  C   UNL     1      -0.706   0.541  23.904  0.00  0.00    +0.112 C 
ATOM     11  C   UNL     1       0.252  -0.972  25.604  0.00  0.00    +0.108 C 
ATOM     15  C   UNL     1      -0.232   1.357  26.273  0.00  0.00    +0.247 C 
ENDROOT
BRANCH  15  21
ATOM     21  C   UNL     1      -0.730   2.690  25.915  0.00  0.00    +0.037 A 
ATOM     24  C   UNL     1      -1.871   3.198  26.537  0.00  0.00    +0.016 A 
ATOM     25  C   UNL     1      -0.065   3.447  24.951  0.00  0.00    +0.016 A 
ATOM     28  C   UNL     1      -2.346   4.464  26.195  0.00  0.00    +0.046 A 
ATOM     29  C   UNL     1      -0.540   4.714  24.609  0.00  0.00    +0.046 A 
ATOM     30  C   UNL     1      -1.680   5.222  25.231  0.00  0.00    +0.120 A 
BRANCH  30   4
ATOM      4  O   UNL     1      -2.144   6.458  24.898  0.00  0.00    -0.495 OA
ATOM     31  C   UNL     1      -2.473   6.679  23.528  0.00  0.00    +0.277 C 
ENDBRANCH  30   4
ENDBRANCH  15  21
BRANCH   7  12
ATOM     12  C   UNL     1      -3.124  -0.080  24.260  0.00  0.00    +0.061 C 
BRANCH  12  14
ATOM      6  N   UNL     1      -3.102   1.699  22.648  0.00  0.00    -0.287 NA
ATOM     14  C   UNL     1      -3.596   1.263  23.759  0.00  0.00    +0.044 C 
ATOM     17  C   UNL     1      -4.592   2.018  24.563  0.00  0.00    -0.001 A 
ATOM     18  C   UNL     1      -4.714   3.387  24.293  0.00  0.00    -0.037 A 
ATOM     19  C   UNL     1      -3.836   3.994  23.239  0.00  0.00    +0.059 C 
ATOM     20  C   UNL     1      -3.604   2.976  22.130  0.00  0.00    +0.146 C 
ATOM     22  C   UNL     1      -5.370   1.419  25.556  0.00  0.00    +0.010 A 
ATOM     23  C   UNL     1      -5.605   4.161  25.042  0.00  0.00    +0.004 A 
ATOM     26  C   UNL     1      -6.268   2.198  26.288  0.00  0.00    +0.001 A 
ATOM     27  C   UNL     1      -6.383   3.565  26.034  0.00  0.00    +0.000 A 
ENDBRANCH  12  14
ENDBRANCH   7  12
BRANCH   8  13
ATOM     13  C   UNL     1      -2.403  -2.970  23.601  0.00  0.00    +0.124 C 
BRANCH  13  16
ATOM      3  O   UNL     1      -3.583  -2.865  25.731  0.00  0.00    -0.251 OA
ATOM     16  C   UNL     1      -3.590  -2.812  24.511  0.00  0.00    +0.305 C 
BRANCH  16   2
ATOM      2  O   UNL     1      -4.708  -2.597  23.771  0.00  0.00    -0.481 OA
ATOM     32  H   UNL     1      -4.584  -2.863  22.835  0.00  0.00    +0.295 HD
ENDBRANCH  16   2
ENDBRANCH  13  16
ENDBRANCH   8  13
TORSDOF 7
ENDMDL
MODEL 9
REMARK VINA RESULT:       4.9      1.546      6.131
REMARK  Name = 51136687
REMARK  8 active torsions:
REMARK  status: ('A' for Active; 'I' for Inactive)
REMARK    1  A    between atoms: O_2  and  C_16
REMARK    2  A    between atoms: O_4  and  C_30
REMARK    3  A    between atoms: O_4  and  C_31
REMARK    4  A    between atoms: C_7  and  C_12
REMARK    5  A    between atoms: C_8  and  C_13
REMARK    6  A    between atoms: C_12  and  C_14
REMARK    7  A    between atoms: C_13  and  C_16
REMARK    8  A    between atoms: C_15  and  C_21
REMARK                            x       y       z     vdW  Elec       q    Type
REMARK                         _______ _______ _______ _____ _____    ______ ____
ROOT
ATOM      1  O   UNL     1       0.187   4.560  23.222  0.00  0.00    -0.270 OA
ATOM      5  N   UNL     1      -1.172   3.431  24.756  0.00  0.00    -0.297 N 
ATOM      7  C   UNL     1      -3.030   1.848  25.224  0.00  0.00    +0.016 C 
ATOM      8  C   UNL     1      -3.932   3.066  25.554  0.00  0.00    +0.006 C 
ATOM      9  C   UNL     1      -3.464   4.332  24.817  0.00  0.00    +0.023 C 
ATOM     10  C   UNL     1      -1.553   2.206  25.474  0.00  0.00    +0.112 C 
ATOM     11  C   UNL     1      -1.984   4.604  25.070  0.00  0.00    +0.108 C 
ATOM     15  C   UNL     1      -0.132   3.539  23.829  0.00  0.00    +0.247 C 
ENDROOT
BRANCH  15  21
ATOM     21  C   UNL     1       0.660   2.339  23.539  0.00  0.00    +0.037 A 
ATOM     24  C   UNL     1       2.016   2.302  23.866  0.00  0.00    +0.016 A 
ATOM     25  C   UNL     1       0.059   1.236  22.934  0.00  0.00    +0.016 A 
ATOM     28  C   UNL     1       2.770   1.162  23.588  0.00  0.00    +0.046 A 
ATOM     29  C   UNL     1       0.812   0.095  22.656  0.00  0.00    +0.046 A 
ATOM     30  C   UNL     1       2.168   0.058  22.983  0.00  0.00    +0.120 A 
BRANCH  30   4
ATOM      4  O   UNL     1       2.904  -1.054  22.713  0.00  0.00    -0.495 OA
ATOM     31  C   UNL     1       4.050  -1.289  23.530  0.00  0.00    +0.277 C 
ENDBRANCH  30   4
ENDBRANCH  15  21
BRANCH   7  12
ATOM     12  C   UNL     1      -3.213   1.306  23.802  0.00  0.00    +0.061 C 
BRANCH  12  14
ATOM      6  N   UNL     1      -4.460  -0.690  23.327  0.00  0.00    -0.287 NA
ATOM     14  C   UNL     1      -3.386  -0.194  23.843  0.00  0.00    +0.044 C 
ATOM     17  C   UNL     1      -2.325  -1.019  24.476  0.00  0.00    -0.001 A 
ATOM     18  C   UNL     1      -2.676  -2.324  24.845  0.00  0.00    -0.037 A 
ATOM     19  C   UNL     1      -4.080  -2.790  24.594  0.00  0.00    +0.059 C 
ATOM     20  C   UNL     1      -4.601  -2.151  23.313  0.00  0.00    +0.146 C 
ATOM     22  C   UNL     1      -1.037  -0.536  24.718  0.00  0.00    +0.010 A 
ATOM     23  C   UNL     1      -1.735  -3.138  25.481  0.00  0.00    +0.004 A 
ATOM     26  C   UNL     1      -0.100  -1.363  25.340  0.00  0.00    +0.001 A 
ATOM     27  C   UNL     1      -0.448  -2.658  25.724  0.00  0.00    +0.000 A 
ENDBRANCH  12  14
ENDBRANCH   7  12
BRANCH   8  13
ATOM     13  C   UNL     1      -5.414   2.805  25.290  0.00  0.00    +0.124 C 
BRANCH  13  16
ATOM      3  O   UNL     1      -5.849   0.509  25.983  0.00  0.00    -0.251 OA
ATOM     16  C   UNL     1      -5.950   1.711  26.172  0.00  0.00    +0.305 C 
BRANCH  16   2
ATOM      2  O   UNL     1      -6.585   2.256  27.243  0.00  0.00    -0.481 OA
ATOM     32  H   UNL     1      -6.233   3.145  27.462  0.00  0.00    +0.295 HD
ENDBRANCH  16   2
ENDBRANCH  13  16
ENDBRANCH   8  13
TORSDOF 7
ENDMDL
MODEL 10
REMARK VINA RESULT:       5.0      1.936      7.416
REMARK  Name = 51136687
REMARK  8 active torsions:
REMARK  status: ('A' for Active; 'I' for Inactive)
REMARK    1  A    between atoms: O_2  and  C_16
REMARK    2  A    between atoms: O_4  and  C_30
REMARK    3  A    between atoms: O_4  and  C_31
REMARK    4  A    between atoms: C_7  and  C_12
REMARK    5  A    between atoms: C_8  and  C_13
REMARK    6  A    between atoms: C_12  and  C_14
REMARK    7  A    between atoms: C_13  and  C_16
REMARK    8  A    between atoms: C_15  and  C_21
REMARK                            x       y       z     vdW  Elec       q    Type
REMARK                         _______ _______ _______ _____ _____    ______ ____
ROOT
ATOM      1  O   UNL     1      -1.102  -3.300  24.290  0.00  0.00    -0.270 OA
ATOM      5  N   UNL     1      -2.514  -1.490  23.838  0.00  0.00    -0.297 N 
ATOM      7  C   UNL     1      -3.442   0.724  24.481  0.00  0.00    +0.016 C 
ATOM      8  C   UNL     1      -4.750   0.009  24.906  0.00  0.00    +0.006 C 
ATOM      9  C   UNL     1      -4.489  -1.453  25.309  0.00  0.00    +0.023 C 
ATOM     10  C   UNL     1      -2.720  -0.102  23.400  0.00  0.00    +0.112 C 
ATOM     11  C   UNL     1      -3.732  -2.201  24.216  0.00  0.00    +0.108 C 
ATOM     15  C   UNL     1      -1.280  -2.142  23.919  0.00  0.00    +0.247 C 
ENDROOT
BRANCH  15  21
ATOM     21  C   UNL     1      -0.079  -1.394  23.531  0.00  0.00    +0.037 A 
ATOM     24  C   UNL     1       1.059  -1.437  24.337  0.00  0.00    +0.016 A 
ATOM     25  C   UNL     1      -0.076  -0.639  22.359  0.00  0.00    +0.016 A 
ATOM     28  C   UNL     1       2.201  -0.724  23.969  0.00  0.00    +0.046 A 
ATOM     29  C   UNL     1       1.066   0.074  21.991  0.00  0.00    +0.046 A 
ATOM     30  C   UNL     1       2.204   0.031  22.796  0.00  0.00    +0.120 A 
BRANCH  30   4
ATOM      4  O   UNL     1       3.318   0.727  22.438  0.00  0.00    -0.495 OA
ATOM     31  C   UNL     1       4.516   0.450  23.162  0.00  0.00    +0.277 C 
ENDBRANCH  30   4
ENDBRANCH  15  21
BRANCH   7  12
ATOM     12  C   UNL     1      -2.491   1.027  25.644  0.00  0.00    +0.061 C 
BRANCH  12  14
ATOM      6  N   UNL     1      -0.247   1.668  25.077  0.00  0.00    -0.287 NA
ATOM     14  C   UNL     1      -1.471   2.056  25.219  0.00  0.00    +0.044 C 
ATOM     17  C   UNL     1      -1.917   3.455  24.993  0.00  0.00    -0.001 A 
ATOM     18  C   UNL     1      -0.923   4.441  24.985  0.00  0.00    -0.037 A 
ATOM     19  C   UNL     1       0.501   4.030  25.216  0.00  0.00    +0.059 C 
ATOM     20  C   UNL     1       0.733   2.653  24.607  0.00  0.00    +0.146 C 
ATOM     22  C   UNL     1      -3.259   3.799  24.810  0.00  0.00    +0.010 A 
ATOM     23  C   UNL     1      -1.282   5.782  24.817  0.00  0.00    +0.004 A 
ATOM     26  C   UNL     1      -3.605   5.138  24.627  0.00  0.00    +0.001 A 
ATOM     27  C   UNL     1      -2.621   6.127  24.634  0.00  0.00    +0.000 A 
ENDBRANCH  12  14
ENDBRANCH   7  12
BRANCH   8  13
ATOM     13  C   UNL     1      -5.506   0.746  26.011  0.00  0.00    +0.124 C 
BRANCH  13  16
ATOM      3  O   UNL     1      -6.919   1.951  24.433  0.00  0.00    -0.251 OA
ATOM     16  C   UNL     1      -6.274   1.921  25.468  0.00  0.00    +0.305 C 
BRANCH  16   2
ATOM      2  O   UNL     1      -6.149   2.978  26.312  0.00  0.00    -0.481 OA
ATOM     32  H   UNL     1      -7.021   3.340  26.576  0.00  0.00    +0.295 HD
ENDBRANCH  16   2
ENDBRANCH  13  16
ENDBRANCH   8  13
TORSDOF 7
ENDMDL
