MODEL 1
REMARK VINA RESULT:       8.9      0.000      0.000
REMARK  Name = 11882069
REMARK  11 active torsions:
REMARK  status: ('A' for Active; 'I' for Inactive)
REMARK    1  A    between atoms: S_2  and  C_35
REMARK    2  A    between atoms: S_2  and  C_38
REMARK    3  A    between atoms: N_8  and  C_13
REMARK    4  A    between atoms: N_9  and  C_20
REMARK    5  A    between atoms: N_10  and  C_28
REMARK    6  A    between atoms: N_11  and  C_29
REMARK    7  A    between atoms: C_14  and  C_17
REMARK    8  A    between atoms: C_18  and  C_19
REMARK    9  A    between atoms: C_20  and  C_22
REMARK   10  A    between atoms: C_20  and  C_24
REMARK   11  A    between atoms: C_22  and  C_27
REMARK                            x       y       z     vdW  Elec       q    Type
REMARK                         _______ _______ _______ _____ _____    ______ ____
ROOT
ATOM      4  O   UNL     1      -2.110  -0.584  26.367  0.00  0.00    -0.268 OA
ATOM      7  N   UNL     1      -2.250   0.583  24.382  0.00  0.00    -0.283 N 
ATOM     13  C   UNL     1      -1.207   2.566  23.604  0.00  0.00    +0.105 C 
ATOM     14  C   UNL     1      -1.534   1.762  24.862  0.00  0.00    +0.182 C 
ATOM     15  C   UNL     1      -2.331   2.183  22.637  0.00  0.00    +0.043 C 
ATOM     16  C   UNL     1      -2.609   0.724  22.970  0.00  0.00    +0.111 C 
ATOM     18  C   UNL     1      -2.443  -0.547  25.182  0.00  0.00    +0.264 C 
ENDROOT
BRANCH  13   8
ATOM      5  O   UNL     1       0.668   0.737  24.762  0.00  0.00    -0.252 OA
ATOM      8  N   UNL     1       0.082   2.199  23.070  0.00  0.00    -0.294 N 
ATOM     11  N   UNL     1       2.113   1.134  22.955  0.00  0.00    -0.269 N 
ATOM     21  C   UNL     1       0.942   1.293  23.701  0.00  0.00    +0.304 C 
ATOM     39  H   UNL     1       0.354   2.563  22.162  0.00  0.00    +0.151 HD
ATOM     41  H   UNL     1       2.183   1.672  22.095  0.00  0.00    +0.156 HD
BRANCH  11  29
ATOM     29  C   UNL     1       3.226   0.311  23.250  0.00  0.00    +0.036 A 
ATOM     31  C   UNL     1       4.506   0.862  23.303  0.00  0.00    +0.038 A 
ATOM     32  C   UNL     1       3.041  -1.051  23.487  0.00  0.00    +0.023 A 
ATOM     35  C   UNL     1       5.602   0.050  23.595  0.00  0.00    +0.009 A 
ATOM     36  C   UNL     1       4.137  -1.863  23.778  0.00  0.00    +0.003 A 
ATOM     37  C   UNL     1       5.417  -1.312  23.832  0.00  0.00    +0.015 A 
BRANCH  35   2
ATOM      2  S   UNL     1       7.239   0.752  23.666  0.00  0.00    -0.129 S 
ATOM     38  C   UNL     1       8.230  -0.543  22.870  0.00  0.00    +0.090 C 
ENDBRANCH  35   2
ENDBRANCH  11  29
ENDBRANCH  13   8
BRANCH  18  19
ATOM     10  N   UNL     1      -2.459  -2.854  24.209  0.00  0.00    -0.346 N 
ATOM     19  C   UNL     1      -3.093  -1.688  24.549  0.00  0.00    +0.104 A 
ATOM     23  C   UNL     1      -4.416  -1.805  24.184  0.00  0.00    +0.032 A 
ATOM     25  C   UNL     1      -3.358  -3.714  23.635  0.00  0.00    +0.086 A 
ATOM     26  C   UNL     1      -4.584  -3.087  23.605  0.00  0.00    +0.020 A 
ATOM     28  C   UNL     1      -1.059  -3.150  24.420  0.00  0.00    +0.149 C 
ENDBRANCH  18  19
BRANCH  14  17
ATOM      3  O   UNL     1      -2.086   3.146  26.728  0.00  0.00    -0.274 OA
ATOM      9  N   UNL     1      -3.799   2.365  25.357  0.00  0.00    -0.302 N 
ATOM     17  C   UNL     1      -2.481   2.509  25.754  0.00  0.00    +0.236 C 
ATOM     40  H   UNL     1      -4.013   1.747  24.581  0.00  0.00    +0.150 HD
BRANCH   9  20
ATOM     20  C   UNL     1      -4.907   2.967  26.064  0.00  0.00    +0.163 C 
BRANCH  20  24
ATOM      6  O   UNL     1      -6.426   1.676  24.673  0.00  0.00    -0.274 OA
ATOM     12  N   UNL     1      -6.859   1.829  26.924  0.00  0.00    -0.328 N 
ATOM     24  C   UNL     1      -6.133   2.111  25.785  0.00  0.00    +0.231 C 
ATOM     42  H   UNL     1      -7.693   1.253  26.880  0.00  0.00    +0.145 HD
ATOM     43  H   UNL     1      -6.604   2.192  27.837  0.00  0.00    +0.145 HD
ENDBRANCH  20  24
BRANCH  20  22
ATOM     22  C   UNL     1      -5.157   4.417  25.628  0.00  0.00    +0.074 C 
BRANCH  22  27
ATOM      1  S   UNL     1      -3.762   5.462  23.455  0.00  0.00    -0.102 S 
ATOM     27  C   UNL     1      -3.902   5.087  25.120  0.00  0.00    -0.008 A 
ATOM     30  C   UNL     1      -2.784   5.464  25.830  0.00  0.00    +0.011 A 
ATOM     33  C   UNL     1      -1.799   6.070  24.997  0.00  0.00    +0.008 A 
ATOM     34  C   UNL     1      -2.202   6.133  23.681  0.00  0.00    +0.045 A 
ENDBRANCH  22  27
ENDBRANCH  20  22
ENDBRANCH   9  20
ENDBRANCH  14  17
TORSDOF 9
ENDMDL
MODEL 2
REMARK VINA RESULT:      10.0      1.597      2.697
REMARK  Name = 11882069
REMARK  11 active torsions:
REMARK  status: ('A' for Active; 'I' for Inactive)
REMARK    1  A    between atoms: S_2  and  C_35
REMARK    2  A    between atoms: S_2  and  C_38
REMARK    3  A    between atoms: N_8  and  C_13
REMARK    4  A    between atoms: N_9  and  C_20
REMARK    5  A    between atoms: N_10  and  C_28
REMARK    6  A    between atoms: N_11  and  C_29
REMARK    7  A    between atoms: C_14  and  C_17
REMARK    8  A    between atoms: C_18  and  C_19
REMARK    9  A    between atoms: C_20  and  C_22
REMARK   10  A    between atoms: C_20  and  C_24
REMARK   11  A    between atoms: C_22  and  C_27
REMARK                            x       y       z     vdW  Elec       q    Type
REMARK                         _______ _______ _______ _____ _____    ______ ____
ROOT
ATOM      4  O   UNL     1      -1.714  -0.129  26.346  0.00  0.00    -0.268 OA
ATOM      7  N   UNL     1      -1.731   0.715  24.200  0.00  0.00    -0.283 N 
ATOM     13  C   UNL     1      -0.380   2.318  23.090  0.00  0.00    +0.105 C 
ATOM     14  C   UNL     1      -0.789   1.798  24.469  0.00  0.00    +0.182 C 
ATOM     15  C   UNL     1      -1.601   2.008  22.219  0.00  0.00    +0.043 C 
ATOM     16  C   UNL     1      -2.126   0.698  22.791  0.00  0.00    +0.111 C 
ATOM     18  C   UNL     1      -2.091  -0.217  25.177  0.00  0.00    +0.264 C 
ENDROOT
BRANCH  13   8
ATOM      5  O   UNL     1       1.758   1.246  24.665  0.00  0.00    -0.252 OA
ATOM      8  N   UNL     1       0.792   1.635  22.601  0.00  0.00    -0.294 N 
ATOM     11  N   UNL     1       2.802   0.528  22.688  0.00  0.00    -0.269 N 
ATOM     21  C   UNL     1       1.795   1.138  23.441  0.00  0.00    +0.304 C 
ATOM     39  H   UNL     1       0.865   1.446  21.606  0.00  0.00    +0.151 HD
ATOM     41  H   UNL     1       2.680   0.526  21.679  0.00  0.00    +0.156 HD
BRANCH  11  29
ATOM     29  C   UNL     1       3.983  -0.093  23.159  0.00  0.00    +0.036 A 
ATOM     31  C   UNL     1       5.184   0.615  23.176  0.00  0.00    +0.038 A 
ATOM     32  C   UNL     1       3.944  -1.414  23.606  0.00  0.00    +0.023 A 
ATOM     35  C   UNL     1       6.348   0.003  23.641  0.00  0.00    +0.009 A 
ATOM     36  C   UNL     1       5.108  -2.027  24.070  0.00  0.00    +0.003 A 
ATOM     37  C   UNL     1       6.310  -1.318  24.088  0.00  0.00    +0.015 A 
BRANCH  35   2
ATOM      2  S   UNL     1       7.884   0.906  23.666  0.00  0.00    -0.129 S 
ATOM     38  C   UNL     1       9.038  -0.309  22.970  0.00  0.00    +0.090 C 
ENDBRANCH  35   2
ENDBRANCH  11  29
ENDBRANCH  13   8
BRANCH  18  19
ATOM     10  N   UNL     1      -2.562  -2.587  24.522  0.00  0.00    -0.346 N 
ATOM     19  C   UNL     1      -2.969  -1.299  24.751  0.00  0.00    +0.104 A 
ATOM     23  C   UNL     1      -4.322  -1.235  24.505  0.00  0.00    +0.032 A 
ATOM     25  C   UNL     1      -3.635  -3.346  24.134  0.00  0.00    +0.086 A 
ATOM     26  C   UNL     1      -4.744  -2.530  24.114  0.00  0.00    +0.020 A 
ATOM     28  C   UNL     1      -1.212  -3.087  24.664  0.00  0.00    +0.149 C 
ENDBRANCH  18  19
BRANCH  14  17
ATOM      3  O   UNL     1      -1.458   2.921  26.467  0.00  0.00    -0.274 OA
ATOM      9  N   UNL     1      -2.312   3.647  24.426  0.00  0.00    -0.302 N 
ATOM     17  C   UNL     1      -1.538   2.842  25.244  0.00  0.00    +0.236 C 
ATOM     40  H   UNL     1      -2.362   3.435  23.434  0.00  0.00    +0.150 HD
BRANCH   9  20
ATOM     20  C   UNL     1      -3.148   4.713  24.929  0.00  0.00    +0.163 C 
BRANCH  20  24
ATOM      6  O   UNL     1      -2.603   6.892  25.856  0.00  0.00    -0.274 OA
ATOM     12  N   UNL     1      -0.926   5.663  24.878  0.00  0.00    -0.328 N 
ATOM     24  C   UNL     1      -2.232   5.880  25.264  0.00  0.00    +0.231 C 
ATOM     42  H   UNL     1      -0.208   6.357  25.057  0.00  0.00    +0.145 HD
ATOM     43  H   UNL     1      -0.633   4.821  24.393  0.00  0.00    +0.145 HD
ENDBRANCH  20  24
BRANCH  20  22
ATOM     22  C   UNL     1      -3.950   4.289  26.167  0.00  0.00    +0.074 C 
BRANCH  22  27
ATOM      1  S   UNL     1      -5.076   2.601  24.258  0.00  0.00    -0.102 S 
ATOM     27  C   UNL     1      -4.943   3.194  25.860  0.00  0.00    -0.008 A 
ATOM     30  C   UNL     1      -5.813   2.560  26.719  0.00  0.00    +0.011 A 
ATOM     33  C   UNL     1      -6.599   1.574  26.054  0.00  0.00    +0.008 A 
ATOM     34  C   UNL     1      -6.300   1.492  24.712  0.00  0.00    +0.045 A 
ENDBRANCH  22  27
ENDBRANCH  20  22
ENDBRANCH   9  20
ENDBRANCH  14  17
TORSDOF 9
ENDMDL
MODEL 3
REMARK VINA RESULT:      11.7      2.458      4.806
REMARK  Name = 11882069
REMARK  11 active torsions:
REMARK  status: ('A' for Active; 'I' for Inactive)
REMARK    1  A    between atoms: S_2  and  C_35
REMARK    2  A    between atoms: S_2  and  C_38
REMARK    3  A    between atoms: N_8  and  C_13
REMARK    4  A    between atoms: N_9  and  C_20
REMARK    5  A    between atoms: N_10  and  C_28
REMARK    6  A    between atoms: N_11  and  C_29
REMARK    7  A    between atoms: C_14  and  C_17
REMARK    8  A    between atoms: C_18  and  C_19
REMARK    9  A    between atoms: C_20  and  C_22
REMARK   10  A    between atoms: C_20  and  C_24
REMARK   11  A    between atoms: C_22  and  C_27
REMARK                            x       y       z     vdW  Elec       q    Type
REMARK                         _______ _______ _______ _____ _____    ______ ____
ROOT
ATOM      4  O   UNL     1      -0.429   3.788  24.455  0.00  0.00    -0.268 OA
ATOM      7  N   UNL     1      -0.489   1.483  24.480  0.00  0.00    -0.283 N 
ATOM     13  C   UNL     1      -0.444  -0.147  22.757  0.00  0.00    +0.105 C 
ATOM     14  C   UNL     1      -0.699   1.333  23.042  0.00  0.00    +0.182 C 
ATOM     15  C   UNL     1      -0.810  -0.830  24.078  0.00  0.00    +0.043 C 
ATOM     16  C   UNL     1      -0.379   0.178  25.134  0.00  0.00    +0.111 C 
ATOM     18  C   UNL     1      -0.318   2.733  25.080  0.00  0.00    +0.264 C 
ENDROOT
BRANCH  13   8
ATOM      5  O   UNL     1       1.854   0.876  24.127  0.00  0.00    -0.252 OA
ATOM      8  N   UNL     1       0.939  -0.384  22.418  0.00  0.00    -0.294 N 
ATOM     11  N   UNL     1       3.224  -0.243  22.584  0.00  0.00    -0.269 N 
ATOM     21  C   UNL     1       2.007   0.156  23.143  0.00  0.00    +0.304 C 
ATOM     39  H   UNL     1       1.150  -1.023  21.658  0.00  0.00    +0.151 HD
ATOM     41  H   UNL     1       3.175  -0.842  21.764  0.00  0.00    +0.156 HD
BRANCH  11  29
ATOM     29  C   UNL     1       4.530   0.086  23.019  0.00  0.00    +0.036 A 
ATOM     31  C   UNL     1       5.626  -0.635  22.547  0.00  0.00    +0.038 A 
ATOM     32  C   UNL     1       4.719   1.134  23.921  0.00  0.00    +0.023 A 
ATOM     35  C   UNL     1       6.912  -0.309  22.976  0.00  0.00    +0.009 A 
ATOM     36  C   UNL     1       6.006   1.460  24.350  0.00  0.00    +0.003 A 
ATOM     37  C   UNL     1       7.102   0.738  23.878  0.00  0.00    +0.015 A 
BRANCH  35   2
ATOM      2  S   UNL     1       8.314  -1.229  22.373  0.00  0.00    -0.129 S 
ATOM     38  C   UNL     1       9.699  -0.191  22.921  0.00  0.00    +0.090 C 
ENDBRANCH  35   2
ENDBRANCH  11  29
ENDBRANCH  13   8
BRANCH  18  19
ATOM     10  N   UNL     1      -0.930   3.057  27.486  0.00  0.00    -0.346 N 
ATOM     19  C   UNL     1      -0.026   2.733  26.508  0.00  0.00    +0.104 A 
ATOM     23  C   UNL     1       1.166   2.423  27.122  0.00  0.00    +0.032 A 
ATOM     25  C   UNL     1      -0.331   2.956  28.715  0.00  0.00    +0.086 A 
ATOM     26  C   UNL     1       0.974   2.564  28.518  0.00  0.00    +0.020 A 
ATOM     28  C   UNL     1      -2.307   3.445  27.274  0.00  0.00    +0.149 C 
ENDBRANCH  18  19
BRANCH  14  17
ATOM      3  O   UNL     1      -2.515   2.012  21.649  0.00  0.00    -0.274 OA
ATOM      9  N   UNL     1      -2.904   1.664  23.918  0.00  0.00    -0.302 N 
ATOM     17  C   UNL     1      -2.128   1.700  22.773  0.00  0.00    +0.236 C 
ATOM     40  H   UNL     1      -2.456   1.470  24.808  0.00  0.00    +0.150 HD
BRANCH   9  20
ATOM     20  C   UNL     1      -4.310   1.999  23.932  0.00  0.00    +0.163 C 
BRANCH  20  24
ATOM      6  O   UNL     1      -3.734   4.344  24.201  0.00  0.00    -0.274 OA
ATOM     12  N   UNL     1      -5.448   3.481  25.465  0.00  0.00    -0.328 N 
ATOM     24  C   UNL     1      -4.433   3.389  24.535  0.00  0.00    +0.231 C 
ATOM     42  H   UNL     1      -5.648   4.359  25.932  0.00  0.00    +0.145 HD
ATOM     43  H   UNL     1      -6.020   2.685  25.729  0.00  0.00    +0.145 HD
ENDBRANCH  20  24
BRANCH  20  22
ATOM     22  C   UNL     1      -5.140   0.990  24.736  0.00  0.00    +0.074 C 
BRANCH  22  27
ATOM      1  S   UNL     1      -3.715  -0.976  26.101  0.00  0.00    -0.102 S 
ATOM     27  C   UNL     1      -4.537  -0.395  24.716  0.00  0.00    -0.008 A 
ATOM     30  C   UNL     1      -4.545  -1.318  23.694  0.00  0.00    +0.011 A 
ATOM     33  C   UNL     1      -3.867  -2.520  24.052  0.00  0.00    +0.008 A 
ATOM     34  C   UNL     1      -3.367  -2.468  25.335  0.00  0.00    +0.045 A 
ENDBRANCH  22  27
ENDBRANCH  20  22
ENDBRANCH   9  20
ENDBRANCH  14  17
TORSDOF 9
ENDMDL
MODEL 4
REMARK VINA RESULT:      12.2      2.026      3.570
REMARK  Name = 11882069
REMARK  11 active torsions:
REMARK  status: ('A' for Active; 'I' for Inactive)
REMARK    1  A    between atoms: S_2  and  C_35
REMARK    2  A    between atoms: S_2  and  C_38
REMARK    3  A    between atoms: N_8  and  C_13
REMARK    4  A    between atoms: N_9  and  C_20
REMARK    5  A    between atoms: N_10  and  C_28
REMARK    6  A    between atoms: N_11  and  C_29
REMARK    7  A    between atoms: C_14  and  C_17
REMARK    8  A    between atoms: C_18  and  C_19
REMARK    9  A    between atoms: C_20  and  C_22
REMARK   10  A    between atoms: C_20  and  C_24
REMARK   11  A    between atoms: C_22  and  C_27
REMARK                            x       y       z     vdW  Elec       q    Type
REMARK                         _______ _______ _______ _____ _____    ______ ____
ROOT
ATOM      4  O   UNL     1      -1.746   0.436  26.123  0.00  0.00    -0.268 OA
ATOM      7  N   UNL     1      -0.579   0.153  24.154  0.00  0.00    -0.283 N 
ATOM     13  C   UNL     1       1.240   1.322  23.179  0.00  0.00    +0.105 C 
ATOM     14  C   UNL     1       0.136   1.424  24.231  0.00  0.00    +0.182 C 
ATOM     15  C   UNL     1       0.651   0.364  22.140  0.00  0.00    +0.043 C 
ATOM     16  C   UNL     1      -0.168  -0.611  22.975  0.00  0.00    +0.111 C 
ATOM     18  C   UNL     1      -1.451  -0.272  25.159  0.00  0.00    +0.264 C 
ENDROOT
BRANCH  13   8
ATOM      5  O   UNL     1       3.800   1.167  21.904  0.00  0.00    -0.252 OA
ATOM      8  N   UNL     1       2.455   0.789  23.746  0.00  0.00    -0.294 N 
ATOM     11  N   UNL     1       4.667   0.182  23.850  0.00  0.00    -0.269 N 
ATOM     21  C   UNL     1       3.670   0.750  23.053  0.00  0.00    +0.304 C 
ATOM     39  H   UNL     1       2.447   0.486  24.715  0.00  0.00    +0.151 HD
ATOM     41  H   UNL     1       4.391  -0.115  24.783  0.00  0.00    +0.156 HD
BRANCH  11  29
ATOM     29  C   UNL     1       6.025  -0.036  23.519  0.00  0.00    +0.036 A 
ATOM     31  C   UNL     1       7.002   0.859  23.957  0.00  0.00    +0.038 A 
ATOM     32  C   UNL     1       6.387  -1.146  22.756  0.00  0.00    +0.023 A 
ATOM     35  C   UNL     1       8.341   0.643  23.631  0.00  0.00    +0.009 A 
ATOM     36  C   UNL     1       7.725  -1.362  22.430  0.00  0.00    +0.003 A 
ATOM     37  C   UNL     1       8.702  -0.467  22.867  0.00  0.00    +0.015 A 
BRANCH  35   2
ATOM      2  S   UNL     1       9.591   1.783  24.190  0.00  0.00    -0.129 S 
ATOM     38  C   UNL     1      10.152   2.512  22.625  0.00  0.00    +0.090 C 
ENDBRANCH  35   2
ENDBRANCH  11  29
ENDBRANCH  13   8
BRANCH  18  19
ATOM     10  N   UNL     1      -3.296  -1.849  24.546  0.00  0.00    -0.346 N 
ATOM     19  C   UNL     1      -2.027  -1.601  25.000  0.00  0.00    +0.104 A 
ATOM     23  C   UNL     1      -1.431  -2.813  25.267  0.00  0.00    +0.032 A 
ATOM     25  C   UNL     1      -3.517  -3.202  24.518  0.00  0.00    +0.086 A 
ATOM     26  C   UNL     1      -2.373  -3.826  24.962  0.00  0.00    +0.020 A 
ATOM     28  C   UNL     1      -4.265  -0.851  24.151  0.00  0.00    +0.149 C 
ENDBRANCH  18  19
BRANCH  14  17
ATOM      3  O   UNL     1      -1.144   2.754  22.716  0.00  0.00    -0.274 OA
ATOM      9  N   UNL     1      -1.344   3.143  25.003  0.00  0.00    -0.302 N 
ATOM     17  C   UNL     1      -0.852   2.498  23.882  0.00  0.00    +0.236 C 
ATOM     40  H   UNL     1      -0.968   2.899  25.914  0.00  0.00    +0.150 HD
BRANCH   9  20
ATOM     20  C   UNL     1      -2.292   4.231  24.936  0.00  0.00    +0.163 C 
BRANCH  20  24
ATOM      6  O   UNL     1      -1.966   6.610  25.313  0.00  0.00    -0.274 OA
ATOM     12  N   UNL     1      -0.165   5.344  24.656  0.00  0.00    -0.328 N 
ATOM     24  C   UNL     1      -1.493   5.525  24.980  0.00  0.00    +0.231 C 
ATOM     42  H   UNL     1       0.483   6.125  24.663  0.00  0.00    +0.145 HD
ATOM     43  H   UNL     1       0.214   4.442  24.387  0.00  0.00    +0.145 HD
ENDBRANCH  20  24
BRANCH  20  22
ATOM     22  C   UNL     1      -3.308   4.190  26.085  0.00  0.00    +0.074 C 
BRANCH  22  27
ATOM      1  S   UNL     1      -4.683   2.675  24.193  0.00  0.00    -0.102 S 
ATOM     27  C   UNL     1      -4.484   3.293  25.778  0.00  0.00    -0.008 A 
ATOM     30  C   UNL     1      -5.483   2.871  26.627  0.00  0.00    +0.011 A 
ATOM     33  C   UNL     1      -6.425   2.028  25.967  0.00  0.00    +0.008 A 
ATOM     34  C   UNL     1      -6.109   1.839  24.640  0.00  0.00    +0.045 A 
ENDBRANCH  22  27
ENDBRANCH  20  22
ENDBRANCH   9  20
ENDBRANCH  14  17
TORSDOF 9
ENDMDL
MODEL 5
REMARK VINA RESULT:      12.5      2.067      3.347
REMARK  Name = 11882069
REMARK  11 active torsions:
REMARK  status: ('A' for Active; 'I' for Inactive)
REMARK    1  A    between atoms: S_2  and  C_35
REMARK    2  A    between atoms: S_2  and  C_38
REMARK    3  A    between atoms: N_8  and  C_13
REMARK    4  A    between atoms: N_9  and  C_20
REMARK    5  A    between atoms: N_10  and  C_28
REMARK    6  A    between atoms: N_11  and  C_29
REMARK    7  A    between atoms: C_14  and  C_17
REMARK    8  A    between atoms: C_18  and  C_19
REMARK    9  A    between atoms: C_20  and  C_22
REMARK   10  A    between atoms: C_20  and  C_24
REMARK   11  A    between atoms: C_22  and  C_27
REMARK                            x       y       z     vdW  Elec       q    Type
REMARK                         _______ _______ _______ _____ _____    ______ ____
ROOT
ATOM      4  O   UNL     1      -1.306   0.484  26.358  0.00  0.00    -0.268 OA
ATOM      7  N   UNL     1      -0.373   0.390  24.251  0.00  0.00    -0.283 N 
ATOM     13  C   UNL     1       1.551   1.397  23.296  0.00  0.00    +0.105 C 
ATOM     14  C   UNL     1       0.573   1.481  24.468  0.00  0.00    +0.182 C 
ATOM     15  C   UNL     1       0.711   0.771  22.179  0.00  0.00    +0.043 C 
ATOM     16  C   UNL     1      -0.209  -0.192  22.918  0.00  0.00    +0.111 C 
ATOM     18  C   UNL     1      -1.228  -0.066  25.258  0.00  0.00    +0.264 C 
ENDROOT
BRANCH  13   8
ATOM      5  O   UNL     1       4.236   1.717  22.352  0.00  0.00    -0.252 OA
ATOM      8  N   UNL     1       2.684   0.564  23.620  0.00  0.00    -0.294 N 
ATOM     11  N   UNL     1       4.858  -0.172  23.599  0.00  0.00    -0.269 N 
ATOM     21  C   UNL     1       3.969   0.790  23.115  0.00  0.00    +0.304 C 
ATOM     39  H   UNL     1       2.560  -0.183  24.297  0.00  0.00    +0.151 HD
ATOM     41  H   UNL     1       4.473  -0.877  24.224  0.00  0.00    +0.156 HD
BRANCH  11  29
ATOM     29  C   UNL     1       6.242  -0.293  23.326  0.00  0.00    +0.036 A 
ATOM     31  C   UNL     1       7.142   0.624  23.869  0.00  0.00    +0.038 A 
ATOM     32  C   UNL     1       6.704  -1.328  22.514  0.00  0.00    +0.023 A 
ATOM     35  C   UNL     1       8.506   0.504  23.600  0.00  0.00    +0.009 A 
ATOM     36  C   UNL     1       8.067  -1.447  22.245  0.00  0.00    +0.003 A 
ATOM     37  C   UNL     1       8.967  -0.531  22.788  0.00  0.00    +0.015 A 
BRANCH  35   2
ATOM      2  S   UNL     1       9.658   1.673  24.295  0.00  0.00    -0.129 S 
ATOM     38  C   UNL     1       9.971   2.767  22.881  0.00  0.00    +0.090 C 
ENDBRANCH  35   2
ENDBRANCH  11  29
ENDBRANCH  13   8
BRANCH  18  19
ATOM     10  N   UNL     1      -1.622  -2.520  24.958  0.00  0.00    -0.346 N 
ATOM     19  C   UNL     1      -2.056  -1.220  24.935  0.00  0.00    +0.104 A 
ATOM     23  C   UNL     1      -3.380  -1.225  24.558  0.00  0.00    +0.032 A 
ATOM     25  C   UNL     1      -2.649  -3.353  24.602  0.00  0.00    +0.086 A 
ATOM     26  C   UNL     1      -3.756  -2.575  24.347  0.00  0.00    +0.020 A 
ATOM     28  C   UNL     1      -0.289  -2.962  25.304  0.00  0.00    +0.149 C 
ENDBRANCH  18  19
BRANCH  14  17
ATOM      3  O   UNL     1       0.278   3.836  24.732  0.00  0.00    -0.274 OA
ATOM      9  N   UNL     1      -1.529   2.545  24.034  0.00  0.00    -0.302 N 
ATOM     17  C   UNL     1      -0.219   2.755  24.426  0.00  0.00    +0.236 C 
ATOM     40  H   UNL     1      -1.850   1.593  23.883  0.00  0.00    +0.150 HD
BRANCH   9  20
ATOM     20  C   UNL     1      -2.505   3.607  23.936  0.00  0.00    +0.163 C 
BRANCH  20  24
ATOM      6  O   UNL     1      -2.911   3.541  26.331  0.00  0.00    -0.274 OA
ATOM     12  N   UNL     1      -2.435   5.564  25.353  0.00  0.00    -0.328 N 
ATOM     24  C   UNL     1      -2.659   4.204  25.327  0.00  0.00    +0.231 C 
ATOM     42  H   UNL     1      -2.491   6.084  26.222  0.00  0.00    +0.145 HD
ATOM     43  H   UNL     1      -2.224   6.099  24.517  0.00  0.00    +0.145 HD
ENDBRANCH  20  24
BRANCH  20  22
ATOM     22  C   UNL     1      -3.858   3.108  23.415  0.00  0.00    +0.074 C 
BRANCH  22  27
ATOM      1  S   UNL     1      -5.689   3.617  25.452  0.00  0.00    -0.102 S 
ATOM     27  C   UNL     1      -4.728   2.551  24.518  0.00  0.00    -0.008 A 
ATOM     30  C   UNL     1      -4.874   1.241  24.914  0.00  0.00    +0.011 A 
ATOM     33  C   UNL     1      -5.790   1.108  25.999  0.00  0.00    +0.008 A 
ATOM     34  C   UNL     1      -6.306   2.324  26.390  0.00  0.00    +0.045 A 
ENDBRANCH  22  27
ENDBRANCH  20  22
ENDBRANCH   9  20
ENDBRANCH  14  17
TORSDOF 9
ENDMDL
