MODEL 1
REMARK VINA RESULT:      11.7      0.000      0.000
REMARK  Name = 7135085
REMARK  12 active torsions:
REMARK  status: ('A' for Active; 'I' for Inactive)
REMARK    1  A    between atoms: O_2  and  C_14
REMARK    2  A    between atoms: O_3  and  C_19
REMARK    3  A    between atoms: C_9  and  C_17
REMARK    4  A    between atoms: C_11  and  C_19
REMARK    5  A    between atoms: C_11  and  C_20
REMARK    6  A    between atoms: C_12  and  C_22
REMARK    7  A    between atoms: C_22  and  C_23
REMARK    8  A    between atoms: C_29  and  C_31
REMARK    9  A    between atoms: C_30  and  C_32
REMARK   10  A    between atoms: C_32  and  C_33
REMARK   11  A    between atoms: C_32  and  C_34
REMARK   12  A    between atoms: C_32  and  C_35
REMARK                            x       y       z     vdW  Elec       q    Type
REMARK                         _______ _______ _______ _____ _____    ______ ____
ROOT
ATOM      1  S   UNL     1       0.605   2.216  25.741  0.00  0.00    -0.057 S 
ATOM      5  O   UNL     1       2.052   0.122  21.859  0.00  0.00    -0.275 OA
ATOM      6  N   UNL     1      -0.119   1.364  23.407  0.00  0.00    -0.229 NA
ATOM      8  N   UNL     1       2.192   1.041  24.015  0.00  0.00    -0.264 N 
ATOM      9  C   UNL     1      -3.749   2.260  24.349  0.00  0.00    -0.019 C 
ATOM     10  C   UNL     1      -3.292   3.466  25.283  0.00  0.00    +0.011 C 
ATOM     11  C   UNL     1      -4.421   4.204  26.101  0.00  0.00    +0.021 C 
ATOM     12  C   UNL     1      -2.568   1.963  23.315  0.00  0.00    +0.054 C 
ATOM     13  C   UNL     1      -5.008   2.678  23.546  0.00  0.00    +0.010 C 
ATOM     14  C   UNL     1      -5.621   4.507  25.161  0.00  0.00    +0.123 C 
ATOM     15  C   UNL     1      -2.047   3.084  26.137  0.00  0.00    +0.049 C 
ATOM     16  C   UNL     1      -6.114   3.281  24.401  0.00  0.00    +0.032 C 
ATOM     17  C   UNL     1      -4.073   0.972  25.145  0.00  0.00    +0.012 C 
ATOM     18  C   UNL     1      -1.235   1.908  24.016  0.00  0.00    +0.058 A 
ATOM     20  C   UNL     1      -3.871   5.570  26.604  0.00  0.00    +0.016 C 
ATOM     21  C   UNL     1      -1.019   2.434  25.274  0.00  0.00    +0.015 A 
ATOM     24  C   UNL     1       0.906   1.464  24.226  0.00  0.00    +0.165 A 
ATOM     30  C   UNL     1       2.699   0.402  22.867  0.00  0.00    +0.224 C 
ATOM     38  H   UNL     1       2.822   1.222  24.790  0.00  0.00    +0.157 HD
ENDROOT
BRANCH  30  32
ATOM     32  C   UNL     1       4.207   0.055  22.960  0.00  0.00    +0.039 C 
ATOM     33  C   UNL     1       4.927   1.121  23.808  0.00  0.00    +0.020 C 
ATOM     34  C   UNL     1       4.837   0.044  21.558  0.00  0.00    +0.020 C 
ATOM     35  C   UNL     1       4.396  -1.312  23.637  0.00  0.00    +0.020 C 
ENDBRANCH  30  32
BRANCH  14   2
ATOM      2  O   UNL     1      -6.711   5.060  25.898  0.00  0.00    -0.391 OA
ATOM     36  H   UNL     1      -6.536   4.908  26.842  0.00  0.00    +0.210 HD
ENDBRANCH  14   2
BRANCH  11  19
ATOM     19  C   UNL     1      -4.889   3.454  27.368  0.00  0.00    +0.165 C 
BRANCH  19   3
ATOM      3  O   UNL     1      -6.012   2.676  27.019  0.00  0.00    -0.394 OA
ATOM     37  H   UNL     1      -6.601   3.239  26.489  0.00  0.00    +0.209 HD
ENDBRANCH  19   3
ENDBRANCH  11  19
BRANCH  12  22
ATOM     22  C   UNL     1      -2.789   0.728  22.432  0.00  0.00    +0.106 C 
BRANCH  22  23
ATOM      4  O   UNL     1      -4.476  -0.434  23.624  0.00  0.00    -0.276 OA
ATOM      7  N   UNL     1      -2.364  -1.403  23.607  0.00  0.00    -0.301 N 
ATOM     23  C   UNL     1      -3.293  -0.419  23.273  0.00  0.00    +0.216 C 
ATOM     25  C   UNL     1      -2.785  -2.568  24.389  0.00  0.00    +0.108 C 
ATOM     26  C   UNL     1      -0.953  -1.412  23.205  0.00  0.00    +0.108 C 
ATOM     27  C   UNL     1      -1.916  -2.733  25.632  0.00  0.00    +0.022 C 
ATOM     28  C   UNL     1      -0.043  -1.555  24.424  0.00  0.00    +0.022 C 
ATOM     29  C   UNL     1      -0.425  -2.783  25.264  0.00  0.00    -0.011 C 
ATOM     31  C   UNL     1       0.442  -2.874  26.518  0.00  0.00    +0.007 C 
ENDBRANCH  22  23
ENDBRANCH  12  22
TORSDOF 6
ENDMDL
MODEL 2
REMARK VINA RESULT:      12.0      1.896      2.848
REMARK  Name = 7135085
REMARK  12 active torsions:
REMARK  status: ('A' for Active; 'I' for Inactive)
REMARK    1  A    between atoms: O_2  and  C_14
REMARK    2  A    between atoms: O_3  and  C_19
REMARK    3  A    between atoms: C_9  and  C_17
REMARK    4  A    between atoms: C_11  and  C_19
REMARK    5  A    between atoms: C_11  and  C_20
REMARK    6  A    between atoms: C_12  and  C_22
REMARK    7  A    between atoms: C_22  and  C_23
REMARK    8  A    between atoms: C_29  and  C_31
REMARK    9  A    between atoms: C_30  and  C_32
REMARK   10  A    between atoms: C_32  and  C_33
REMARK   11  A    between atoms: C_32  and  C_34
REMARK   12  A    between atoms: C_32  and  C_35
REMARK                            x       y       z     vdW  Elec       q    Type
REMARK                         _______ _______ _______ _____ _____    ______ ____
ROOT
ATOM      1  S   UNL     1       1.244   3.098  23.340  0.00  0.00    -0.057 S 
ATOM      5  O   UNL     1       3.016  -1.125  24.095  0.00  0.00    -0.275 OA
ATOM      6  N   UNL     1       0.770   0.758  24.339  0.00  0.00    -0.229 NA
ATOM      8  N   UNL     1       2.945   1.102  23.356  0.00  0.00    -0.264 N 
ATOM      9  C   UNL     1      -2.582   2.141  25.648  0.00  0.00    -0.019 C 
ATOM     10  C   UNL     1      -2.724   3.164  24.437  0.00  0.00    +0.011 C 
ATOM     11  C   UNL     1      -3.940   4.168  24.487  0.00  0.00    +0.021 C 
ATOM     12  C   UNL     1      -1.595   0.971  25.192  0.00  0.00    +0.054 C 
ATOM     13  C   UNL     1      -3.968   1.516  25.960  0.00  0.00    +0.010 C 
ATOM     14  C   UNL     1      -5.233   3.389  24.855  0.00  0.00    +0.123 C 
ATOM     15  C   UNL     1      -1.363   3.844  24.106  0.00  0.00    +0.049 C 
ATOM     16  C   UNL     1      -5.085   2.538  26.112  0.00  0.00    +0.032 C 
ATOM     17  C   UNL     1      -2.036   2.804  26.937  0.00  0.00    +0.012 C 
ATOM     18  C   UNL     1      -0.360   1.531  24.533  0.00  0.00    +0.058 A 
ATOM     20  C   UNL     1      -4.154   4.776  23.071  0.00  0.00    +0.016 C 
ATOM     21  C   UNL     1      -0.285   2.816  24.036  0.00  0.00    +0.015 A 
ATOM     24  C   UNL     1       1.682   1.482  23.726  0.00  0.00    +0.165 A 
ATOM     30  C   UNL     1       3.545  -0.158  23.552  0.00  0.00    +0.224 C 
ATOM     38  H   UNL     1       3.480   1.830  22.893  0.00  0.00    +0.157 HD
ENDROOT
BRANCH  30  32
ATOM     32  C   UNL     1       4.994  -0.250  23.010  0.00  0.00    +0.039 C 
ATOM     33  C   UNL     1       5.869   0.813  23.702  0.00  0.00    +0.020 C 
ATOM     34  C   UNL     1       5.013   0.019  21.496  0.00  0.00    +0.020 C 
ATOM     35  C   UNL     1       5.587  -1.636  23.310  0.00  0.00    +0.020 C 
ENDBRANCH  30  32
BRANCH  14   2
ATOM      2  O   UNL     1      -6.329   4.287  25.034  0.00  0.00    -0.391 OA
ATOM     36  H   UNL     1      -6.090   4.906  25.745  0.00  0.00    +0.210 HD
ENDBRANCH  14   2
BRANCH  11  19
ATOM     19  C   UNL     1      -3.736   5.375  25.430  0.00  0.00    +0.165 C 
BRANCH  19   3
ATOM      3  O   UNL     1      -2.372   5.732  25.388  0.00  0.00    -0.394 OA
ATOM     37  H   UNL     1      -1.869   4.996  25.774  0.00  0.00    +0.209 HD
ENDBRANCH  19   3
ENDBRANCH  11  19
BRANCH  12  22
ATOM     22  C   UNL     1      -1.235  -0.028  26.300  0.00  0.00    +0.106 C 
BRANCH  22  23
ATOM      4  O   UNL     1       0.055  -1.862  25.531  0.00  0.00    -0.276 OA
ATOM      7  N   UNL     1      -2.254  -2.092  25.402  0.00  0.00    -0.301 N 
ATOM     23  C   UNL     1      -1.078  -1.409  25.712  0.00  0.00    +0.216 C 
ATOM     25  C   UNL     1      -2.186  -3.452  24.864  0.00  0.00    +0.108 C 
ATOM     26  C   UNL     1      -3.613  -1.580  25.604  0.00  0.00    +0.108 C 
ATOM     27  C   UNL     1      -2.957  -3.558  23.550  0.00  0.00    +0.022 C 
ATOM     28  C   UNL     1      -4.417  -1.647  24.307  0.00  0.00    +0.022 C 
ATOM     29  C   UNL     1      -4.403  -3.065  23.715  0.00  0.00    -0.011 C 
ATOM     31  C   UNL     1      -5.145  -3.104  22.381  0.00  0.00    +0.007 C 
ENDBRANCH  22  23
ENDBRANCH  12  22
TORSDOF 6
ENDMDL
MODEL 3
REMARK VINA RESULT:      12.9      1.143      1.872
REMARK  Name = 7135085
REMARK  12 active torsions:
REMARK  status: ('A' for Active; 'I' for Inactive)
REMARK    1  A    between atoms: O_2  and  C_14
REMARK    2  A    between atoms: O_3  and  C_19
REMARK    3  A    between atoms: C_9  and  C_17
REMARK    4  A    between atoms: C_11  and  C_19
REMARK    5  A    between atoms: C_11  and  C_20
REMARK    6  A    between atoms: C_12  and  C_22
REMARK    7  A    between atoms: C_22  and  C_23
REMARK    8  A    between atoms: C_29  and  C_31
REMARK    9  A    between atoms: C_30  and  C_32
REMARK   10  A    between atoms: C_32  and  C_33
REMARK   11  A    between atoms: C_32  and  C_34
REMARK   12  A    between atoms: C_32  and  C_35
REMARK                            x       y       z     vdW  Elec       q    Type
REMARK                         _______ _______ _______ _____ _____    ______ ____
ROOT
ATOM      1  S   UNL     1       0.892   2.215  25.933  0.00  0.00    -0.057 S 
ATOM      5  O   UNL     1       2.570   0.323  22.041  0.00  0.00    -0.275 OA
ATOM      6  N   UNL     1       0.324   1.539  23.500  0.00  0.00    -0.229 NA
ATOM      8  N   UNL     1       2.571   1.097  24.256  0.00  0.00    -0.264 N 
ATOM      9  C   UNL     1      -3.338   2.499  24.226  0.00  0.00    -0.019 C 
ATOM     10  C   UNL     1      -2.919   3.627  25.269  0.00  0.00    +0.011 C 
ATOM     11  C   UNL     1      -4.084   4.350  26.048  0.00  0.00    +0.021 C 
ATOM     12  C   UNL     1      -2.091   2.228  23.265  0.00  0.00    +0.054 C 
ATOM     13  C   UNL     1      -4.519   3.011  23.360  0.00  0.00    +0.010 C 
ATOM     14  C   UNL     1      -5.199   4.754  25.042  0.00  0.00    +0.123 C 
ATOM     15  C   UNL     1      -1.755   3.148  26.186  0.00  0.00    +0.049 C 
ATOM     16  C   UNL     1      -5.668   3.596  24.168  0.00  0.00    +0.032 C 
ATOM     17  C   UNL     1      -3.761   1.175  24.909  0.00  0.00    +0.012 C 
ATOM     18  C   UNL     1      -0.818   2.082  24.059  0.00  0.00    +0.058 A 
ATOM     20  C   UNL     1      -3.534   5.661  26.679  0.00  0.00    +0.016 C 
ATOM     21  C   UNL     1      -0.684   2.518  25.361  0.00  0.00    +0.015 A 
ATOM     24  C   UNL     1       1.287   1.551  24.398  0.00  0.00    +0.165 A 
ATOM     30  C   UNL     1       3.146   0.516  23.110  0.00  0.00    +0.224 C 
ATOM     38  H   UNL     1       3.145   1.207  25.087  0.00  0.00    +0.157 HD
ENDROOT
BRANCH  30  32
ATOM     32  C   UNL     1       4.631   0.111  23.292  0.00  0.00    +0.039 C 
ATOM     33  C   UNL     1       4.706  -1.290  23.928  0.00  0.00    +0.020 C 
ATOM     34  C   UNL     1       5.341   1.105  24.226  0.00  0.00    +0.020 C 
ATOM     35  C   UNL     1       5.340   0.064  21.929  0.00  0.00    +0.020 C 
ENDBRANCH  30  32
BRANCH  14   2
ATOM      2  O   UNL     1      -6.326   5.297  25.731  0.00  0.00    -0.391 OA
ATOM     36  H   UNL     1      -7.035   5.427  25.079  0.00  0.00    +0.210 HD
ENDBRANCH  14   2
BRANCH  11  19
ATOM     19  C   UNL     1      -4.671   3.538  27.224  0.00  0.00    +0.165 C 
BRANCH  19   3
ATOM      3  O   UNL     1      -5.811   2.856  26.752  0.00  0.00    -0.394 OA
ATOM     37  H   UNL     1      -5.631   1.904  26.825  0.00  0.00    +0.209 HD
ENDBRANCH  19   3
ENDBRANCH  11  19
BRANCH  12  22
ATOM     22  C   UNL     1      -2.281   1.059  22.289  0.00  0.00    +0.106 C 
BRANCH  22  23
ATOM      4  O   UNL     1      -0.345  -0.308  22.336  0.00  0.00    -0.276 OA
ATOM      7  N   UNL     1      -2.126  -0.986  23.666  0.00  0.00    -0.301 N 
ATOM     23  C   UNL     1      -1.490  -0.136  22.762  0.00  0.00    +0.216 C 
ATOM     25  C   UNL     1      -1.410  -2.146  24.201  0.00  0.00    +0.108 C 
ATOM     26  C   UNL     1      -3.484  -0.808  24.189  0.00  0.00    +0.108 C 
ATOM     27  C   UNL     1      -2.204  -3.430  23.970  0.00  0.00    +0.022 C 
ATOM     28  C   UNL     1      -4.323  -2.065  23.960  0.00  0.00    +0.022 C 
ATOM     29  C   UNL     1      -3.629  -3.310  24.532  0.00  0.00    -0.011 C 
ATOM     31  C   UNL     1      -4.439  -4.570  24.231  0.00  0.00    +0.007 C 
ENDBRANCH  22  23
ENDBRANCH  12  22
TORSDOF 6
ENDMDL
MODEL 4
REMARK VINA RESULT:      14.7      2.232      5.200
REMARK  Name = 7135085
REMARK  12 active torsions:
REMARK  status: ('A' for Active; 'I' for Inactive)
REMARK    1  A    between atoms: O_2  and  C_14
REMARK    2  A    between atoms: O_3  and  C_19
REMARK    3  A    between atoms: C_9  and  C_17
REMARK    4  A    between atoms: C_11  and  C_19
REMARK    5  A    between atoms: C_11  and  C_20
REMARK    6  A    between atoms: C_12  and  C_22
REMARK    7  A    between atoms: C_22  and  C_23
REMARK    8  A    between atoms: C_29  and  C_31
REMARK    9  A    between atoms: C_30  and  C_32
REMARK   10  A    between atoms: C_32  and  C_33
REMARK   11  A    between atoms: C_32  and  C_34
REMARK   12  A    between atoms: C_32  and  C_35
REMARK                            x       y       z     vdW  Elec       q    Type
REMARK                         _______ _______ _______ _____ _____    ______ ____
ROOT
ATOM      1  S   UNL     1       1.515  -1.902  23.453  0.00  0.00    -0.057 S 
ATOM      5  O   UNL     1       4.591   1.548  23.870  0.00  0.00    -0.275 OA
ATOM      6  N   UNL     1       1.802   0.620  23.959  0.00  0.00    -0.229 NA
ATOM      8  N   UNL     1       3.808  -0.630  23.485  0.00  0.00    -0.264 N 
ATOM      9  C   UNL     1      -2.042   0.915  24.005  0.00  0.00    -0.019 C 
ATOM     10  C   UNL     1      -2.229  -0.573  24.538  0.00  0.00    +0.011 C 
ATOM     11  C   UNL     1      -3.707  -1.112  24.654  0.00  0.00    +0.021 C 
ATOM     12  C   UNL     1      -0.563   1.390  24.378  0.00  0.00    +0.054 C 
ATOM     13  C   UNL     1      -3.051   1.850  24.721  0.00  0.00    +0.010 C 
ATOM     14  C   UNL     1      -4.590  -0.038  25.351  0.00  0.00    +0.123 C 
ATOM     15  C   UNL     1      -1.258  -1.559  23.824  0.00  0.00    +0.049 C 
ATOM     16  C   UNL     1      -4.485   1.339  24.705  0.00  0.00    +0.032 C 
ATOM     17  C   UNL     1      -2.252   1.037  22.475  0.00  0.00    +0.012 C 
ATOM     18  C   UNL     1       0.451   0.333  24.026  0.00  0.00    +0.058 A 
ATOM     20  C   UNL     1      -3.716  -2.376  25.560  0.00  0.00    +0.016 C 
ATOM     21  C   UNL     1       0.119  -0.988  23.800  0.00  0.00    +0.015 A 
ATOM     24  C   UNL     1       2.458  -0.480  23.657  0.00  0.00    +0.165 A 
ATOM     30  C   UNL     1       4.796   0.367  23.597  0.00  0.00    +0.224 C 
ATOM     38  H   UNL     1       4.096  -1.577  23.253  0.00  0.00    +0.157 HD
ENDROOT
BRANCH  30  32
ATOM     32  C   UNL     1       6.235  -0.146  23.337  0.00  0.00    +0.039 C 
ATOM     33  C   UNL     1       6.521  -1.355  24.248  0.00  0.00    +0.020 C 
ATOM     34  C   UNL     1       7.258   0.956  23.658  0.00  0.00    +0.020 C 
ATOM     35  C   UNL     1       6.382  -0.596  21.874  0.00  0.00    +0.020 C 
ENDBRANCH  30  32
BRANCH  14   2
ATOM      2  O   UNL     1      -5.960  -0.440  25.358  0.00  0.00    -0.391 OA
ATOM     36  H   UNL     1      -6.144  -0.846  26.222  0.00  0.00    +0.210 HD
ENDBRANCH  14   2
BRANCH  11  19
ATOM     19  C   UNL     1      -4.335  -1.556  23.315  0.00  0.00    +0.165 C 
BRANCH  19   3
ATOM      3  O   UNL     1      -4.732  -2.903  23.449  0.00  0.00    -0.394 OA
ATOM     37  H   UNL     1      -5.000  -3.215  22.569  0.00  0.00    +0.209 HD
ENDBRANCH  19   3
ENDBRANCH  11  19
BRANCH  12  22
ATOM     22  C   UNL     1      -0.169   2.759  23.805  0.00  0.00    +0.106 C 
BRANCH  22  23
ATOM      4  O   UNL     1       0.278   4.083  25.719  0.00  0.00    -0.276 OA
ATOM      7  N   UNL     1      -1.713   4.516  24.601  0.00  0.00    -0.301 N 
ATOM     23  C   UNL     1      -0.507   3.844  24.797  0.00  0.00    +0.216 C 
ATOM     25  C   UNL     1      -2.092   5.609  25.499  0.00  0.00    +0.108 C 
ATOM     26  C   UNL     1      -2.665   4.254  23.517  0.00  0.00    +0.108 C 
ATOM     27  C   UNL     1      -3.474   5.366  26.100  0.00  0.00    +0.022 C 
ATOM     28  C   UNL     1      -4.061   3.984  24.075  0.00  0.00    +0.022 C 
ATOM     29  C   UNL     1      -4.521   5.119  25.002  0.00  0.00    -0.011 C 
ATOM     31  C   UNL     1      -5.885   4.804  25.613  0.00  0.00    +0.007 C 
ENDBRANCH  22  23
ENDBRANCH  12  22
TORSDOF 6
ENDMDL
