MODEL 1
REMARK VINA RESULT:      -1.4      0.000      0.000
REMARK  Name = 40780671
REMARK  10 active torsions:
REMARK  status: ('A' for Active; 'I' for Inactive)
REMARK    1  A    between atoms: S_1  and  C_28
REMARK    2  A    between atoms: S_1  and  C_32
REMARK    3  A    between atoms: O_4  and  C_13
REMARK    4  A    between atoms: O_5  and  C_14
REMARK    5  A    between atoms: N_8  and  C_23
REMARK    6  A    between atoms: N_9  and  C_17
REMARK    7  A    between atoms: C_12  and  C_16
REMARK    8  A    between atoms: C_15  and  C_17
REMARK    9  A    between atoms: C_16  and  C_18
REMARK   10  A    between atoms: C_25  and  C_28
REMARK                            x       y       z     vdW  Elec       q    Type
REMARK                         _______ _______ _______ _____ _____    ______ ____
ROOT
ATOM      3  O   UNL     1      -7.737 -10.771   9.298  0.00  0.00    -0.366 OA
ATOM     12  C   UNL     1      -8.941  -9.983   9.449  0.00  0.00    +0.159 C 
ATOM     13  C   UNL     1      -8.488  -8.541   9.645  0.00  0.00    +0.175 C 
ATOM     14  C   UNL     1      -7.131  -8.722  10.293  0.00  0.00    +0.176 C 
ATOM     15  C   UNL     1      -6.596  -9.932   9.547  0.00  0.00    +0.171 C 
ENDROOT
BRANCH  13   4
ATOM      4  O   UNL     1      -8.347  -7.943   8.357  0.00  0.00    -0.387 OA
ATOM     38  H   UNL     1      -7.538  -8.303   7.957  0.00  0.00    +0.210 HD
ENDBRANCH  13   4
BRANCH  14   5
ATOM      5  O   UNL     1      -6.290  -7.597  10.151  0.00  0.00    -0.387 OA
ATOM     39  H   UNL     1      -6.844  -6.852   9.864  0.00  0.00    +0.210 HD
ENDBRANCH  14   5
BRANCH  12  16
ATOM     16  C   UNL     1      -9.711 -10.534  10.642  0.00  0.00    +0.130 C 
BRANCH  16  18
ATOM      6  O   UNL     1     -10.643  -8.482  11.389  0.00  0.00    -0.276 OA
ATOM      7  N   UNL     1      -9.267  -9.608  12.885  0.00  0.00    -0.298 N 
ATOM      8  N   UNL     1      -8.130  -9.954  15.525  0.00  0.00    -0.327 N 
ATOM     18  C   UNL     1      -9.923  -9.445  11.664  0.00  0.00    +0.218 C 
ATOM     19  C   UNL     1      -8.413 -10.753  13.211  0.00  0.00    +0.126 C 
ATOM     20  C   UNL     1      -9.428  -8.600  13.929  0.00  0.00    +0.126 C 
ATOM     21  C   UNL     1      -7.428 -10.453  14.340  0.00  0.00    +0.124 C 
ATOM     22  C   UNL     1      -9.378  -9.212  15.327  0.00  0.00    +0.124 C 
BRANCH   8  23
ATOM      2  F   UNL     1      -6.068 -10.705  20.591  0.00  0.00    -0.205 F 
ATOM     23  C   UNL     1      -7.610 -10.143  16.802  0.00  0.00    +0.030 A 
ATOM     26  C   UNL     1      -6.229 -10.136  17.002  0.00  0.00    +0.026 A 
ATOM     27  C   UNL     1      -8.469 -10.339  17.883  0.00  0.00    +0.026 A 
ATOM     29  C   UNL     1      -5.708 -10.325  18.281  0.00  0.00    +0.040 A 
ATOM     30  C   UNL     1      -7.948 -10.530  19.163  0.00  0.00    +0.040 A 
ATOM     31  C   UNL     1      -6.568 -10.522  19.362  0.00  0.00    +0.124 A 
ENDBRANCH   8  23
ENDBRANCH  16  18
ENDBRANCH  12  16
BRANCH  15  17
ATOM     17  C   UNL     1      -5.551 -10.709  10.329  0.00  0.00    +0.179 C 
BRANCH  17   9
ATOM      9  N   UNL     1      -4.189 -10.078  10.222  0.00  0.00    -0.249 N 
ATOM     10  N   UNL     1      -3.895  -9.249   9.207  0.00  0.00    -0.065 NA
ATOM     11  N   UNL     1      -2.636  -8.856   9.372  0.00  0.00    -0.134 NA
ATOM     24  C   UNL     1      -3.131 -10.238  11.063  0.00  0.00    +0.134 A 
ATOM     25  C   UNL     1      -2.154  -9.454  10.504  0.00  0.00    +0.093 A 
BRANCH  25  28
ATOM     28  C   UNL     1      -0.778  -9.220  10.961  0.00  0.00    +0.133 C 
BRANCH  28   1
ATOM      1  S   UNL     1      -0.682  -8.121  12.418  0.00  0.00    -0.119 S 
BRANCH   1  32
ATOM     32  C   UNL     1      -1.403  -9.160  13.680  0.00  0.00    +0.008 A 
ATOM     33  C   UNL     1      -2.643  -9.760  13.464  0.00  0.00    +0.015 A 
ATOM     34  C   UNL     1      -0.726  -9.370  14.881  0.00  0.00    +0.015 A 
ATOM     35  C   UNL     1      -3.207 -10.570  14.451  0.00  0.00    +0.001 A 
ATOM     36  C   UNL     1      -1.289 -10.182  15.867  0.00  0.00    +0.001 A 
ATOM     37  C   UNL     1      -2.530 -10.781  15.651  0.00  0.00    +0.000 A 
ENDBRANCH   1  32
ENDBRANCH  28   1
ENDBRANCH  25  28
ENDBRANCH  17   9
ENDBRANCH  15  17
TORSDOF 10
ENDMDL
MODEL 2
REMARK VINA RESULT:      -1.1      1.950      2.807
REMARK  Name = 40780671
REMARK  10 active torsions:
REMARK  status: ('A' for Active; 'I' for Inactive)
REMARK    1  A    between atoms: S_1  and  C_28
REMARK    2  A    between atoms: S_1  and  C_32
REMARK    3  A    between atoms: O_4  and  C_13
REMARK    4  A    between atoms: O_5  and  C_14
REMARK    5  A    between atoms: N_8  and  C_23
REMARK    6  A    between atoms: N_9  and  C_17
REMARK    7  A    between atoms: C_12  and  C_16
REMARK    8  A    between atoms: C_15  and  C_17
REMARK    9  A    between atoms: C_16  and  C_18
REMARK   10  A    between atoms: C_25  and  C_28
REMARK                            x       y       z     vdW  Elec       q    Type
REMARK                         _______ _______ _______ _____ _____    ______ ____
ROOT
ATOM      3  O   UNL     1      -7.149 -10.588   8.955  0.00  0.00    -0.366 OA
ATOM     12  C   UNL     1      -8.359  -9.889   9.328  0.00  0.00    +0.159 C 
ATOM     13  C   UNL     1      -7.922  -8.537   9.880  0.00  0.00    +0.175 C 
ATOM     14  C   UNL     1      -6.548  -8.852  10.434  0.00  0.00    +0.176 C 
ATOM     15  C   UNL     1      -6.013  -9.819   9.391  0.00  0.00    +0.171 C 
ENDROOT
BRANCH  13   4
ATOM      4  O   UNL     1      -7.819  -7.625   8.788  0.00  0.00    -0.387 OA
ATOM     38  H   UNL     1      -7.140  -6.969   9.020  0.00  0.00    +0.210 HD
ENDBRANCH  13   4
BRANCH  14   5
ATOM      5  O   UNL     1      -5.726  -7.713  10.571  0.00  0.00    -0.387 OA
ATOM     39  H   UNL     1      -6.036  -7.221  11.349  0.00  0.00    +0.210 HD
ENDBRANCH  14   5
BRANCH  12  16
ATOM     16  C   UNL     1      -9.093 -10.743  10.353  0.00  0.00    +0.130 C 
BRANCH  16  18
ATOM      6  O   UNL     1     -10.650  -9.160  11.193  0.00  0.00    -0.276 OA
ATOM      7  N   UNL     1      -9.026  -9.913  12.674  0.00  0.00    -0.298 N 
ATOM      8  N   UNL     1      -7.906 -10.097  15.337  0.00  0.00    -0.327 N 
ATOM     18  C   UNL     1      -9.669  -9.866  11.436  0.00  0.00    +0.218 C 
ATOM     19  C   UNL     1      -7.860 -10.752  12.961  0.00  0.00    +0.126 C 
ATOM     20  C   UNL     1      -9.527  -9.098  13.777  0.00  0.00    +0.126 C 
ATOM     21  C   UNL     1      -7.051 -10.249  14.157  0.00  0.00    +0.124 C 
ATOM     22  C   UNL     1      -9.320  -9.775  15.129  0.00  0.00    +0.124 C 
BRANCH   8  23
ATOM      2  F   UNL     1      -5.844 -10.573  20.437  0.00  0.00    -0.205 F 
ATOM     23  C   UNL     1      -7.386 -10.217  16.623  0.00  0.00    +0.030 A 
ATOM     26  C   UNL     1      -8.245 -10.362  17.713  0.00  0.00    +0.026 A 
ATOM     27  C   UNL     1      -6.006 -10.195  16.823  0.00  0.00    +0.026 A 
ATOM     29  C   UNL     1      -7.725 -10.482  19.001  0.00  0.00    +0.040 A 
ATOM     30  C   UNL     1      -5.485 -10.314  18.112  0.00  0.00    +0.040 A 
ATOM     31  C   UNL     1      -6.344 -10.458  19.200  0.00  0.00    +0.124 A 
ENDBRANCH   8  23
ENDBRANCH  16  18
ENDBRANCH  12  16
BRANCH  15  17
ATOM     17  C   UNL     1      -4.940 -10.751   9.926  0.00  0.00    +0.179 C 
BRANCH  17   9
ATOM      9  N   UNL     1      -3.658 -10.018  10.216  0.00  0.00    -0.249 N 
ATOM     10  N   UNL     1      -3.240  -9.023   9.417  0.00  0.00    -0.065 NA
ATOM     11  N   UNL     1      -2.092  -8.574   9.914  0.00  0.00    -0.134 NA
ATOM     24  C   UNL     1      -2.792 -10.234  11.244  0.00  0.00    +0.134 A 
ATOM     25  C   UNL     1      -1.803  -9.306  11.032  0.00  0.00    +0.093 A 
BRANCH  25  28
ATOM     28  C   UNL     1      -0.588  -9.053  11.816  0.00  0.00    +0.133 C 
BRANCH  28   1
ATOM      1  S   UNL     1       0.938  -9.095  10.810  0.00  0.00    -0.119 S 
BRANCH   1  32
ATOM     32  C   UNL     1       1.836  -7.708  11.492  0.00  0.00    +0.008 A 
ATOM     33  C   UNL     1       1.152  -6.556  11.875  0.00  0.00    +0.015 A 
ATOM     34  C   UNL     1       3.221  -7.779  11.639  0.00  0.00    +0.015 A 
ATOM     35  C   UNL     1       1.853  -5.472  12.405  0.00  0.00    +0.001 A 
ATOM     36  C   UNL     1       3.922  -6.697  12.170  0.00  0.00    +0.001 A 
ATOM     37  C   UNL     1       3.238  -5.543  12.553  0.00  0.00    +0.000 A 
ENDBRANCH   1  32
ENDBRANCH  28   1
ENDBRANCH  25  28
ENDBRANCH  17   9
ENDBRANCH  15  17
TORSDOF 10
ENDMDL
