MODEL 1
REMARK VINA RESULT:      -2.5      0.000      0.000
REMARK  Name = 45783804
REMARK  7 active torsions:
REMARK  status: ('A' for Active; 'I' for Inactive)
REMARK    1  A    between atoms: N_3  and  C_12
REMARK    2  A    between atoms: N_7  and  C_25
REMARK    3  A    between atoms: N_7  and  C_26
REMARK    4  A    between atoms: N_7  and  C_27
REMARK    5  A    between atoms: C_8  and  C_13
REMARK    6  A    between atoms: C_12  and  C_14
REMARK    7  A    between atoms: C_17  and  C_18
REMARK                            x       y       z     vdW  Elec       q    Type
REMARK                         _______ _______ _______ _____ _____    ______ ____
ROOT
ATOM      2  O   UNL     1      -3.156   2.117  22.129  0.00  0.00    -0.336 OA
ATOM      4  N   UNL     1      -2.019   1.799  24.033  0.00  0.00    -0.190 NA
ATOM      5  N   UNL     1      -1.884   1.668  21.753  0.00  0.00    -0.056 NA
ATOM     13  C   UNL     1      -3.151   2.166  23.488  0.00  0.00    +0.245 A 
ATOM     17  C   UNL     1      -1.273   1.502  22.930  0.00  0.00    +0.204 A 
ENDROOT
BRANCH  17  18
ATOM      6  N   UNL     1       2.327   1.411  23.860  0.00  0.00    -0.240 NA
ATOM     18  C   UNL     1       0.082   1.044  23.039  0.00  0.00    +0.041 A 
ATOM     22  C   UNL     1       0.481  -0.157  22.465  0.00  0.00    +0.016 A 
ATOM     23  C   UNL     1       1.034   1.785  23.720  0.00  0.00    +0.124 A 
ATOM     24  C   UNL     1       1.802  -0.576  22.587  0.00  0.00    +0.044 A 
ATOM     25  C   UNL     1       2.678   0.237  23.287  0.00  0.00    +0.121 A 
BRANCH  25   7
ATOM      7  N   UNL     1       4.018  -0.202  23.404  0.00  0.00    -0.321 N 
ATOM     26  C   UNL     1       4.307  -1.559  23.814  0.00  0.00    +0.130 C 
ATOM     27  C   UNL     1       5.109   0.704  23.120  0.00  0.00    +0.130 C 
ENDBRANCH  25   7
ENDBRANCH  17  18
BRANCH  13   8
ATOM      3  N   UNL     1      -4.639   2.012  25.477  0.00  0.00    -0.287 NA
ATOM      8  C   UNL     1      -4.432   2.628  24.151  0.00  0.00    +0.146 C 
ATOM      9  C   UNL     1      -4.450   4.144  24.417  0.00  0.00    +0.030 C 
ATOM     10  C   UNL     1      -4.733   4.284  25.905  0.00  0.00    +0.017 C 
ATOM     11  C   UNL     1      -5.408   2.976  26.264  0.00  0.00    +0.085 C 
BRANCH   3  12
ATOM     12  C   UNL     1      -5.292   0.711  25.410  0.00  0.00    +0.120 C 
BRANCH  12  14
ATOM      1  F   UNL     1      -1.648  -3.404  24.174  0.00  0.00    -0.205 F 
ATOM     14  C   UNL     1      -4.319  -0.389  25.079  0.00  0.00    -0.033 A 
ATOM     15  C   UNL     1      -3.143  -0.524  25.819  0.00  0.00    +0.008 A 
ATOM     16  C   UNL     1      -4.592  -1.272  24.035  0.00  0.00    +0.008 A 
ATOM     19  C   UNL     1      -2.242  -1.543  25.512  0.00  0.00    +0.038 A 
ATOM     20  C   UNL     1      -3.689  -2.290  23.729  0.00  0.00    +0.038 A 
ATOM     21  C   UNL     1      -2.514  -2.426  24.468  0.00  0.00    +0.123 A 
ENDBRANCH  12  14
ENDBRANCH   3  12
ENDBRANCH  13   8
TORSDOF 5
ENDMDL
MODEL 2
REMARK VINA RESULT:      -2.3      1.130      1.583
REMARK  Name = 45783804
REMARK  7 active torsions:
REMARK  status: ('A' for Active; 'I' for Inactive)
REMARK    1  A    between atoms: N_3  and  C_12
REMARK    2  A    between atoms: N_7  and  C_25
REMARK    3  A    between atoms: N_7  and  C_26
REMARK    4  A    between atoms: N_7  and  C_27
REMARK    5  A    between atoms: C_8  and  C_13
REMARK    6  A    between atoms: C_12  and  C_14
REMARK    7  A    between atoms: C_17  and  C_18
REMARK                            x       y       z     vdW  Elec       q    Type
REMARK                         _______ _______ _______ _____ _____    ______ ____
ROOT
ATOM      2  O   UNL     1      -2.696   3.798  24.777  0.00  0.00    -0.336 OA
ATOM      4  N   UNL     1      -2.482   1.674  24.099  0.00  0.00    -0.190 NA
ATOM      5  N   UNL     1      -1.325   3.586  24.588  0.00  0.00    -0.056 NA
ATOM     13  C   UNL     1      -3.305   2.623  24.468  0.00  0.00    +0.245 A 
ATOM     17  C   UNL     1      -1.279   2.312  24.188  0.00  0.00    +0.204 A 
ENDROOT
BRANCH  17  18
ATOM      6  N   UNL     1       2.344   1.772  23.548  0.00  0.00    -0.240 NA
ATOM     18  C   UNL     1      -0.048   1.645  23.871  0.00  0.00    +0.041 A 
ATOM     22  C   UNL     1      -0.022   0.285  23.588  0.00  0.00    +0.016 A 
ATOM     23  C   UNL     1       1.151   2.338  23.839  0.00  0.00    +0.124 A 
ATOM     24  C   UNL     1       1.186  -0.333  23.284  0.00  0.00    +0.044 A 
ATOM     25  C   UNL     1       2.331   0.447  23.277  0.00  0.00    +0.121 A 
BRANCH  25   7
ATOM      7  N   UNL     1       3.553  -0.197  22.967  0.00  0.00    -0.321 N 
ATOM     26  C   UNL     1       3.922  -1.422  23.642  0.00  0.00    +0.130 C 
ATOM     27  C   UNL     1       4.445   0.370  21.980  0.00  0.00    +0.130 C 
ENDBRANCH  25   7
ENDBRANCH  17  18
BRANCH  13   8
ATOM      3  N   UNL     1      -5.293   1.441  25.385  0.00  0.00    -0.287 NA
ATOM      8  C   UNL     1      -4.814   2.591  24.593  0.00  0.00    +0.146 C 
ATOM      9  C   UNL     1      -5.376   3.827  25.318  0.00  0.00    +0.030 C 
ATOM     10  C   UNL     1      -6.207   3.272  26.465  0.00  0.00    +0.017 C 
ATOM     11  C   UNL     1      -6.545   1.866  26.014  0.00  0.00    +0.085 C 
BRANCH   3  12
ATOM     12  C   UNL     1      -5.461   0.228  24.595  0.00  0.00    +0.120 C 
BRANCH  12  14
ATOM      1  F   UNL     1      -1.065  -3.255  25.139  0.00  0.00    -0.205 F 
ATOM     14  C   UNL     1      -4.286  -0.702  24.741  0.00  0.00    -0.033 A 
ATOM     15  C   UNL     1      -4.112  -1.752  23.838  0.00  0.00    +0.008 A 
ATOM     16  C   UNL     1      -3.372  -0.516  25.778  0.00  0.00    +0.008 A 
ATOM     19  C   UNL     1      -3.024  -2.613  23.973  0.00  0.00    +0.038 A 
ATOM     20  C   UNL     1      -2.285  -1.378  25.913  0.00  0.00    +0.038 A 
ATOM     21  C   UNL     1      -2.110  -2.427  25.009  0.00  0.00    +0.123 A 
ENDBRANCH  12  14
ENDBRANCH   3  12
ENDBRANCH  13   8
TORSDOF 5
ENDMDL
MODEL 3
REMARK VINA RESULT:      -1.8      0.541      1.312
REMARK  Name = 45783804
REMARK  7 active torsions:
REMARK  status: ('A' for Active; 'I' for Inactive)
REMARK    1  A    between atoms: N_3  and  C_12
REMARK    2  A    between atoms: N_7  and  C_25
REMARK    3  A    between atoms: N_7  and  C_26
REMARK    4  A    between atoms: N_7  and  C_27
REMARK    5  A    between atoms: C_8  and  C_13
REMARK    6  A    between atoms: C_12  and  C_14
REMARK    7  A    between atoms: C_17  and  C_18
REMARK                            x       y       z     vdW  Elec       q    Type
REMARK                         _______ _______ _______ _____ _____    ______ ____
ROOT
ATOM      2  O   UNL     1      -3.135   1.953  22.117  0.00  0.00    -0.336 OA
ATOM      4  N   UNL     1      -1.969   1.806  24.023  0.00  0.00    -0.190 NA
ATOM      5  N   UNL     1      -1.859   1.501  21.759  0.00  0.00    -0.056 NA
ATOM     13  C   UNL     1      -3.115   2.108  23.467  0.00  0.00    +0.245 A 
ATOM     17  C   UNL     1      -1.231   1.439  22.937  0.00  0.00    +0.204 A 
ENDROOT
BRANCH  17  18
ATOM      6  N   UNL     1       1.842  -0.625  22.572  0.00  0.00    -0.240 NA
ATOM     18  C   UNL     1       0.135   1.016  23.062  0.00  0.00    +0.041 A 
ATOM     22  C   UNL     1       1.061   1.783  23.758  0.00  0.00    +0.016 A 
ATOM     23  C   UNL     1       0.571  -0.169  22.492  0.00  0.00    +0.124 A 
ATOM     24  C   UNL     1       2.378   1.348  23.863  0.00  0.00    +0.044 A 
ATOM     25  C   UNL     1       2.714   0.148  23.258  0.00  0.00    +0.121 A 
BRANCH  25   7
ATOM      7  N   UNL     1       4.059  -0.282  23.372  0.00  0.00    -0.321 N 
ATOM     26  C   UNL     1       4.358  -1.633  23.793  0.00  0.00    +0.130 C 
ATOM     27  C   UNL     1       5.142   0.630  23.076  0.00  0.00    +0.130 C 
ENDBRANCH  25   7
ENDBRANCH  17  18
BRANCH  13   8
ATOM      3  N   UNL     1      -4.614   2.016  25.451  0.00  0.00    -0.287 NA
ATOM      8  C   UNL     1      -4.397   2.595  24.111  0.00  0.00    +0.146 C 
ATOM      9  C   UNL     1      -4.406   4.118  24.336  0.00  0.00    +0.030 C 
ATOM     10  C   UNL     1      -4.697   4.299  25.818  0.00  0.00    +0.017 C 
ATOM     11  C   UNL     1      -5.383   3.005  26.208  0.00  0.00    +0.085 C 
BRANCH   3  12
ATOM     12  C   UNL     1      -5.276   0.718  25.415  0.00  0.00    +0.120 C 
BRANCH  12  14
ATOM      1  F   UNL     1      -1.684  -3.433  24.145  0.00  0.00    -0.205 F 
ATOM     14  C   UNL     1      -4.315  -0.391  25.076  0.00  0.00    -0.033 A 
ATOM     15  C   UNL     1      -4.569  -1.222  23.985  0.00  0.00    +0.008 A 
ATOM     16  C   UNL     1      -3.174  -0.588  25.853  0.00  0.00    +0.008 A 
ATOM     19  C   UNL     1      -3.680  -2.249  23.671  0.00  0.00    +0.038 A 
ATOM     20  C   UNL     1      -2.285  -1.616  25.539  0.00  0.00    +0.038 A 
ATOM     21  C   UNL     1      -2.538  -2.447  24.447  0.00  0.00    +0.123 A 
ENDBRANCH  12  14
ENDBRANCH   3  12
ENDBRANCH  13   8
TORSDOF 5
ENDMDL
MODEL 4
REMARK VINA RESULT:       0.9      2.359      3.765
REMARK  Name = 45783804
REMARK  7 active torsions:
REMARK  status: ('A' for Active; 'I' for Inactive)
REMARK    1  A    between atoms: N_3  and  C_12
REMARK    2  A    between atoms: N_7  and  C_25
REMARK    3  A    between atoms: N_7  and  C_26
REMARK    4  A    between atoms: N_7  and  C_27
REMARK    5  A    between atoms: C_8  and  C_13
REMARK    6  A    between atoms: C_12  and  C_14
REMARK    7  A    between atoms: C_17  and  C_18
REMARK                            x       y       z     vdW  Elec       q    Type
REMARK                         _______ _______ _______ _____ _____    ______ ____
ROOT
ATOM      2  O   UNL     1      -3.206   1.746  23.144  0.00  0.00    -0.336 OA
ATOM      4  N   UNL     1      -1.977   0.704  24.700  0.00  0.00    -0.190 NA
ATOM      5  N   UNL     1      -1.917   1.633  22.610  0.00  0.00    -0.056 NA
ATOM     13  C   UNL     1      -3.155   1.175  24.377  0.00  0.00    +0.245 A 
ATOM     17  C   UNL     1      -1.251   1.008  23.586  0.00  0.00    +0.204 A 
ENDROOT
BRANCH  17  18
ATOM      6  N   UNL     1       2.450   1.364  23.675  0.00  0.00    -0.240 NA
ATOM     18  C   UNL     1       0.141   0.674  23.480  0.00  0.00    +0.041 A 
ATOM     22  C   UNL     1       0.546  -0.599  23.098  0.00  0.00    +0.016 A 
ATOM     23  C   UNL     1       1.123   1.612  23.755  0.00  0.00    +0.124 A 
ATOM     24  C   UNL     1       1.901  -0.893  23.004  0.00  0.00    +0.044 A 
ATOM     25  C   UNL     1       2.805   0.114  23.300  0.00  0.00    +0.121 A 
BRANCH  25   7
ATOM      7  N   UNL     1       4.182  -0.200  23.201  0.00  0.00    -0.321 N 
ATOM     26  C   UNL     1       4.685  -1.447  23.734  0.00  0.00    +0.130 C 
ATOM     27  C   UNL     1       5.098   0.726  22.572  0.00  0.00    +0.130 C 
ENDBRANCH  25   7
ENDBRANCH  17  18
BRANCH  13   8
ATOM      3  N   UNL     1      -5.165   2.454  25.094  0.00  0.00    -0.287 NA
ATOM      8  C   UNL     1      -4.444   1.169  25.173  0.00  0.00    +0.146 C 
ATOM      9  C   UNL     1      -5.451   0.122  24.663  0.00  0.00    +0.030 C 
ATOM     10  C   UNL     1      -6.727   0.903  24.381  0.00  0.00    +0.017 C 
ATOM     11  C   UNL     1      -6.587   2.139  25.245  0.00  0.00    +0.085 C 
BRANCH   3  12
ATOM     12  C   UNL     1      -4.712   3.428  26.079  0.00  0.00    +0.120 C 
BRANCH  12  14
ATOM      1  F   UNL     1       0.286   5.633  24.698  0.00  0.00    -0.205 F 
ATOM     14  C   UNL     1      -3.376   4.018  25.709  0.00  0.00    -0.033 A 
ATOM     15  C   UNL     1      -2.207   3.498  26.266  0.00  0.00    +0.008 A 
ATOM     16  C   UNL     1      -3.308   5.083  24.812  0.00  0.00    +0.008 A 
ATOM     19  C   UNL     1      -0.971   4.044  25.924  0.00  0.00    +0.038 A 
ATOM     20  C   UNL     1      -2.071   5.630  24.471  0.00  0.00    +0.038 A 
ATOM     21  C   UNL     1      -0.901   5.109  25.027  0.00  0.00    +0.123 A 
ENDBRANCH  12  14
ENDBRANCH   3  12
ENDBRANCH  13   8
TORSDOF 5
ENDMDL
