MODEL 1
REMARK VINA RESULT:      -6.7      0.000      0.000
REMARK  Name = 75536584
REMARK  9 active torsions:
REMARK  status: ('A' for Active; 'I' for Inactive)
REMARK    1  A    between atoms: O_2  and  C_9
REMARK    2  A    between atoms: O_4  and  C_18
REMARK    3  A    between atoms: O_4  and  C_21
REMARK    4  A    between atoms: N_5  and  C_8
REMARK    5  A    between atoms: N_5  and  C_13
REMARK    6  A    between atoms: N_6  and  C_12
REMARK    7  A    between atoms: C_10  and  C_12
REMARK    8  A    between atoms: C_13  and  C_14
REMARK    9  A    between atoms: C_15  and  C_18
REMARK                            x       y       z     vdW  Elec       q    Type
REMARK                         _______ _______ _______ _____ _____    ______ ____
ROOT
ATOM      1  O   UNL     1      -1.240   2.017  22.964  0.00  0.00    -0.371 OA
ATOM      8  C   UNL     1      -3.326   2.688  23.881  0.00  0.00    +0.111 C 
ATOM      9  C   UNL     1      -2.303   2.587  24.998  0.00  0.00    +0.164 C 
ATOM     10  C   UNL     1      -1.002   2.685  24.215  0.00  0.00    +0.165 C 
ATOM     11  C   UNL     1      -2.660   1.868  22.788  0.00  0.00    +0.181 C 
ENDROOT
BRANCH   9   2
ATOM      2  O   UNL     1      -2.428   3.628  25.947  0.00  0.00    -0.388 OA
ATOM     23  H   UNL     1      -3.039   3.336  26.644  0.00  0.00    +0.210 HD
ENDBRANCH   9   2
BRANCH   8   5
ATOM      5  N   UNL     1      -4.640   2.184  24.246  0.00  0.00    -0.305 NA
ATOM     22  H   UNL     1      -5.025   1.658  23.461  0.00  0.00    +0.123 HD
BRANCH   5  13
ATOM     13  C   UNL     1      -4.562   1.307  25.408  0.00  0.00    +0.118 C 
BRANCH  13  14
ATOM      7  N   UNL     1      -2.405  -1.804  25.358  0.00  0.00    -0.263 NA
ATOM     14  C   UNL     1      -4.051  -0.062  25.044  0.00  0.00    -0.015 A 
ATOM     16  C   UNL     1      -4.707  -0.843  24.098  0.00  0.00    +0.008 A 
ATOM     17  C   UNL     1      -2.915  -0.584  25.639  0.00  0.00    +0.115 A 
ATOM     19  C   UNL     1      -4.213  -2.103  23.781  0.00  0.00    +0.020 A 
ATOM     20  C   UNL     1      -3.068  -2.534  24.433  0.00  0.00    +0.111 A 
ENDBRANCH  13  14
ENDBRANCH   5  13
ENDBRANCH   8   5
BRANCH  10  12
ATOM     12  C   UNL     1       0.176   2.042  24.924  0.00  0.00    +0.138 C 
BRANCH  12   6
ATOM      3  O   UNL     1       0.406  -0.577  23.715  0.00  0.00    -0.273 OA
ATOM      6  N   UNL     1       1.173   1.604  23.989  0.00  0.00    -0.311 N 
ATOM     15  C   UNL     1       1.206   0.319  23.457  0.00  0.00    +0.239 C 
ATOM     24  H   UNL     1       1.891   2.268  23.717  0.00  0.00    +0.149 HD
BRANCH  15  18
ATOM     18  C   UNL     1       2.362   0.131  22.498  0.00  0.00    +0.255 C 
BRANCH  18   4
ATOM      4  O   UNL     1       3.402   1.043  22.785  0.00  0.00    -0.374 OA
ATOM     21  C   UNL     1       4.618   0.377  23.111  0.00  0.00    +0.194 C 
ENDBRANCH  18   4
ENDBRANCH  15  18
ENDBRANCH  12   6
ENDBRANCH  10  12
TORSDOF 8
ENDMDL
MODEL 2
REMARK VINA RESULT:      -6.6      1.888      3.762
REMARK  Name = 75536584
REMARK  9 active torsions:
REMARK  status: ('A' for Active; 'I' for Inactive)
REMARK    1  A    between atoms: O_2  and  C_9
REMARK    2  A    between atoms: O_4  and  C_18
REMARK    3  A    between atoms: O_4  and  C_21
REMARK    4  A    between atoms: N_5  and  C_8
REMARK    5  A    between atoms: N_5  and  C_13
REMARK    6  A    between atoms: N_6  and  C_12
REMARK    7  A    between atoms: C_10  and  C_12
REMARK    8  A    between atoms: C_13  and  C_14
REMARK    9  A    between atoms: C_15  and  C_18
REMARK                            x       y       z     vdW  Elec       q    Type
REMARK                         _______ _______ _______ _____ _____    ______ ____
ROOT
ATOM      1  O   UNL     1      -0.394   0.400  25.281  0.00  0.00    -0.371 OA
ATOM      8  C   UNL     1      -2.325  -0.932  25.655  0.00  0.00    +0.111 C 
ATOM      9  C   UNL     1      -1.737  -1.282  24.300  0.00  0.00    +0.164 C 
ATOM     10  C   UNL     1      -0.310  -0.778  24.461  0.00  0.00    +0.165 C 
ATOM     11  C   UNL     1      -1.682   0.419  25.922  0.00  0.00    +0.181 C 
ENDROOT
BRANCH   9   2
ATOM      2  O   UNL     1      -1.778  -2.669  24.029  0.00  0.00    -0.388 OA
ATOM     23  H   UNL     1      -1.287  -2.835  23.207  0.00  0.00    +0.210 HD
ENDBRANCH   9   2
BRANCH   8   5
ATOM      5  N   UNL     1      -3.777  -0.879  25.663  0.00  0.00    -0.305 NA
ATOM     22  H   UNL     1      -4.088  -0.375  26.494  0.00  0.00    +0.123 HD
BRANCH   5  13
ATOM     13  C   UNL     1      -4.285  -0.195  24.480  0.00  0.00    +0.118 C 
BRANCH  13  14
ATOM      7  N   UNL     1      -5.709   2.996  25.935  0.00  0.00    -0.263 NA
ATOM     14  C   UNL     1      -4.514   1.271  24.735  0.00  0.00    -0.015 A 
ATOM     16  C   UNL     1      -3.789   2.240  24.052  0.00  0.00    +0.008 A 
ATOM     17  C   UNL     1      -5.455   1.698  25.659  0.00  0.00    +0.115 A 
ATOM     19  C   UNL     1      -4.022   3.586  24.307  0.00  0.00    +0.020 A 
ATOM     20  C   UNL     1      -4.985   3.910  25.250  0.00  0.00    +0.111 A 
ENDBRANCH  13  14
ENDBRANCH   5  13
ENDBRANCH   8   5
BRANCH  10  12
ATOM     12  C   UNL     1       0.359  -0.437  23.141  0.00  0.00    +0.138 C 
BRANCH  12   6
ATOM      3  O   UNL     1       2.522  -0.182  21.235  0.00  0.00    -0.273 OA
ATOM      6  N   UNL     1       1.625   0.206  23.348  0.00  0.00    -0.311 N 
ATOM     15  C   UNL     1       2.611   0.281  22.369  0.00  0.00    +0.239 C 
ATOM     24  H   UNL     1       1.805   0.615  24.260  0.00  0.00    +0.149 HD
BRANCH  15  18
ATOM     18  C   UNL     1       3.842   1.015  22.858  0.00  0.00    +0.255 C 
BRANCH  18   4
ATOM      4  O   UNL     1       4.991   0.204  22.728  0.00  0.00    -0.374 OA
ATOM     21  C   UNL     1       5.415  -0.321  23.983  0.00  0.00    +0.194 C 
ENDBRANCH  18   4
ENDBRANCH  15  18
ENDBRANCH  12   6
ENDBRANCH  10  12
TORSDOF 8
ENDMDL
MODEL 3
REMARK VINA RESULT:      -6.6      2.702      5.021
REMARK  Name = 75536584
REMARK  9 active torsions:
REMARK  status: ('A' for Active; 'I' for Inactive)
REMARK    1  A    between atoms: O_2  and  C_9
REMARK    2  A    between atoms: O_4  and  C_18
REMARK    3  A    between atoms: O_4  and  C_21
REMARK    4  A    between atoms: N_5  and  C_8
REMARK    5  A    between atoms: N_5  and  C_13
REMARK    6  A    between atoms: N_6  and  C_12
REMARK    7  A    between atoms: C_10  and  C_12
REMARK    8  A    between atoms: C_13  and  C_14
REMARK    9  A    between atoms: C_15  and  C_18
REMARK                            x       y       z     vdW  Elec       q    Type
REMARK                         _______ _______ _______ _____ _____    ______ ____
ROOT
ATOM      1  O   UNL     1      -4.291   3.718  26.393  0.00  0.00    -0.371 OA
ATOM      8  C   UNL     1      -2.473   4.117  24.916  0.00  0.00    +0.111 C 
ATOM      9  C   UNL     1      -3.316   2.980  24.368  0.00  0.00    +0.164 C 
ATOM     10  C   UNL     1      -4.635   3.218  25.090  0.00  0.00    +0.165 C 
ATOM     11  C   UNL     1      -2.918   4.148  26.369  0.00  0.00    +0.181 C 
ENDROOT
BRANCH   9   2
ATOM      2  O   UNL     1      -3.466   3.039  22.963  0.00  0.00    -0.388 OA
ATOM     23  H   UNL     1      -4.402   2.890  22.748  0.00  0.00    +0.210 HD
ENDBRANCH   9   2
BRANCH   8   5
ATOM      5  N   UNL     1      -1.043   3.907  24.766  0.00  0.00    -0.305 NA
ATOM     22  H   UNL     1      -0.560   4.796  24.901  0.00  0.00    +0.123 HD
BRANCH   5  13
ATOM     13  C   UNL     1      -0.548   2.947  25.745  0.00  0.00    +0.118 C 
BRANCH  13  14
ATOM      7  N   UNL     1       0.446   0.187  23.353  0.00  0.00    -0.263 NA
ATOM     14  C   UNL     1      -0.384   1.574  25.150  0.00  0.00    -0.015 A 
ATOM     16  C   UNL     1      -0.882   0.449  25.798  0.00  0.00    +0.008 A 
ATOM     17  C   UNL     1       0.266   1.391  23.941  0.00  0.00    +0.115 A 
ATOM     19  C   UNL     1      -0.717  -0.807  25.225  0.00  0.00    +0.020 A 
ATOM     20  C   UNL     1      -0.051  -0.884  24.012  0.00  0.00    +0.111 A 
ENDBRANCH  13  14
ENDBRANCH   5  13
ENDBRANCH   8   5
BRANCH  10  12
ATOM     12  C   UNL     1      -5.479   1.963  25.228  0.00  0.00    +0.138 C 
BRANCH  12   6
ATOM      3  O   UNL     1      -4.114  -0.475  25.976  0.00  0.00    -0.273 OA
ATOM      6  N   UNL     1      -5.018   0.925  24.352  0.00  0.00    -0.311 N 
ATOM     15  C   UNL     1      -4.367  -0.219  24.802  0.00  0.00    +0.239 C 
ATOM     24  H   UNL     1      -5.170   1.045  23.354  0.00  0.00    +0.149 HD
BRANCH  15  18
ATOM     18  C   UNL     1      -3.993  -1.145  23.663  0.00  0.00    +0.255 C 
BRANCH  18   4
ATOM      4  O   UNL     1      -4.396  -2.469  23.944  0.00  0.00    -0.374 OA
ATOM     21  C   UNL     1      -3.337  -3.239  24.505  0.00  0.00    +0.194 C 
ENDBRANCH  18   4
ENDBRANCH  15  18
ENDBRANCH  12   6
ENDBRANCH  10  12
TORSDOF 8
ENDMDL
MODEL 4
REMARK VINA RESULT:      -6.5      2.409      5.105
REMARK  Name = 75536584
REMARK  9 active torsions:
REMARK  status: ('A' for Active; 'I' for Inactive)
REMARK    1  A    between atoms: O_2  and  C_9
REMARK    2  A    between atoms: O_4  and  C_18
REMARK    3  A    between atoms: O_4  and  C_21
REMARK    4  A    between atoms: N_5  and  C_8
REMARK    5  A    between atoms: N_5  and  C_13
REMARK    6  A    between atoms: N_6  and  C_12
REMARK    7  A    between atoms: C_10  and  C_12
REMARK    8  A    between atoms: C_13  and  C_14
REMARK    9  A    between atoms: C_15  and  C_18
REMARK                            x       y       z     vdW  Elec       q    Type
REMARK                         _______ _______ _______ _____ _____    ______ ____
ROOT
ATOM      1  O   UNL     1      -0.806   2.965  26.550  0.00  0.00    -0.371 OA
ATOM      8  C   UNL     1       0.189   1.639  24.849  0.00  0.00    +0.111 C 
ATOM      9  C   UNL     1      -0.469   2.850  24.212  0.00  0.00    +0.164 C 
ATOM     10  C   UNL     1      -0.560   3.795  25.402  0.00  0.00    +0.165 C 
ATOM     11  C   UNL     1      -0.495   1.604  26.206  0.00  0.00    +0.181 C 
ENDROOT
BRANCH   9   2
ATOM      2  O   UNL     1       0.300   3.399  23.160  0.00  0.00    -0.388 OA
ATOM     23  H   UNL     1      -0.279   3.523  22.390  0.00  0.00    +0.210 HD
ENDBRANCH   9   2
BRANCH   8   5
ATOM      5  N   UNL     1       0.010   0.412  24.092  0.00  0.00    -0.305 NA
ATOM     22  H   UNL     1       0.901   0.146  23.671  0.00  0.00    +0.123 HD
BRANCH   5  13
ATOM     13  C   UNL     1      -0.447  -0.673  24.952  0.00  0.00    +0.118 C 
BRANCH  13  14
ATOM      7  N   UNL     1      -4.067  -0.565  23.852  0.00  0.00    -0.263 NA
ATOM     14  C   UNL     1      -1.836  -1.129  24.590  0.00  0.00    -0.015 A 
ATOM     16  C   UNL     1      -2.186  -2.473  24.646  0.00  0.00    +0.008 A 
ATOM     17  C   UNL     1      -2.804  -0.222  24.190  0.00  0.00    +0.115 A 
ATOM     19  C   UNL     1      -3.476  -2.865  24.307  0.00  0.00    +0.020 A 
ATOM     20  C   UNL     1      -4.372  -1.881  23.919  0.00  0.00    +0.111 A 
ENDBRANCH  13  14
ENDBRANCH   5  13
ENDBRANCH   8   5
BRANCH  10  12
ATOM     12  C   UNL     1      -1.666   4.826  25.267  0.00  0.00    +0.138 C 
BRANCH  12   6
ATOM      3  O   UNL     1      -3.850   3.605  23.813  0.00  0.00    -0.273 OA
ATOM      6  N   UNL     1      -2.903   4.339  25.808  0.00  0.00    -0.311 N 
ATOM     15  C   UNL     1      -3.902   3.763  25.030  0.00  0.00    +0.239 C 
ATOM     24  H   UNL     1      -3.051   4.433  26.809  0.00  0.00    +0.149 HD
BRANCH  15  18
ATOM     18  C   UNL     1      -5.095   3.339  25.860  0.00  0.00    +0.255 C 
BRANCH  18   4
ATOM      4  O   UNL     1      -5.327   1.953  25.726  0.00  0.00    -0.374 OA
ATOM     21  C   UNL     1      -6.502   1.682  24.967  0.00  0.00    +0.194 C 
ENDBRANCH  18   4
ENDBRANCH  15  18
ENDBRANCH  12   6
ENDBRANCH  10  12
TORSDOF 8
ENDMDL
MODEL 5
REMARK VINA RESULT:      -5.8      1.950      4.322
REMARK  Name = 75536584
REMARK  9 active torsions:
REMARK  status: ('A' for Active; 'I' for Inactive)
REMARK    1  A    between atoms: O_2  and  C_9
REMARK    2  A    between atoms: O_4  and  C_18
REMARK    3  A    between atoms: O_4  and  C_21
REMARK    4  A    between atoms: N_5  and  C_8
REMARK    5  A    between atoms: N_5  and  C_13
REMARK    6  A    between atoms: N_6  and  C_12
REMARK    7  A    between atoms: C_10  and  C_12
REMARK    8  A    between atoms: C_13  and  C_14
REMARK    9  A    between atoms: C_15  and  C_18
REMARK                            x       y       z     vdW  Elec       q    Type
REMARK                         _______ _______ _______ _____ _____    ______ ____
ROOT
ATOM      1  O   UNL     1      -5.492   1.066  25.828  0.00  0.00    -0.371 OA
ATOM      8  C   UNL     1      -4.725   2.680  24.264  0.00  0.00    +0.111 C 
ATOM      9  C   UNL     1      -3.768   1.502  24.270  0.00  0.00    +0.164 C 
ATOM     10  C   UNL     1      -4.647   0.412  24.867  0.00  0.00    +0.165 C 
ATOM     11  C   UNL     1      -5.453   2.482  25.583  0.00  0.00    +0.181 C 
ENDROOT
BRANCH   9   2
ATOM      2  O   UNL     1      -3.313   1.162  22.975  0.00  0.00    -0.388 OA
ATOM     23  H   UNL     1      -3.668   1.811  22.345  0.00  0.00    +0.210 HD
ENDBRANCH   9   2
BRANCH   8   5
ATOM      5  N   UNL     1      -4.062   3.970  24.170  0.00  0.00    -0.305 NA
ATOM     22  H   UNL     1      -4.765   4.697  24.034  0.00  0.00    +0.123 HD
BRANCH   5  13
ATOM     13  C   UNL     1      -3.310   4.262  25.384  0.00  0.00    +0.118 C 
BRANCH  13  14
ATOM      7  N   UNL     1       0.094   3.167  24.141  0.00  0.00    -0.263 NA
ATOM     14  C   UNL     1      -1.941   3.637  25.359  0.00  0.00    -0.015 A 
ATOM     16  C   UNL     1      -1.437   2.971  26.471  0.00  0.00    +0.008 A 
ATOM     17  C   UNL     1      -1.143   3.706  24.229  0.00  0.00    +0.115 A 
ATOM     19  C   UNL     1      -0.169   2.403  26.419  0.00  0.00    +0.020 A 
ATOM     20  C   UNL     1       0.550   2.527  25.241  0.00  0.00    +0.111 A 
ENDBRANCH  13  14
ENDBRANCH   5  13
ENDBRANCH   8   5
BRANCH  10  12
ATOM     12  C   UNL     1      -3.857  -0.693  25.545  0.00  0.00    +0.138 C 
BRANCH  12   6
ATOM      3  O   UNL     1      -2.127  -2.615  24.248  0.00  0.00    -0.273 OA
ATOM      6  N   UNL     1      -2.451  -0.560  25.291  0.00  0.00    -0.311 N 
ATOM     15  C   UNL     1      -1.694  -1.541  24.658  0.00  0.00    +0.239 C 
ATOM     24  H   UNL     1      -1.992   0.291  25.603  0.00  0.00    +0.149 HD
BRANCH  15  18
ATOM     18  C   UNL     1      -0.241  -1.138  24.521  0.00  0.00    +0.255 C 
BRANCH  18   4
ATOM      4  O   UNL     1      -0.092  -0.141  23.533  0.00  0.00    -0.374 OA
ATOM     21  C   UNL     1       1.172  -0.223  22.881  0.00  0.00    +0.194 C 
ENDBRANCH  18   4
ENDBRANCH  15  18
ENDBRANCH  12   6
ENDBRANCH  10  12
TORSDOF 8
ENDMDL
MODEL 6
REMARK VINA RESULT:      -5.7      2.279      4.539
REMARK  Name = 75536584
REMARK  9 active torsions:
REMARK  status: ('A' for Active; 'I' for Inactive)
REMARK    1  A    between atoms: O_2  and  C_9
REMARK    2  A    between atoms: O_4  and  C_18
REMARK    3  A    between atoms: O_4  and  C_21
REMARK    4  A    between atoms: N_5  and  C_8
REMARK    5  A    between atoms: N_5  and  C_13
REMARK    6  A    between atoms: N_6  and  C_12
REMARK    7  A    between atoms: C_10  and  C_12
REMARK    8  A    between atoms: C_13  and  C_14
REMARK    9  A    between atoms: C_15  and  C_18
REMARK                            x       y       z     vdW  Elec       q    Type
REMARK                         _______ _______ _______ _____ _____    ______ ____
ROOT
ATOM      1  O   UNL     1       0.014   2.230  23.401  0.00  0.00    -0.371 OA
ATOM      8  C   UNL     1      -0.567   3.628  25.231  0.00  0.00    +0.111 C 
ATOM      9  C   UNL     1      -0.671   2.177  25.664  0.00  0.00    +0.164 C 
ATOM     10  C   UNL     1       0.206   1.496  24.622  0.00  0.00    +0.165 C 
ATOM     11  C   UNL     1      -0.597   3.493  23.717  0.00  0.00    +0.181 C 
ENDROOT
BRANCH   9   2
ATOM      2  O   UNL     1      -0.191   1.964  26.977  0.00  0.00    -0.388 OA
ATOM     23  H   UNL     1      -0.545   1.117  27.298  0.00  0.00    +0.210 HD
ENDBRANCH   9   2
BRANCH   8   5
ATOM      5  N   UNL     1      -1.636   4.468  25.745  0.00  0.00    -0.305 NA
ATOM     22  H   UNL     1      -1.259   5.390  25.965  0.00  0.00    +0.123 HD
BRANCH   5  13
ATOM     13  C   UNL     1      -2.704   4.617  24.764  0.00  0.00    +0.118 C 
BRANCH  13  14
ATOM      7  N   UNL     1      -5.704   2.934  26.345  0.00  0.00    -0.263 NA
ATOM     14  C   UNL     1      -3.823   3.637  25.000  0.00  0.00    -0.015 A 
ATOM     16  C   UNL     1      -4.026   2.562  24.142  0.00  0.00    +0.008 A 
ATOM     17  C   UNL     1      -4.682   3.777  26.077  0.00  0.00    +0.115 A 
ATOM     19  C   UNL     1      -5.066   1.672  24.384  0.00  0.00    +0.020 A 
ATOM     20  C   UNL     1      -5.870   1.900  25.490  0.00  0.00    +0.111 A 
ENDBRANCH  13  14
ENDBRANCH   5  13
ENDBRANCH   8   5
BRANCH  10  12
ATOM     12  C   UNL     1      -0.144   0.035  24.404  0.00  0.00    +0.138 C 
BRANCH  12   6
ATOM      3  O   UNL     1      -1.255  -2.578  24.957  0.00  0.00    -0.273 OA
ATOM      6  N   UNL     1      -1.464  -0.262  24.880  0.00  0.00    -0.311 N 
ATOM     15  C   UNL     1      -1.916  -1.556  25.119  0.00  0.00    +0.239 C 
ATOM     24  H   UNL     1      -2.098   0.517  25.037  0.00  0.00    +0.149 HD
BRANCH  15  18
ATOM     18  C   UNL     1      -3.346  -1.577  25.616  0.00  0.00    +0.255 C 
BRANCH  18   4
ATOM      4  O   UNL     1      -4.248  -1.387  24.547  0.00  0.00    -0.374 OA
ATOM     21  C   UNL     1      -4.252  -2.495  23.652  0.00  0.00    +0.194 C 
ENDBRANCH  18   4
ENDBRANCH  15  18
ENDBRANCH  12   6
ENDBRANCH  10  12
TORSDOF 8
ENDMDL
MODEL 7
REMARK VINA RESULT:      -5.7      1.350      2.010
REMARK  Name = 75536584
REMARK  9 active torsions:
REMARK  status: ('A' for Active; 'I' for Inactive)
REMARK    1  A    between atoms: O_2  and  C_9
REMARK    2  A    between atoms: O_4  and  C_18
REMARK    3  A    between atoms: O_4  and  C_21
REMARK    4  A    between atoms: N_5  and  C_8
REMARK    5  A    between atoms: N_5  and  C_13
REMARK    6  A    between atoms: N_6  and  C_12
REMARK    7  A    between atoms: C_10  and  C_12
REMARK    8  A    between atoms: C_13  and  C_14
REMARK    9  A    between atoms: C_15  and  C_18
REMARK                            x       y       z     vdW  Elec       q    Type
REMARK                         _______ _______ _______ _____ _____    ______ ____
ROOT
ATOM      1  O   UNL     1      -0.292   3.071  25.423  0.00  0.00    -0.371 OA
ATOM      8  C   UNL     1      -2.289   1.835  25.069  0.00  0.00    +0.111 C 
ATOM      9  C   UNL     1      -1.316   1.537  23.943  0.00  0.00    +0.164 C 
ATOM     10  C   UNL     1       0.004   1.945  24.580  0.00  0.00    +0.165 C 
ATOM     11  C   UNL     1      -1.714   3.126  25.630  0.00  0.00    +0.181 C 
ENDROOT
BRANCH   9   2
ATOM      2  O   UNL     1      -1.321   0.175  23.564  0.00  0.00    -0.388 OA
ATOM     23  H   UNL     1      -1.066   0.117  22.628  0.00  0.00    +0.210 HD
ENDBRANCH   9   2
BRANCH   8   5
ATOM      5  N   UNL     1      -3.667   1.973  24.628  0.00  0.00    -0.305 NA
ATOM     22  H   UNL     1      -3.718   1.779  23.628  0.00  0.00    +0.123 HD
BRANCH   5  13
ATOM     13  C   UNL     1      -4.540   1.043  25.334  0.00  0.00    +0.118 C 
BRANCH  13  14
ATOM      7  N   UNL     1      -4.202  -2.286  23.566  0.00  0.00    -0.263 NA
ATOM     14  C   UNL     1      -4.167  -0.390  25.065  0.00  0.00    -0.015 A 
ATOM     16  C   UNL     1      -3.471  -1.139  26.007  0.00  0.00    +0.008 A 
ATOM     17  C   UNL     1      -4.506  -1.005  23.870  0.00  0.00    +0.115 A 
ATOM     19  C   UNL     1      -3.141  -2.461  25.731  0.00  0.00    +0.020 A 
ATOM     20  C   UNL     1      -3.526  -2.984  24.506  0.00  0.00    +0.111 A 
ENDBRANCH  13  14
ENDBRANCH   5  13
ENDBRANCH   8   5
BRANCH  10  12
ATOM     12  C   UNL     1       1.068   2.329  23.566  0.00  0.00    +0.138 C 
BRANCH  12   6
ATOM      3  O   UNL     1       1.277  -0.139  22.070  0.00  0.00    -0.273 OA
ATOM      6  N   UNL     1       2.160   1.398  23.578  0.00  0.00    -0.311 N 
ATOM     15  C   UNL     1       2.175   0.230  22.823  0.00  0.00    +0.239 C 
ATOM     24  H   UNL     1       2.953   1.606  24.179  0.00  0.00    +0.149 HD
BRANCH  15  18
ATOM     18  C   UNL     1       3.449  -0.562  23.027  0.00  0.00    +0.255 C 
BRANCH  18   4
ATOM      4  O   UNL     1       4.574   0.290  23.008  0.00  0.00    -0.374 OA
ATOM     21  C   UNL     1       5.578  -0.134  23.927  0.00  0.00    +0.194 C 
ENDBRANCH  18   4
ENDBRANCH  15  18
ENDBRANCH  12   6
ENDBRANCH  10  12
TORSDOF 8
ENDMDL
MODEL 8
REMARK VINA RESULT:      -5.2      2.024      6.451
REMARK  Name = 75536584
REMARK  9 active torsions:
REMARK  status: ('A' for Active; 'I' for Inactive)
REMARK    1  A    between atoms: O_2  and  C_9
REMARK    2  A    between atoms: O_4  and  C_18
REMARK    3  A    between atoms: O_4  and  C_21
REMARK    4  A    between atoms: N_5  and  C_8
REMARK    5  A    between atoms: N_5  and  C_13
REMARK    6  A    between atoms: N_6  and  C_12
REMARK    7  A    between atoms: C_10  and  C_12
REMARK    8  A    between atoms: C_13  and  C_14
REMARK    9  A    between atoms: C_15  and  C_18
REMARK                            x       y       z     vdW  Elec       q    Type
REMARK                         _______ _______ _______ _____ _____    ______ ____
ROOT
ATOM      1  O   UNL     1      -0.577   3.300  25.634  0.00  0.00    -0.371 OA
ATOM      8  C   UNL     1       0.147   1.648  24.088  0.00  0.00    +0.111 C 
ATOM      9  C   UNL     1      -1.309   1.977  23.814  0.00  0.00    +0.164 C 
ATOM     10  C   UNL     1      -1.431   3.342  24.478  0.00  0.00    +0.165 C 
ATOM     11  C   UNL     1       0.315   2.180  25.503  0.00  0.00    +0.181 C 
ENDROOT
BRANCH   9   2
ATOM      2  O   UNL     1      -1.605   2.034  22.433  0.00  0.00    -0.388 OA
ATOM     23  H   UNL     1      -0.800   2.299  21.958  0.00  0.00    +0.210 HD
ENDBRANCH   9   2
BRANCH   8   5
ATOM      5  N   UNL     1       0.456   0.232  23.976  0.00  0.00    -0.305 NA
ATOM     22  H   UNL     1      -0.415  -0.297  23.932  0.00  0.00    +0.123 HD
BRANCH   5  13
ATOM     13  C   UNL     1       1.233  -0.041  22.773  0.00  0.00    +0.118 C 
BRANCH  13  14
ATOM      7  N   UNL     1       4.578  -1.424  23.883  0.00  0.00    -0.263 NA
ATOM     14  C   UNL     1       2.708  -0.128  23.066  0.00  0.00    -0.015 A 
ATOM     16  C   UNL     1       3.553   0.945  22.812  0.00  0.00    +0.008 A 
ATOM     17  C   UNL     1       3.264  -1.281  23.597  0.00  0.00    +0.115 A 
ATOM     19  C   UNL     1       4.911   0.837  23.093  0.00  0.00    +0.020 A 
ATOM     20  C   UNL     1       5.369  -0.359  23.624  0.00  0.00    +0.111 A 
ENDBRANCH  13  14
ENDBRANCH   5  13
ENDBRANCH   8   5
BRANCH  10  12
ATOM     12  C   UNL     1      -2.850   3.681  24.899  0.00  0.00    +0.138 C 
BRANCH  12   6
ATOM      3  O   UNL     1      -5.328   3.160  26.298  0.00  0.00    -0.273 OA
ATOM      6  N   UNL     1      -3.730   2.562  24.716  0.00  0.00    -0.311 N 
ATOM     15  C   UNL     1      -4.907   2.392  25.437  0.00  0.00    +0.239 C 
ATOM     24  H   UNL     1      -3.466   1.860  24.031  0.00  0.00    +0.149 HD
BRANCH  15  18
ATOM     18  C   UNL     1      -5.639   1.128  25.040  0.00  0.00    +0.255 C 
BRANCH  18   4
ATOM      4  O   UNL     1      -4.753   0.205  24.444  0.00  0.00    -0.374 OA
ATOM     21  C   UNL     1      -4.008  -0.522  25.417  0.00  0.00    +0.194 C 
ENDBRANCH  18   4
ENDBRANCH  15  18
ENDBRANCH  12   6
ENDBRANCH  10  12
TORSDOF 8
ENDMDL
MODEL 9
REMARK VINA RESULT:      -5.2      2.071      4.392
REMARK  Name = 75536584
REMARK  9 active torsions:
REMARK  status: ('A' for Active; 'I' for Inactive)
REMARK    1  A    between atoms: O_2  and  C_9
REMARK    2  A    between atoms: O_4  and  C_18
REMARK    3  A    between atoms: O_4  and  C_21
REMARK    4  A    between atoms: N_5  and  C_8
REMARK    5  A    between atoms: N_5  and  C_13
REMARK    6  A    between atoms: N_6  and  C_12
REMARK    7  A    between atoms: C_10  and  C_12
REMARK    8  A    between atoms: C_13  and  C_14
REMARK    9  A    between atoms: C_15  and  C_18
REMARK                            x       y       z     vdW  Elec       q    Type
REMARK                         _______ _______ _______ _____ _____    ______ ____
ROOT
ATOM      1  O   UNL     1      -0.790  -0.312  26.046  0.00  0.00    -0.371 OA
ATOM      8  C   UNL     1      -2.770  -1.530  25.557  0.00  0.00    +0.111 C 
ATOM      9  C   UNL     1      -1.881  -1.516  24.327  0.00  0.00    +0.164 C 
ATOM     10  C   UNL     1      -0.527  -1.201  24.947  0.00  0.00    +0.165 C 
ATOM     11  C   UNL     1      -2.193  -0.375  26.358  0.00  0.00    +0.181 C 
ENDROOT
BRANCH   9   2
ATOM      2  O   UNL     1      -1.873  -2.755  23.645  0.00  0.00    -0.388 OA
ATOM     23  H   UNL     1      -2.760  -2.908  23.278  0.00  0.00    +0.210 HD
ENDBRANCH   9   2
BRANCH   8   5
ATOM      5  N   UNL     1      -4.182  -1.361  25.257  0.00  0.00    -0.305 NA
ATOM     22  H   UNL     1      -4.660  -1.008  26.087  0.00  0.00    +0.123 HD
BRANCH   5  13
ATOM     13  C   UNL     1      -4.378  -0.417  24.163  0.00  0.00    +0.118 C 
BRANCH  13  14
ATOM      7  N   UNL     1      -5.930   2.385  26.180  0.00  0.00    -0.263 NA
ATOM     14  C   UNL     1      -4.687   0.968  24.667  0.00  0.00    -0.015 A 
ATOM     16  C   UNL     1      -4.059   2.084  24.126  0.00  0.00    +0.008 A 
ATOM     17  C   UNL     1      -5.607   1.170  25.683  0.00  0.00    +0.115 A 
ATOM     19  C   UNL     1      -4.365   3.351  24.610  0.00  0.00    +0.020 A 
ATOM     20  C   UNL     1      -5.300   3.447  25.629  0.00  0.00    +0.111 A 
ENDBRANCH  13  14
ENDBRANCH   5  13
ENDBRANCH   8   5
BRANCH  10  12
ATOM     12  C   UNL     1       0.440  -0.546  23.977  0.00  0.00    +0.138 C 
BRANCH  12   6
ATOM      3  O   UNL     1      -1.338   1.568  23.119  0.00  0.00    -0.273 OA
ATOM      6  N   UNL     1       0.573   0.858  24.241  0.00  0.00    -0.311 N 
ATOM     15  C   UNL     1      -0.335   1.808  23.785  0.00  0.00    +0.239 C 
ATOM     24  H   UNL     1       1.379   1.165  24.777  0.00  0.00    +0.149 HD
BRANCH  15  18
ATOM     18  C   UNL     1       0.049   3.210  24.209  0.00  0.00    +0.255 C 
BRANCH  18   4
ATOM      4  O   UNL     1      -0.805   3.673  25.234  0.00  0.00    -0.374 OA
ATOM     21  C   UNL     1      -1.187   5.031  25.035  0.00  0.00    +0.194 C 
ENDBRANCH  18   4
ENDBRANCH  15  18
ENDBRANCH  12   6
ENDBRANCH  10  12
TORSDOF 8
ENDMDL
MODEL 10
REMARK VINA RESULT:      -5.0     13.867     16.045
REMARK  Name = 75536584
REMARK  9 active torsions:
REMARK  status: ('A' for Active; 'I' for Inactive)
REMARK    1  A    between atoms: O_2  and  C_9
REMARK    2  A    between atoms: O_4  and  C_18
REMARK    3  A    between atoms: O_4  and  C_21
REMARK    4  A    between atoms: N_5  and  C_8
REMARK    5  A    between atoms: N_5  and  C_13
REMARK    6  A    between atoms: N_6  and  C_12
REMARK    7  A    between atoms: C_10  and  C_12
REMARK    8  A    between atoms: C_13  and  C_14
REMARK    9  A    between atoms: C_15  and  C_18
REMARK                            x       y       z     vdW  Elec       q    Type
REMARK                         _______ _______ _______ _____ _____    ______ ____
ROOT
ATOM      1  O   UNL     1      -1.717 -10.517  13.276  0.00  0.00    -0.371 OA
ATOM      8  C   UNL     1      -3.826 -10.781  14.337  0.00  0.00    +0.111 C 
ATOM      9  C   UNL     1      -4.037 -10.182  12.958  0.00  0.00    +0.164 C 
ATOM     10  C   UNL     1      -2.739 -10.574  12.266  0.00  0.00    +0.165 C 
ATOM     11  C   UNL     1      -2.351 -10.495  14.567  0.00  0.00    +0.181 C 
ENDROOT
BRANCH   9   2
ATOM      2  O   UNL     1      -5.168 -10.715  12.299  0.00  0.00    -0.388 OA
ATOM     23  H   UNL     1      -5.939 -10.167  12.522  0.00  0.00    +0.210 HD
ENDBRANCH   9   2
BRANCH   8   5
ATOM      5  N   UNL     1      -4.681 -10.204  15.361  0.00  0.00    -0.305 NA
ATOM     22  H   UNL     1      -5.647 -10.476  15.181  0.00  0.00    +0.123 HD
BRANCH   5  13
ATOM     13  C   UNL     1      -4.299 -10.671  16.688  0.00  0.00    +0.118 C 
BRANCH  13  14
ATOM      7  N   UNL     1      -6.261 -10.476  19.920  0.00  0.00    -0.263 NA
ATOM     14  C   UNL     1      -5.461 -10.651  17.645  0.00  0.00    -0.015 A 
ATOM     16  C   UNL     1      -6.768 -10.781  17.189  0.00  0.00    +0.008 A 
ATOM     17  C   UNL     1      -5.263 -10.502  19.008  0.00  0.00    +0.115 A 
ATOM     19  C   UNL     1      -7.821 -10.760  18.095  0.00  0.00    +0.020 A 
ATOM     20  C   UNL     1      -7.518 -10.606  19.439  0.00  0.00    +0.111 A 
ENDBRANCH  13  14
ENDBRANCH   5  13
ENDBRANCH   8   5
BRANCH  10  12
ATOM     12  C   UNL     1      -2.373  -9.657  11.113  0.00  0.00    +0.138 C 
BRANCH  12   6
ATOM      3  O   UNL     1      -4.023 -10.150   8.789  0.00  0.00    -0.273 OA
ATOM      6  N   UNL     1      -3.504  -8.891  10.675  0.00  0.00    -0.311 N 
ATOM     15  C   UNL     1      -4.243  -9.203   9.539  0.00  0.00    +0.239 C 
ATOM     24  H   UNL     1      -3.765  -8.076  11.223  0.00  0.00    +0.149 HD
BRANCH  15  18
ATOM     18  C   UNL     1      -5.380  -8.228   9.315  0.00  0.00    +0.255 C 
BRANCH  18   4
ATOM      4  O   UNL     1      -6.461  -8.517  10.176  0.00  0.00    -0.374 OA
ATOM     21  C   UNL     1      -7.699  -8.575   9.474  0.00  0.00    +0.194 C 
ENDBRANCH  18   4
ENDBRANCH  15  18
ENDBRANCH  12   6
ENDBRANCH  10  12
TORSDOF 8
ENDMDL
