MODEL 1
REMARK VINA RESULT:       3.3      0.000      0.000
REMARK  Name = 45783830
REMARK  9 active torsions:
REMARK  status: ('A' for Active; 'I' for Inactive)
REMARK    1  A    between atoms: S_1  and  C_22
REMARK    2  A    between atoms: S_1  and  C_26
REMARK    3  A    between atoms: N_5  and  C_14
REMARK    4  A    between atoms: N_9  and  C_28
REMARK    5  A    between atoms: N_9  and  C_29
REMARK    6  A    between atoms: N_9  and  C_30
REMARK    7  A    between atoms: C_10  and  C_15
REMARK    8  A    between atoms: C_14  and  C_16
REMARK    9  A    between atoms: C_19  and  C_23
REMARK                            x       y       z     vdW  Elec       q    Type
REMARK                         _______ _______ _______ _____ _____    ______ ____
ROOT
ATOM      5  N   UNL     1      -5.596   2.880  25.390  0.00  0.00    -0.287 NA
ATOM     10  C   UNL     1      -4.647   3.503  24.447  0.00  0.00    +0.146 C 
ATOM     11  C   UNL     1      -4.806   5.017  24.675  0.00  0.00    +0.030 C 
ATOM     12  C   UNL     1      -5.907   5.150  25.717  0.00  0.00    +0.017 C 
ATOM     13  C   UNL     1      -6.674   3.848  25.592  0.00  0.00    +0.085 C 
ENDROOT
BRANCH  10  15
ATOM      2  O   UNL     1      -2.680   3.256  25.876  0.00  0.00    -0.336 OA
ATOM      6  N   UNL     1      -2.423   2.417  23.815  0.00  0.00    -0.190 NA
ATOM      7  N   UNL     1      -1.380   2.736  25.827  0.00  0.00    -0.056 NA
ATOM     15  C   UNL     1      -3.225   3.027  24.653  0.00  0.00    +0.245 A 
ATOM     19  C   UNL     1      -1.304   2.261  24.580  0.00  0.00    +0.204 A 
BRANCH  19  23
ATOM      8  N   UNL     1       2.276   1.632  23.795  0.00  0.00    -0.240 NA
ATOM     23  C   UNL     1      -0.126   1.621  24.070  0.00  0.00    +0.041 A 
ATOM     24  C   UNL     1      -0.207   0.417  23.378  0.00  0.00    +0.016 A 
ATOM     25  C   UNL     1       1.128   2.182  24.251  0.00  0.00    +0.124 A 
ATOM     27  C   UNL     1       0.952  -0.180  22.894  0.00  0.00    +0.044 A 
ATOM     28  C   UNL     1       2.157   0.463  23.128  0.00  0.00    +0.121 A 
BRANCH  28   9
ATOM      9  N   UNL     1       3.329  -0.159  22.629  0.00  0.00    -0.321 N 
ATOM     29  C   UNL     1       4.023  -1.148  23.424  0.00  0.00    +0.130 C 
ATOM     30  C   UNL     1       3.844   0.198  21.326  0.00  0.00    +0.130 C 
ENDBRANCH  28   9
ENDBRANCH  19  23
ENDBRANCH  10  15
BRANCH   5  14
ATOM     14  C   UNL     1      -6.098   1.590  24.933  0.00  0.00    +0.120 C 
BRANCH  14  16
ATOM     16  C   UNL     1      -5.015   0.543  24.914  0.00  0.00    -0.033 A 
ATOM     17  C   UNL     1      -4.326   0.231  26.086  0.00  0.00    +0.007 A 
ATOM     18  C   UNL     1      -4.701  -0.114  23.725  0.00  0.00    +0.007 A 
ATOM     20  C   UNL     1      -3.324  -0.739  26.069  0.00  0.00    +0.027 A 
ATOM     21  C   UNL     1      -3.699  -1.084  23.707  0.00  0.00    +0.027 A 
ATOM     22  C   UNL     1      -3.010  -1.396  24.879  0.00  0.00    +0.088 A 
BRANCH  22   1
ATOM      1  S   UNL     1      -1.758  -2.613  24.858  0.00  0.00    -0.006 S 
ATOM      3  O   UNL     1      -2.176  -3.736  25.686  0.00  0.00    -0.170 OA
ATOM      4  O   UNL     1      -1.378  -2.840  23.470  0.00  0.00    -0.170 OA
ATOM     26  C   UNL     1      -0.381  -1.845  25.682  0.00  0.00    +0.200 C 
ENDBRANCH  22   1
ENDBRANCH  14  16
ENDBRANCH   5  14
TORSDOF 6
ENDMDL
MODEL 2
REMARK VINA RESULT:       3.7      1.669      2.121
REMARK  Name = 45783830
REMARK  9 active torsions:
REMARK  status: ('A' for Active; 'I' for Inactive)
REMARK    1  A    between atoms: S_1  and  C_22
REMARK    2  A    between atoms: S_1  and  C_26
REMARK    3  A    between atoms: N_5  and  C_14
REMARK    4  A    between atoms: N_9  and  C_28
REMARK    5  A    between atoms: N_9  and  C_29
REMARK    6  A    between atoms: N_9  and  C_30
REMARK    7  A    between atoms: C_10  and  C_15
REMARK    8  A    between atoms: C_14  and  C_16
REMARK    9  A    between atoms: C_19  and  C_23
REMARK                            x       y       z     vdW  Elec       q    Type
REMARK                         _______ _______ _______ _____ _____    ______ ____
ROOT
ATOM      5  N   UNL     1      -3.527   3.681  25.657  0.00  0.00    -0.287 NA
ATOM     10  C   UNL     1      -2.958   4.018  24.338  0.00  0.00    +0.146 C 
ATOM     11  C   UNL     1      -2.262   5.375  24.546  0.00  0.00    +0.030 C 
ATOM     12  C   UNL     1      -2.545   5.749  25.994  0.00  0.00    +0.017 C 
ATOM     13  C   UNL     1      -3.790   4.953  26.331  0.00  0.00    +0.085 C 
ENDROOT
BRANCH  10  15
ATOM      2  O   UNL     1      -2.513   2.114  22.872  0.00  0.00    -0.336 OA
ATOM      6  N   UNL     1      -0.774   2.705  24.154  0.00  0.00    -0.190 NA
ATOM      7  N   UNL     1      -1.476   1.227  22.555  0.00  0.00    -0.056 NA
ATOM     15  C   UNL     1      -2.017   2.951  23.820  0.00  0.00    +0.245 A 
ATOM     19  C   UNL     1      -0.486   1.639  23.352  0.00  0.00    +0.204 A 
BRANCH  19  23
ATOM      8  N   UNL     1       3.210   1.233  23.365  0.00  0.00    -0.240 NA
ATOM     23  C   UNL     1       0.803   1.010  23.369  0.00  0.00    +0.041 A 
ATOM     24  C   UNL     1       0.923  -0.375  23.405  0.00  0.00    +0.016 A 
ATOM     25  C   UNL     1       1.966   1.762  23.351  0.00  0.00    +0.124 A 
ATOM     27  C   UNL     1       2.186  -0.957  23.420  0.00  0.00    +0.044 A 
ATOM     28  C   UNL     1       3.287  -0.116  23.400  0.00  0.00    +0.121 A 
BRANCH  28   9
ATOM      9  N   UNL     1       4.567  -0.725  23.417  0.00  0.00    -0.321 N 
ATOM     29  C   UNL     1       4.706  -2.118  23.782  0.00  0.00    +0.130 C 
ATOM     30  C   UNL     1       5.743   0.045  23.076  0.00  0.00    +0.130 C 
ENDBRANCH  28   9
ENDBRANCH  19  23
ENDBRANCH  10  15
BRANCH   5  14
ATOM     14  C   UNL     1      -4.720   2.849  25.574  0.00  0.00    +0.120 C 
BRANCH  14  16
ATOM     16  C   UNL     1      -4.380   1.407  25.299  0.00  0.00    -0.033 A 
ATOM     17  C   UNL     1      -5.173   0.657  24.431  0.00  0.00    +0.007 A 
ATOM     18  C   UNL     1      -3.272   0.823  25.913  0.00  0.00    +0.007 A 
ATOM     20  C   UNL     1      -4.858  -0.678  24.176  0.00  0.00    +0.027 A 
ATOM     21  C   UNL     1      -2.957  -0.512  25.658  0.00  0.00    +0.027 A 
ATOM     22  C   UNL     1      -3.751  -1.262  24.790  0.00  0.00    +0.088 A 
BRANCH  22   1
ATOM      1  S   UNL     1      -3.355  -2.932  24.469  0.00  0.00    -0.006 S 
ATOM      3  O   UNL     1      -3.358  -3.669  25.726  0.00  0.00    -0.170 OA
ATOM      4  O   UNL     1      -4.187  -3.385  23.363  0.00  0.00    -0.170 OA
ATOM     26  C   UNL     1      -1.670  -2.886  23.901  0.00  0.00    +0.200 C 
ENDBRANCH  22   1
ENDBRANCH  14  16
ENDBRANCH   5  14
TORSDOF 6
ENDMDL
MODEL 3
REMARK VINA RESULT:       6.6      2.571      4.770
REMARK  Name = 45783830
REMARK  9 active torsions:
REMARK  status: ('A' for Active; 'I' for Inactive)
REMARK    1  A    between atoms: S_1  and  C_22
REMARK    2  A    between atoms: S_1  and  C_26
REMARK    3  A    between atoms: N_5  and  C_14
REMARK    4  A    between atoms: N_9  and  C_28
REMARK    5  A    between atoms: N_9  and  C_29
REMARK    6  A    between atoms: N_9  and  C_30
REMARK    7  A    between atoms: C_10  and  C_15
REMARK    8  A    between atoms: C_14  and  C_16
REMARK    9  A    between atoms: C_19  and  C_23
REMARK                            x       y       z     vdW  Elec       q    Type
REMARK                         _______ _______ _______ _____ _____    ______ ____
ROOT
ATOM      5  N   UNL     1      -4.439  -1.415  23.792  0.00  0.00    -0.287 NA
ATOM     10  C   UNL     1      -3.700  -1.911  24.970  0.00  0.00    +0.146 C 
ATOM     11  C   UNL     1      -3.697  -3.442  24.814  0.00  0.00    +0.030 C 
ATOM     12  C   UNL     1      -4.507  -3.717  23.555  0.00  0.00    +0.017 C 
ATOM     13  C   UNL     1      -5.369  -2.478  23.409  0.00  0.00    +0.085 C 
ENDROOT
BRANCH  10  15
ATOM      2  O   UNL     1      -1.980  -0.736  26.248  0.00  0.00    -0.336 OA
ATOM      6  N   UNL     1      -1.348  -1.309  24.177  0.00  0.00    -0.190 NA
ATOM      7  N   UNL     1      -0.663  -0.281  26.102  0.00  0.00    -0.056 NA
ATOM     15  C   UNL     1      -2.306  -1.330  25.069  0.00  0.00    +0.245 A 
ATOM     19  C   UNL     1      -0.361  -0.656  24.856  0.00  0.00    +0.204 A 
BRANCH  19  23
ATOM      8  N   UNL     1       3.105  -1.206  23.627  0.00  0.00    -0.240 NA
ATOM     23  C   UNL     1       0.918  -0.395  24.261  0.00  0.00    +0.041 A 
ATOM     24  C   UNL     1       1.228   0.863  23.752  0.00  0.00    +0.016 A 
ATOM     25  C   UNL     1       1.882  -1.386  24.174  0.00  0.00    +0.124 A 
ATOM     27  C   UNL     1       2.476   1.087  23.182  0.00  0.00    +0.044 A 
ATOM     28  C   UNL     1       3.370   0.029  23.144  0.00  0.00    +0.121 A 
BRANCH  28   9
ATOM      9  N   UNL     1       4.638   0.273  22.558  0.00  0.00    -0.321 N 
ATOM     29  C   UNL     1       5.845   0.091  23.335  0.00  0.00    +0.130 C 
ATOM     30  C   UNL     1       4.732   0.711  21.184  0.00  0.00    +0.130 C 
ENDBRANCH  28   9
ENDBRANCH  19  23
ENDBRANCH  10  15
BRANCH   5  14
ATOM     14  C   UNL     1      -5.121  -0.150  24.030  0.00  0.00    +0.120 C 
BRANCH  14  16
ATOM     16  C   UNL     1      -4.148   0.981  24.235  0.00  0.00    -0.033 A 
ATOM     17  C   UNL     1      -3.156   1.228  23.286  0.00  0.00    +0.007 A 
ATOM     18  C   UNL     1      -4.239   1.782  25.374  0.00  0.00    +0.007 A 
ATOM     20  C   UNL     1      -2.256   2.277  23.475  0.00  0.00    +0.027 A 
ATOM     21  C   UNL     1      -3.338   2.830  25.563  0.00  0.00    +0.027 A 
ATOM     22  C   UNL     1      -2.346   3.077  24.614  0.00  0.00    +0.088 A 
BRANCH  22   1
ATOM      1  S   UNL     1      -1.221   4.391  24.849  0.00  0.00    -0.006 S 
ATOM      3  O   UNL     1      -0.554   4.674  23.585  0.00  0.00    -0.170 OA
ATOM      4  O   UNL     1      -1.918   5.458  25.554  0.00  0.00    -0.170 OA
ATOM     26  C   UNL     1       0.011   3.727  25.947  0.00  0.00    +0.200 C 
ENDBRANCH  22   1
ENDBRANCH  14  16
ENDBRANCH   5  14
TORSDOF 6
ENDMDL
