MODEL 1
REMARK VINA RESULT:      -2.1      0.000      0.000
REMARK  Name = 75536997
REMARK  5 active torsions:
REMARK  status: ('A' for Active; 'I' for Inactive)
REMARK    1  A    between atoms: N_5  and  C_14
REMARK    2  A    between atoms: N_7  and  C_17
REMARK    3  A    between atoms: C_14  and  C_16
REMARK    4  A    between atoms: C_17  and  C_20
REMARK    5  A    between atoms: C_17  and  C_21
REMARK                            x       y       z     vdW  Elec       q    Type
REMARK                         _______ _______ _______ _____ _____    ______ ____
ROOT
ATOM      2  O   UNL     1      -3.890 -10.779  14.696  0.00  0.00    -0.252 OA
ATOM      3  O   UNL     1      -9.975  -9.142  11.851  0.00  0.00    -0.253 OA
ATOM      4  N   UNL     1      -5.440 -10.067  13.080  0.00  0.00    -0.278 N 
ATOM      5  N   UNL     1      -3.313 -10.411  12.439  0.00  0.00    -0.279 N 
ATOM      6  N   UNL     1      -7.826  -9.988  11.655  0.00  0.00    -0.282 N 
ATOM      7  N   UNL     1      -8.858  -8.828   9.872  0.00  0.00    -0.297 N 
ATOM      8  C   UNL     1      -5.401  -9.640  11.691  0.00  0.00    +0.112 C 
ATOM      9  C   UNL     1      -4.021 -10.086  11.214  0.00  0.00    +0.133 C 
ATOM     10  C   UNL     1      -6.571 -10.246  10.922  0.00  0.00    +0.133 C 
ATOM     11  C   UNL     1      -6.675  -9.959  13.837  0.00  0.00    +0.128 C 
ATOM     12  C   UNL     1      -7.838 -10.529  13.025  0.00  0.00    +0.128 C 
ATOM     13  C   UNL     1      -4.177 -10.455  13.552  0.00  0.00    +0.306 C 
ATOM     15  C   UNL     1      -8.956  -9.310  11.171  0.00  0.00    +0.303 C 
ATOM     25  H   UNL     1      -7.978  -8.846   9.376  0.00  0.00    +0.150 HD
ENDROOT
BRANCH   7  17
ATOM     17  C   UNL     1      -9.936  -8.104   9.237  0.00  0.00    +0.068 C 
ATOM     20  C   UNL     1     -10.573  -8.953   8.144  0.00  0.00    +0.027 C 
ATOM     21  C   UNL     1      -9.435  -6.776   8.683  0.00  0.00    +0.027 C 
ENDBRANCH   7  17
BRANCH   5  14
ATOM     14  C   UNL     1      -1.915 -10.781  12.441  0.00  0.00    +0.144 C 
BRANCH  14  16
ATOM      1  F   UNL     1       1.459  -6.277  12.256  0.00  0.00    -0.205 F 
ATOM     16  C   UNL     1      -1.016  -9.581  12.392  0.00  0.00    -0.030 A 
ATOM     18  C   UNL     1      -0.370  -9.240  11.203  0.00  0.00    +0.008 A 
ATOM     19  C   UNL     1      -0.824  -8.805  13.536  0.00  0.00    +0.008 A 
ATOM     22  C   UNL     1       0.465  -8.124  11.157  0.00  0.00    +0.038 A 
ATOM     23  C   UNL     1       0.011  -7.689  13.490  0.00  0.00    +0.038 A 
ATOM     24  C   UNL     1       0.656  -7.348  12.300  0.00  0.00    +0.123 A 
ENDBRANCH  14  16
ENDBRANCH   5  14
TORSDOF 3
ENDMDL
MODEL 2
REMARK VINA RESULT:      -1.2      3.435      4.059
REMARK  Name = 75536997
REMARK  5 active torsions:
REMARK  status: ('A' for Active; 'I' for Inactive)
REMARK    1  A    between atoms: N_5  and  C_14
REMARK    2  A    between atoms: N_7  and  C_17
REMARK    3  A    between atoms: C_14  and  C_16
REMARK    4  A    between atoms: C_17  and  C_20
REMARK    5  A    between atoms: C_17  and  C_21
REMARK                            x       y       z     vdW  Elec       q    Type
REMARK                         _______ _______ _______ _____ _____    ______ ____
ROOT
ATOM      2  O   UNL     1      -1.385 -10.526  14.898  0.00  0.00    -0.252 OA
ATOM      3  O   UNL     1      -7.594  -9.692  17.824  0.00  0.00    -0.253 OA
ATOM      4  N   UNL     1      -3.683 -10.072  15.087  0.00  0.00    -0.278 N 
ATOM      5  N   UNL     1      -2.792 -10.230  13.029  0.00  0.00    -0.279 N 
ATOM      6  N   UNL     1      -6.292 -10.322  16.013  0.00  0.00    -0.282 N 
ATOM      7  N   UNL     1      -8.440  -9.378  15.716  0.00  0.00    -0.297 N 
ATOM      8  C   UNL     1      -4.770  -9.723  14.188  0.00  0.00    +0.112 C 
ATOM      9  C   UNL     1      -4.216 -10.051  12.804  0.00  0.00    +0.133 C 
ATOM     10  C   UNL     1      -6.033 -10.490  14.569  0.00  0.00    +0.133 C 
ATOM     11  C   UNL     1      -3.895 -10.049  16.523  0.00  0.00    +0.128 C 
ATOM     12  C   UNL     1      -5.190 -10.781  16.873  0.00  0.00    +0.128 C 
ATOM     13  C   UNL     1      -2.480 -10.300  14.401  0.00  0.00    +0.306 C 
ATOM     15  C   UNL     1      -7.452  -9.793  16.600  0.00  0.00    +0.303 C 
ATOM     25  H   UNL     1      -8.262  -9.333  14.723  0.00  0.00    +0.150 HD
ENDROOT
BRANCH   7  17
ATOM     17  C   UNL     1      -9.688  -8.807  16.169  0.00  0.00    +0.068 C 
ATOM     20  C   UNL     1     -10.711  -9.906  16.427  0.00  0.00    +0.027 C 
ATOM     21  C   UNL     1     -10.210  -7.792  15.159  0.00  0.00    +0.027 C 
ENDBRANCH   7  17
BRANCH   5  14
ATOM     14  C   UNL     1      -1.866 -10.454  11.940  0.00  0.00    +0.144 C 
BRANCH  14  16
ATOM      1  F   UNL     1       2.187  -6.548  11.786  0.00  0.00    -0.205 F 
ATOM     16  C   UNL     1      -0.786  -9.413  11.899  0.00  0.00    -0.030 A 
ATOM     18  C   UNL     1      -0.720  -8.435  12.893  0.00  0.00    +0.008 A 
ATOM     19  C   UNL     1       0.153  -9.421  10.867  0.00  0.00    +0.008 A 
ATOM     22  C   UNL     1       0.284  -7.468  12.855  0.00  0.00    +0.038 A 
ATOM     23  C   UNL     1       1.157  -8.454  10.829  0.00  0.00    +0.038 A 
ATOM     24  C   UNL     1       1.223  -7.477  11.824  0.00  0.00    +0.123 A 
ENDBRANCH  14  16
ENDBRANCH   5  14
TORSDOF 3
ENDMDL
MODEL 3
REMARK VINA RESULT:       1.6     15.920     17.254
REMARK  Name = 75536997
REMARK  5 active torsions:
REMARK  status: ('A' for Active; 'I' for Inactive)
REMARK    1  A    between atoms: N_5  and  C_14
REMARK    2  A    between atoms: N_7  and  C_17
REMARK    3  A    between atoms: C_14  and  C_16
REMARK    4  A    between atoms: C_17  and  C_20
REMARK    5  A    between atoms: C_17  and  C_21
REMARK                            x       y       z     vdW  Elec       q    Type
REMARK                         _______ _______ _______ _____ _____    ______ ____
ROOT
ATOM      2  O   UNL     1       2.231   2.026  23.522  0.00  0.00    -0.252 OA
ATOM      3  O   UNL     1      -3.821   3.860  26.318  0.00  0.00    -0.253 OA
ATOM      4  N   UNL     1      -0.060   1.962  24.040  0.00  0.00    -0.278 N 
ATOM      5  N   UNL     1       0.835   0.216  22.943  0.00  0.00    -0.279 N 
ATOM      6  N   UNL     1      -2.364   2.218  25.575  0.00  0.00    -0.282 N 
ATOM      7  N   UNL     1      -4.708   1.945  25.421  0.00  0.00    -0.297 N 
ATOM      8  C   UNL     1      -1.191   1.101  23.736  0.00  0.00    +0.112 C 
ATOM      9  C   UNL     1      -0.542  -0.171  23.196  0.00  0.00    +0.133 C 
ATOM     10  C   UNL     1      -2.050   0.902  24.981  0.00  0.00    +0.133 C 
ATOM     11  C   UNL     1      -0.274   3.220  24.734  0.00  0.00    +0.128 C 
ATOM     12  C   UNL     1      -1.175   3.002  25.948  0.00  0.00    +0.128 C 
ATOM     13  C   UNL     1       1.139   1.474  23.501  0.00  0.00    +0.306 C 
ATOM     15  C   UNL     1      -3.643   2.748  25.808  0.00  0.00    +0.303 C 
ATOM     25  H   UNL     1      -4.556   1.105  24.880  0.00  0.00    +0.150 HD
ENDROOT
BRANCH   7  17
ATOM     17  C   UNL     1      -6.083   2.356  25.591  0.00  0.00    +0.068 C 
ATOM     20  C   UNL     1      -6.621   1.869  26.930  0.00  0.00    +0.027 C 
ATOM     21  C   UNL     1      -6.939   1.851  24.435  0.00  0.00    +0.027 C 
ENDBRANCH   7  17
BRANCH   5  14
ATOM     14  C   UNL     1       1.781  -0.682  22.318  0.00  0.00    +0.144 C 
BRANCH  14  16
ATOM      1  F   UNL     1       7.007   0.068  24.273  0.00  0.00    -0.205 F 
ATOM     16  C   UNL     1       3.174  -0.482  22.839  0.00  0.00    -0.030 A 
ATOM     18  C   UNL     1       3.731  -1.413  23.717  0.00  0.00    +0.008 A 
ATOM     19  C   UNL     1       3.912   0.635  22.447  0.00  0.00    +0.008 A 
ATOM     22  C   UNL     1       5.026  -1.228  24.200  0.00  0.00    +0.038 A 
ATOM     23  C   UNL     1       5.207   0.821  22.931  0.00  0.00    +0.038 A 
ATOM     24  C   UNL     1       5.764  -0.111  23.808  0.00  0.00    +0.123 A 
ENDBRANCH  14  16
ENDBRANCH   5  14
TORSDOF 3
ENDMDL
