MODEL 1
REMARK VINA RESULT:      -3.3      0.000      0.000
REMARK  Name = 75536977
REMARK  5 active torsions:
REMARK  status: ('A' for Active; 'I' for Inactive)
REMARK    1  A    between atoms: O_3  and  C_19
REMARK    2  A    between atoms: O_3  and  C_27
REMARK    3  A    between atoms: N_5  and  C_14
REMARK    4  A    between atoms: C_14  and  C_16
REMARK    5  A    between atoms: C_15  and  C_17
REMARK                            x       y       z     vdW  Elec       q    Type
REMARK                         _______ _______ _______ _____ _____    ______ ____
ROOT
ATOM      1  O   UNL     1      17.351  -5.182  24.118  0.00  0.00    -0.252 OA
ATOM      2  O   UNL     1      15.721 -10.558  28.271  0.00  0.00    -0.270 OA
ATOM      4  N   UNL     1      16.985  -6.413  26.084  0.00  0.00    -0.278 N 
ATOM      5  N   UNL     1      17.238  -4.187  26.252  0.00  0.00    -0.278 N 
ATOM      6  N   UNL     1      15.787  -8.279  27.760  0.00  0.00    -0.294 N 
ATOM      8  C   UNL     1      16.981  -6.150  27.515  0.00  0.00    +0.112 C 
ATOM      9  C   UNL     1      16.937  -4.627  27.603  0.00  0.00    +0.133 C 
ATOM     10  C   UNL     1      15.807  -6.864  28.178  0.00  0.00    +0.132 C 
ATOM     11  C   UNL     1      16.868  -7.778  25.600  0.00  0.00    +0.128 C 
ATOM     12  C   UNL     1      15.714  -8.487  26.308  0.00  0.00    +0.127 C 
ATOM     13  C   UNL     1      17.212  -5.253  25.332  0.00  0.00    +0.306 C 
ATOM     15  C   UNL     1      15.782  -9.380  28.619  0.00  0.00    +0.250 C 
ENDROOT
BRANCH  15  17
ATOM     17  C   UNL     1      15.870  -9.132  30.063  0.00  0.00    +0.078 A 
ATOM     19  C   UNL     1      14.718  -8.950  30.829  0.00  0.00    +0.132 A 
ATOM     20  C   UNL     1      17.126  -9.077  30.668  0.00  0.00    +0.017 A 
ATOM     22  C   UNL     1      14.823  -8.713  32.199  0.00  0.00    +0.046 A 
ATOM     23  C   UNL     1      17.230  -8.841  32.039  0.00  0.00    +0.001 A 
ATOM     25  C   UNL     1      16.079  -8.658  32.804  0.00  0.00    +0.004 A 
BRANCH  19   3
ATOM      3  O   UNL     1      13.483  -8.996  30.257  0.00  0.00    -0.494 OA
ATOM     27  C   UNL     1      12.389  -8.522  31.038  0.00  0.00    +0.277 C 
ENDBRANCH  19   3
ENDBRANCH  15  17
BRANCH   5  14
ATOM     14  C   UNL     1      17.401  -2.788  25.922  0.00  0.00    +0.164 C 
BRANCH  14  16
ATOM      7  N   UNL     1      15.631  -3.086  24.286  0.00  0.00    -0.258 NA
ATOM     16  C   UNL     1      16.781  -2.448  24.599  0.00  0.00    +0.059 A 
ATOM     18  C   UNL     1      17.399  -1.516  23.779  0.00  0.00    +0.025 A 
ATOM     21  C   UNL     1      16.797  -1.222  22.560  0.00  0.00    +0.003 A 
ATOM     24  C   UNL     1      15.075  -2.773  23.093  0.00  0.00    +0.111 A 
ATOM     26  C   UNL     1      15.613  -1.858  22.204  0.00  0.00    +0.020 A 
ENDBRANCH  14  16
ENDBRANCH   5  14
TORSDOF 4
ENDMDL
