MODEL 1
REMARK VINA RESULT:       2.9      0.000      0.000
REMARK  Name = 38027180
REMARK  14 active torsions:
REMARK  status: ('A' for Active; 'I' for Inactive)
REMARK    1  A    between atoms: N_4  and  C_14
REMARK    2  A    between atoms: N_5  and  C_21
REMARK    3  A    between atoms: N_5  and  C_22
REMARK    4  A    between atoms: N_6  and  C_31
REMARK    5  A    between atoms: C_7  and  C_11
REMARK    6  A    between atoms: C_8  and  C_14
REMARK    7  A    between atoms: C_10  and  C_15
REMARK    8  A    between atoms: C_11  and  C_16
REMARK    9  A    between atoms: C_11  and  C_17
REMARK   10  A    between atoms: C_12  and  C_18
REMARK   11  A    between atoms: C_15  and  C_19
REMARK   12  A    between atoms: C_20  and  C_23
REMARK   13  A    between atoms: C_21  and  C_24
REMARK   14  A    between atoms: C_35  and  C_36
REMARK                            x       y       z     vdW  Elec       q    Type
REMARK                         _______ _______ _______ _____ _____    ______ ____
ROOT
ATOM      7  C   UNL     1      -1.878   0.537  24.857  0.00  0.00    +0.000 C 
ATOM      8  C   UNL     1      -1.012  -0.714  24.571  0.00  0.00    +0.032 C 
ATOM      9  C   UNL     1      -2.910   0.236  25.955  0.00  0.00    +0.012 C 
ATOM     10  C   UNL     1      -3.844  -0.928  25.573  0.00  0.00    +0.023 C 
ATOM     12  C   UNL     1      -3.073  -2.112  25.024  0.00  0.00    -0.073 C 
ATOM     13  C   UNL     1      -1.804  -2.000  24.593  0.00  0.00    -0.022 C 
ATOM     18  C   UNL     1      -3.781  -3.438  25.024  0.00  0.00    +0.039 C 
ENDROOT
BRANCH   7  11
ATOM     11  C   UNL     1      -1.022   1.741  25.265  0.00  0.00    -0.013 C 
ATOM     16  C   UNL     1      -0.180   1.403  26.491  0.00  0.00    +0.007 C 
ATOM     17  C   UNL     1      -0.136   2.181  24.104  0.00  0.00    +0.007 C 
ENDBRANCH   7  11
BRANCH   8  14
ATOM     14  C   UNL     1      -0.283  -0.587  23.227  0.00  0.00    +0.112 C 
BRANCH  14   4
ATOM      2  O   UNL     1       1.778  -0.324  21.246  0.00  0.00    -0.270 OA
ATOM      4  N   UNL     1       1.157  -0.419  23.476  0.00  0.00    -0.311 N 
ATOM     20  C   UNL     1       2.054  -0.303  22.443  0.00  0.00    +0.244 C 
ATOM     37  H   UNL     1       1.447  -0.287  24.438  0.00  0.00    +0.149 HD
BRANCH  20  23
ATOM     23  C   UNL     1       3.473  -0.166  22.859  0.00  0.00    +0.037 A 
ATOM     25  C   UNL     1       4.129  -1.241  23.460  0.00  0.00    +0.015 A 
ATOM     26  C   UNL     1       4.150   1.035  22.649  0.00  0.00    +0.015 A 
ATOM     29  C   UNL     1       5.462  -1.114  23.851  0.00  0.00    +0.024 A 
ATOM     30  C   UNL     1       5.483   1.163  23.041  0.00  0.00    +0.024 A 
ATOM     31  C   UNL     1       6.139   0.087  23.642  0.00  0.00    +0.033 A 
BRANCH  31   6
ATOM      3  O   UNL     1       8.672  -0.761  22.252  0.00  0.00    -0.276 OA
ATOM      6  N   UNL     1       7.472   0.214  24.032  0.00  0.00    -0.286 N 
ATOM     35  C   UNL     1       8.619  -0.203  23.343  0.00  0.00    +0.214 C 
ATOM     36  C   UNL     1       9.879   0.119  24.108  0.00  0.00    +0.109 C 
ATOM     38  H   UNL     1       7.620   0.666  24.931  0.00  0.00    +0.155 HD
ENDBRANCH  31   6
ENDBRANCH  20  23
ENDBRANCH  14   4
ENDBRANCH   8  14
BRANCH  10  15
ATOM     15  C   UNL     1      -4.922  -0.469  24.586  0.00  0.00    +0.103 C 
BRANCH  15  19
ATOM      1  O   UNL     1      -4.186   1.452  23.356  0.00  0.00    -0.276 OA
ATOM      5  N   UNL     1      -5.570   1.840  25.177  0.00  0.00    -0.300 N 
ATOM     19  C   UNL     1      -4.848   1.020  24.303  0.00  0.00    +0.216 C 
ATOM     22  C   UNL     1      -6.345   1.306  26.290  0.00  0.00    +0.132 C 
BRANCH   5  21
ATOM     21  C   UNL     1      -5.600   3.295  25.040  0.00  0.00    +0.142 C 
BRANCH  21  24
ATOM     24  C   UNL     1      -4.230   3.898  25.159  0.00  0.00    -0.030 A 
ATOM     27  C   UNL     1      -3.586   3.925  26.396  0.00  0.00    +0.005 A 
ATOM     28  C   UNL     1      -3.603   4.433  24.034  0.00  0.00    +0.005 A 
ATOM     32  C   UNL     1      -2.313   4.486  26.507  0.00  0.00    +0.000 A 
ATOM     33  C   UNL     1      -2.330   4.994  24.145  0.00  0.00    +0.000 A 
ATOM     34  C   UNL     1      -1.686   5.020  25.381  0.00  0.00    +0.000 A 
ENDBRANCH  21  24
ENDBRANCH   5  21
ENDBRANCH  15  19
ENDBRANCH  10  15
TORSDOF 9
ENDMDL
MODEL 2
REMARK VINA RESULT:       4.7      1.932      5.324
REMARK  Name = 38027180
REMARK  14 active torsions:
REMARK  status: ('A' for Active; 'I' for Inactive)
REMARK    1  A    between atoms: N_4  and  C_14
REMARK    2  A    between atoms: N_5  and  C_21
REMARK    3  A    between atoms: N_5  and  C_22
REMARK    4  A    between atoms: N_6  and  C_31
REMARK    5  A    between atoms: C_7  and  C_11
REMARK    6  A    between atoms: C_8  and  C_14
REMARK    7  A    between atoms: C_10  and  C_15
REMARK    8  A    between atoms: C_11  and  C_16
REMARK    9  A    between atoms: C_11  and  C_17
REMARK   10  A    between atoms: C_12  and  C_18
REMARK   11  A    between atoms: C_15  and  C_19
REMARK   12  A    between atoms: C_20  and  C_23
REMARK   13  A    between atoms: C_21  and  C_24
REMARK   14  A    between atoms: C_35  and  C_36
REMARK                            x       y       z     vdW  Elec       q    Type
REMARK                         _______ _______ _______ _____ _____    ______ ____
ROOT
ATOM      7  C   UNL     1      -4.366   2.712  24.886  0.00  0.00    +0.000 C 
ATOM      8  C   UNL     1      -3.991   3.411  23.557  0.00  0.00    +0.032 C 
ATOM      9  C   UNL     1      -4.357   3.721  26.045  0.00  0.00    +0.012 C 
ATOM     10  C   UNL     1      -2.982   4.395  26.218  0.00  0.00    +0.023 C 
ATOM     12  C   UNL     1      -2.420   4.876  24.896  0.00  0.00    -0.073 C 
ATOM     13  C   UNL     1      -2.892   4.435  23.716  0.00  0.00    -0.022 C 
ATOM     18  C   UNL     1      -1.331   5.911  24.960  0.00  0.00    +0.039 C 
ENDROOT
BRANCH   7  11
ATOM     11  C   UNL     1      -5.736   2.030  24.804  0.00  0.00    -0.013 C 
ATOM     16  C   UNL     1      -5.575   0.552  24.462  0.00  0.00    +0.007 C 
ATOM     17  C   UNL     1      -6.495   2.203  26.116  0.00  0.00    +0.007 C 
ENDBRANCH   7  11
BRANCH   8  14
ATOM     14  C   UNL     1      -3.584   2.388  22.489  0.00  0.00    +0.112 C 
BRANCH  14   4
ATOM      2  O   UNL     1      -2.266  -0.150  22.747  0.00  0.00    -0.270 OA
ATOM      4  N   UNL     1      -2.133   2.157  22.574  0.00  0.00    -0.311 N 
ATOM     20  C   UNL     1      -1.616   0.891  22.697  0.00  0.00    +0.244 C 
ATOM     37  H   UNL     1      -1.529   2.958  22.434  0.00  0.00    +0.149 HD
BRANCH  20  23
ATOM     23  C   UNL     1      -0.136   0.828  22.798  0.00  0.00    +0.037 A 
ATOM     25  C   UNL     1       0.563   1.847  23.447  0.00  0.00    +0.015 A 
ATOM     26  C   UNL     1       0.557  -0.249  22.244  0.00  0.00    +0.015 A 
ATOM     29  C   UNL     1       1.953   1.789  23.543  0.00  0.00    +0.024 A 
ATOM     30  C   UNL     1       1.948  -0.307  22.340  0.00  0.00    +0.024 A 
ATOM     31  C   UNL     1       2.646   0.712  22.990  0.00  0.00    +0.033 A 
BRANCH  31   6
ATOM      3  O   UNL     1       4.448  -1.505  23.941  0.00  0.00    -0.276 OA
ATOM      6  N   UNL     1       4.036   0.654  23.086  0.00  0.00    -0.286 N 
ATOM     35  C   UNL     1       4.828  -0.410  23.540  0.00  0.00    +0.214 C 
ATOM     36  C   UNL     1       6.298  -0.074  23.488  0.00  0.00    +0.109 C 
ATOM     38  H   UNL     1       4.527   1.493  22.787  0.00  0.00    +0.155 HD
ENDBRANCH  31   6
ENDBRANCH  20  23
ENDBRANCH  14   4
ENDBRANCH   8  14
BRANCH  10  15
ATOM     15  C   UNL     1      -1.995   3.462  26.927  0.00  0.00    +0.103 C 
BRANCH  15  19
ATOM      1  O   UNL     1      -2.448   1.862  25.201  0.00  0.00    -0.276 OA
ATOM      5  N   UNL     1      -0.550   1.508  26.487  0.00  0.00    -0.300 N 
ATOM     19  C   UNL     1      -1.701   2.212  26.119  0.00  0.00    +0.216 C 
ATOM     22  C   UNL     1       0.317   1.940  27.576  0.00  0.00    +0.132 C 
BRANCH   5  21
ATOM     21  C   UNL     1      -0.130   0.284  25.807  0.00  0.00    +0.142 C 
BRANCH  21  24
ATOM     24  C   UNL     1      -1.257  -0.700  25.677  0.00  0.00    -0.030 A 
ATOM     27  C   UNL     1      -2.485  -0.439  26.285  0.00  0.00    +0.005 A 
ATOM     28  C   UNL     1      -1.076  -1.876  24.949  0.00  0.00    +0.005 A 
ATOM     32  C   UNL     1      -3.532  -1.353  26.165  0.00  0.00    +0.000 A 
ATOM     33  C   UNL     1      -2.122  -2.791  24.829  0.00  0.00    +0.000 A 
ATOM     34  C   UNL     1      -3.350  -2.529  25.436  0.00  0.00    +0.000 A 
ENDBRANCH  21  24
ENDBRANCH   5  21
ENDBRANCH  15  19
ENDBRANCH  10  15
TORSDOF 9
ENDMDL
MODEL 3
REMARK VINA RESULT:       5.7      2.341      5.034
REMARK  Name = 38027180
REMARK  14 active torsions:
REMARK  status: ('A' for Active; 'I' for Inactive)
REMARK    1  A    between atoms: N_4  and  C_14
REMARK    2  A    between atoms: N_5  and  C_21
REMARK    3  A    between atoms: N_5  and  C_22
REMARK    4  A    between atoms: N_6  and  C_31
REMARK    5  A    between atoms: C_7  and  C_11
REMARK    6  A    between atoms: C_8  and  C_14
REMARK    7  A    between atoms: C_10  and  C_15
REMARK    8  A    between atoms: C_11  and  C_16
REMARK    9  A    between atoms: C_11  and  C_17
REMARK   10  A    between atoms: C_12  and  C_18
REMARK   11  A    between atoms: C_15  and  C_19
REMARK   12  A    between atoms: C_20  and  C_23
REMARK   13  A    between atoms: C_21  and  C_24
REMARK   14  A    between atoms: C_35  and  C_36
REMARK                            x       y       z     vdW  Elec       q    Type
REMARK                         _______ _______ _______ _____ _____    ______ ____
ROOT
ATOM      7  C   UNL     1      -4.497   2.512  25.452  0.00  0.00    +0.000 C 
ATOM      8  C   UNL     1      -4.452   1.229  24.586  0.00  0.00    +0.032 C 
ATOM      9  C   UNL     1      -4.654   3.755  24.562  0.00  0.00    +0.012 C 
ATOM     10  C   UNL     1      -3.506   3.892  23.545  0.00  0.00    +0.023 C 
ATOM     12  C   UNL     1      -3.222   2.583  22.836  0.00  0.00    -0.073 C 
ATOM     13  C   UNL     1      -3.664   1.404  23.309  0.00  0.00    -0.022 C 
ATOM     18  C   UNL     1      -2.456   2.665  21.546  0.00  0.00    +0.039 C 
ENDROOT
BRANCH   7  11
ATOM     11  C   UNL     1      -5.630   2.464  26.482  0.00  0.00    -0.013 C 
ATOM     16  C   UNL     1      -6.446   3.752  26.434  0.00  0.00    +0.007 C 
ATOM     17  C   UNL     1      -6.520   1.250  26.237  0.00  0.00    +0.007 C 
ENDBRANCH   7  11
BRANCH   8  14
ATOM     14  C   UNL     1      -3.883   0.046  25.378  0.00  0.00    +0.112 C 
BRANCH  14   4
ATOM      2  O   UNL     1      -2.626  -2.079  23.913  0.00  0.00    -0.270 OA
ATOM      4  N   UNL     1      -2.449  -0.086  25.081  0.00  0.00    -0.311 N 
ATOM     20  C   UNL     1      -1.960  -1.152  24.367  0.00  0.00    +0.244 C 
ATOM     37  H   UNL     1      -1.851   0.693  25.333  0.00  0.00    +0.149 HD
BRANCH  20  23
ATOM     23  C   UNL     1      -0.487  -1.153  24.174  0.00  0.00    +0.037 A 
ATOM     25  C   UNL     1       0.091  -0.320  23.216  0.00  0.00    +0.015 A 
ATOM     26  C   UNL     1       0.318  -1.986  24.951  0.00  0.00    +0.015 A 
ATOM     29  C   UNL     1       1.474  -0.321  23.034  0.00  0.00    +0.024 A 
ATOM     30  C   UNL     1       1.701  -1.987  24.769  0.00  0.00    +0.024 A 
ATOM     31  C   UNL     1       2.279  -1.154  23.811  0.00  0.00    +0.033 A 
BRANCH  31   6
ATOM      3  O   UNL     1       4.183   1.122  23.299  0.00  0.00    -0.276 OA
ATOM      6  N   UNL     1       3.662  -1.153  23.630  0.00  0.00    -0.286 N 
ATOM     35  C   UNL     1       4.503  -0.058  23.391  0.00  0.00    +0.214 C 
ATOM     36  C   UNL     1       5.945  -0.480  23.251  0.00  0.00    +0.109 C 
ATOM     38  H   UNL     1       4.106  -2.067  23.678  0.00  0.00    +0.155 HD
ENDBRANCH  31   6
ENDBRANCH  20  23
ENDBRANCH  14   4
ENDBRANCH   8  14
BRANCH  10  15
ATOM     15  C   UNL     1      -2.240   4.441  24.212  0.00  0.00    +0.103 C 
BRANCH  15  19
ATOM      1  O   UNL     1      -0.535   2.883  23.572  0.00  0.00    -0.276 OA
ATOM      5  N   UNL     1      -1.109   2.943  25.819  0.00  0.00    -0.300 N 
ATOM     19  C   UNL     1      -1.216   3.355  24.486  0.00  0.00    +0.216 C 
ATOM     22  C   UNL     1      -1.925   3.515  26.882  0.00  0.00    +0.132 C 
BRANCH   5  21
ATOM     21  C   UNL     1      -0.171   1.907  26.245  0.00  0.00    +0.142 C 
BRANCH  21  24
ATOM     24  C   UNL     1       0.636   2.336  27.437  0.00  0.00    -0.030 A 
ATOM     27  C   UNL     1       0.205   2.012  28.723  0.00  0.00    +0.005 A 
ATOM     28  C   UNL     1       1.815   3.059  27.257  0.00  0.00    +0.005 A 
ATOM     32  C   UNL     1       0.954   2.411  29.830  0.00  0.00    +0.000 A 
ATOM     33  C   UNL     1       2.564   3.458  28.364  0.00  0.00    +0.000 A 
ATOM     34  C   UNL     1       2.134   3.134  29.650  0.00  0.00    +0.000 A 
ENDBRANCH  21  24
ENDBRANCH   5  21
ENDBRANCH  15  19
ENDBRANCH  10  15
TORSDOF 9
ENDMDL
MODEL 4
REMARK VINA RESULT:       5.9      1.432      4.198
REMARK  Name = 38027180
REMARK  14 active torsions:
REMARK  status: ('A' for Active; 'I' for Inactive)
REMARK    1  A    between atoms: N_4  and  C_14
REMARK    2  A    between atoms: N_5  and  C_21
REMARK    3  A    between atoms: N_5  and  C_22
REMARK    4  A    between atoms: N_6  and  C_31
REMARK    5  A    between atoms: C_7  and  C_11
REMARK    6  A    between atoms: C_8  and  C_14
REMARK    7  A    between atoms: C_10  and  C_15
REMARK    8  A    between atoms: C_11  and  C_16
REMARK    9  A    between atoms: C_11  and  C_17
REMARK   10  A    between atoms: C_12  and  C_18
REMARK   11  A    between atoms: C_15  and  C_19
REMARK   12  A    between atoms: C_20  and  C_23
REMARK   13  A    between atoms: C_21  and  C_24
REMARK   14  A    between atoms: C_35  and  C_36
REMARK                            x       y       z     vdW  Elec       q    Type
REMARK                         _______ _______ _______ _____ _____    ______ ____
ROOT
ATOM      7  C   UNL     1      -2.781   2.647  23.516  0.00  0.00    +0.000 C 
ATOM      8  C   UNL     1      -1.396   2.417  24.170  0.00  0.00    +0.032 C 
ATOM      9  C   UNL     1      -3.399   3.961  24.019  0.00  0.00    +0.012 C 
ATOM     10  C   UNL     1      -3.572   3.975  25.550  0.00  0.00    +0.023 C 
ATOM     12  C   UNL     1      -2.323   3.498  26.262  0.00  0.00    -0.073 C 
ATOM     13  C   UNL     1      -1.355   2.814  25.627  0.00  0.00    -0.022 C 
ATOM     18  C   UNL     1      -2.191   3.864  27.714  0.00  0.00    +0.039 C 
ENDROOT
BRANCH   7  11
ATOM     11  C   UNL     1      -2.692   2.667  21.987  0.00  0.00    -0.013 C 
ATOM     16  C   UNL     1      -2.541   1.250  21.444  0.00  0.00    +0.007 C 
ATOM     17  C   UNL     1      -3.922   3.347  21.393  0.00  0.00    +0.007 C 
ENDBRANCH   7  11
BRANCH   8  14
ATOM     14  C   UNL     1      -0.954   0.955  24.028  0.00  0.00    +0.112 C 
BRANCH  14   4
ATOM      2  O   UNL     1       0.662  -0.679  22.306  0.00  0.00    -0.270 OA
ATOM      4  N   UNL     1       0.516   0.898  23.996  0.00  0.00    -0.311 N 
ATOM     20  C   UNL     1       1.183   0.074  23.124  0.00  0.00    +0.244 C 
ATOM     37  H   UNL     1       1.017   1.568  24.570  0.00  0.00    +0.149 HD
BRANCH  20  23
ATOM     23  C   UNL     1       2.664   0.113  23.236  0.00  0.00    +0.037 A 
ATOM     25  C   UNL     1       3.361   1.264  22.867  0.00  0.00    +0.015 A 
ATOM     26  C   UNL     1       3.358  -1.001  23.709  0.00  0.00    +0.015 A 
ATOM     29  C   UNL     1       4.751   1.302  22.971  0.00  0.00    +0.024 A 
ATOM     30  C   UNL     1       4.748  -0.964  23.813  0.00  0.00    +0.024 A 
ATOM     31  C   UNL     1       5.445   0.188  23.444  0.00  0.00    +0.033 A 
BRANCH  31   6
ATOM      3  O   UNL     1       7.560  -1.353  21.955  0.00  0.00    -0.276 OA
ATOM      6  N   UNL     1       6.835   0.226  23.549  0.00  0.00    -0.286 N 
ATOM     35  C   UNL     1       7.778  -0.519  22.827  0.00  0.00    +0.214 C 
ATOM     36  C   UNL     1       9.190  -0.183  23.239  0.00  0.00    +0.109 C 
ATOM     38  H   UNL     1       7.201   0.878  24.238  0.00  0.00    +0.155 HD
ENDBRANCH  31   6
ENDBRANCH  20  23
ENDBRANCH  14   4
ENDBRANCH   8  14
BRANCH  10  15
ATOM     15  C   UNL     1      -4.794   3.154  25.974  0.00  0.00    +0.103 C 
BRANCH  15  19
ATOM      1  O   UNL     1      -5.893   2.477  23.955  0.00  0.00    -0.276 OA
ATOM      5  N   UNL     1      -4.747   0.834  25.125  0.00  0.00    -0.300 N 
ATOM     19  C   UNL     1      -5.203   2.141  24.920  0.00  0.00    +0.216 C 
ATOM     22  C   UNL     1      -3.932   0.461  26.275  0.00  0.00    +0.132 C 
BRANCH   5  21
ATOM     21  C   UNL     1      -5.055  -0.256  24.202  0.00  0.00    +0.142 C 
BRANCH  21  24
ATOM     24  C   UNL     1      -4.014  -1.337  24.242  0.00  0.00    -0.030 A 
ATOM     27  C   UNL     1      -2.705  -1.031  24.617  0.00  0.00    +0.005 A 
ATOM     28  C   UNL     1      -4.355  -2.646  23.904  0.00  0.00    +0.005 A 
ATOM     32  C   UNL     1      -1.738  -2.036  24.654  0.00  0.00    +0.000 A 
ATOM     33  C   UNL     1      -3.387  -3.651  23.941  0.00  0.00    +0.000 A 
ATOM     34  C   UNL     1      -2.079  -3.345  24.316  0.00  0.00    +0.000 A 
ENDBRANCH  21  24
ENDBRANCH   5  21
ENDBRANCH  15  19
ENDBRANCH  10  15
TORSDOF 9
ENDMDL
