MODEL 1
REMARK VINA RESULT:      -4.9      0.000      0.000
REMARK  Name = 56775505
REMARK  9 active torsions:
REMARK  status: ('A' for Active; 'I' for Inactive)
REMARK    1  A    between atoms: O_4  and  C_16
REMARK    2  A    between atoms: N_5  and  C_7
REMARK    3  A    between atoms: N_5  and  C_12
REMARK    4  A    between atoms: C_7  and  C_10
REMARK    5  A    between atoms: C_10  and  C_11
REMARK    6  A    between atoms: C_12  and  C_15
REMARK    7  A    between atoms: C_14  and  C_16
REMARK    8  A    between atoms: C_16  and  C_17
REMARK    9  A    between atoms: C_16  and  C_18
REMARK                            x       y       z     vdW  Elec       q    Type
REMARK                         _______ _______ _______ _____ _____    ______ ____
ROOT
ATOM      2  O   UNL     1      -1.713   5.717  25.232  0.00  0.00    -0.376 OA
ATOM      7  C   UNL     1      -1.625   3.588  25.111  0.00  0.00    +0.072 C 
ATOM      8  C   UNL     1      -0.786   4.773  24.649  0.00  0.00    +0.184 C 
ATOM      9  C   UNL     1      -2.504   4.639  25.781  0.00  0.00    +0.184 C 
ENDROOT
BRANCH   7   5
ATOM      5  N   UNL     1      -2.343   3.039  23.957  0.00  0.00    -0.302 NA
ATOM     24  H   UNL     1      -1.846   2.310  23.446  0.00  0.00    +0.123 HD
BRANCH   5  12
ATOM     12  C   UNL     1      -3.645   2.535  24.398  0.00  0.00    +0.117 C 
BRANCH  12  15
ATOM      1 CL   UNL     1      -3.854  -3.462  24.492  0.00  0.00    -0.084 Cl
ATOM     15  C   UNL     1      -3.698   1.046  24.422  0.00  0.00    -0.033 A 
ATOM     19  C   UNL     1      -3.533   0.323  23.239  0.00  0.00    +0.006 A 
ATOM     20  C   UNL     1      -3.911   0.373  25.626  0.00  0.00    +0.006 A 
ATOM     21  C   UNL     1      -3.582  -1.071  23.262  0.00  0.00    +0.020 A 
ATOM     22  C   UNL     1      -3.961  -1.020  25.648  0.00  0.00    +0.020 A 
ATOM     23  C   UNL     1      -3.796  -1.742  24.466  0.00  0.00    +0.041 A 
ENDBRANCH  12  15
ENDBRANCH   5  12
ENDBRANCH   7   5
BRANCH   7  10
ATOM     10  C   UNL     1      -0.986   2.530  25.958  0.00  0.00    +0.085 C 
BRANCH  10  11
ATOM      3  O   UNL     1       0.279  -0.344  24.169  0.00  0.00    -0.356 OA
ATOM      6  N   UNL     1      -0.625   0.272  25.026  0.00  0.00    -0.083 NA
ATOM     11  C   UNL     1      -0.221   1.544  25.099  0.00  0.00    +0.086 A 
ATOM     13  C   UNL     1       0.923   1.786  24.318  0.00  0.00    +0.074 A 
ATOM     14  C   UNL     1       1.196   0.568  23.755  0.00  0.00    +0.168 A 
BRANCH  14  16
ATOM     16  C   UNL     1       2.233   0.082  22.837  0.00  0.00    +0.120 C 
ATOM     17  C   UNL     1       1.665  -0.362  21.458  0.00  0.00    +0.049 C 
ATOM     18  C   UNL     1       3.361   1.127  22.588  0.00  0.00    +0.049 C 
BRANCH  16   4
ATOM      4  O   UNL     1       2.925  -1.091  23.347  0.00  0.00    -0.381 OA
ATOM     25  H   UNL     1       2.330  -1.553  23.963  0.00  0.00    +0.211 HD
ENDBRANCH  16   4
ENDBRANCH  14  16
ENDBRANCH  10  11
ENDBRANCH   7  10
TORSDOF 7
ENDMDL
MODEL 2
REMARK VINA RESULT:      -4.8      3.315      6.535
REMARK  Name = 56775505
REMARK  9 active torsions:
REMARK  status: ('A' for Active; 'I' for Inactive)
REMARK    1  A    between atoms: O_4  and  C_16
REMARK    2  A    between atoms: N_5  and  C_7
REMARK    3  A    between atoms: N_5  and  C_12
REMARK    4  A    between atoms: C_7  and  C_10
REMARK    5  A    between atoms: C_10  and  C_11
REMARK    6  A    between atoms: C_12  and  C_15
REMARK    7  A    between atoms: C_14  and  C_16
REMARK    8  A    between atoms: C_16  and  C_17
REMARK    9  A    between atoms: C_16  and  C_18
REMARK                            x       y       z     vdW  Elec       q    Type
REMARK                         _______ _______ _______ _____ _____    ______ ____
ROOT
ATOM      2  O   UNL     1      -2.278  -3.695  24.451  0.00  0.00    -0.376 OA
ATOM      7  C   UNL     1      -2.895  -1.652  24.513  0.00  0.00    +0.072 C 
ATOM      8  C   UNL     1      -1.779  -2.468  23.870  0.00  0.00    +0.184 C 
ATOM      9  C   UNL     1      -3.414  -2.998  25.011  0.00  0.00    +0.184 C 
ENDROOT
BRANCH   7   5
ATOM      5  N   UNL     1      -2.342  -0.910  25.649  0.00  0.00    -0.302 NA
ATOM     24  H   UNL     1      -2.359  -1.407  26.539  0.00  0.00    +0.123 HD
BRANCH   5  12
ATOM     12  C   UNL     1      -0.972  -0.504  25.335  0.00  0.00    +0.117 C 
BRANCH  12  15
ATOM      1 CL   UNL     1      -0.464   5.433  24.615  0.00  0.00    -0.084 Cl
ATOM     15  C   UNL     1      -0.845   0.971  25.157  0.00  0.00    -0.033 A 
ATOM     19  C   UNL     1      -0.689   1.508  23.878  0.00  0.00    +0.006 A 
ATOM     20  C   UNL     1      -0.882   1.815  26.267  0.00  0.00    +0.006 A 
ATOM     21  C   UNL     1      -0.570   2.888  23.711  0.00  0.00    +0.020 A 
ATOM     22  C   UNL     1      -0.763   3.194  26.101  0.00  0.00    +0.020 A 
ATOM     23  C   UNL     1      -0.608   3.731  24.823  0.00  0.00    +0.041 A 
ENDBRANCH  12  15
ENDBRANCH   5  12
ENDBRANCH   7   5
BRANCH   7  10
ATOM     10  C   UNL     1      -3.778  -0.813  23.641  0.00  0.00    +0.085 C 
BRANCH  10  11
ATOM      3  O   UNL     1      -5.254   1.624  25.864  0.00  0.00    -0.356 OA
ATOM      6  N   UNL     1      -5.036   0.319  25.438  0.00  0.00    -0.083 NA
ATOM     11  C   UNL     1      -4.234   0.430  24.376  0.00  0.00    +0.086 A 
ATOM     13  C   UNL     1      -3.915   1.769  24.086  0.00  0.00    +0.074 A 
ATOM     14  C   UNL     1      -4.581   2.478  25.051  0.00  0.00    +0.168 A 
BRANCH  14  16
ATOM     16  C   UNL     1      -4.701   3.907  25.359  0.00  0.00    +0.120 C 
ATOM     17  C   UNL     1      -3.821   4.345  26.567  0.00  0.00    +0.049 C 
ATOM     18  C   UNL     1      -4.358   4.822  24.147  0.00  0.00    +0.049 C 
BRANCH  16   4
ATOM      4  O   UNL     1      -6.055   4.286  25.733  0.00  0.00    -0.381 OA
ATOM     25  H   UNL     1      -6.505   4.630  24.942  0.00  0.00    +0.211 HD
ENDBRANCH  16   4
ENDBRANCH  14  16
ENDBRANCH  10  11
ENDBRANCH   7  10
TORSDOF 7
ENDMDL
MODEL 3
REMARK VINA RESULT:      -4.2      2.816      4.981
REMARK  Name = 56775505
REMARK  9 active torsions:
REMARK  status: ('A' for Active; 'I' for Inactive)
REMARK    1  A    between atoms: O_4  and  C_16
REMARK    2  A    between atoms: N_5  and  C_7
REMARK    3  A    between atoms: N_5  and  C_12
REMARK    4  A    between atoms: C_7  and  C_10
REMARK    5  A    between atoms: C_10  and  C_11
REMARK    6  A    between atoms: C_12  and  C_15
REMARK    7  A    between atoms: C_14  and  C_16
REMARK    8  A    between atoms: C_16  and  C_17
REMARK    9  A    between atoms: C_16  and  C_18
REMARK                            x       y       z     vdW  Elec       q    Type
REMARK                         _______ _______ _______ _____ _____    ______ ____
ROOT
ATOM      2  O   UNL     1      -6.611   4.273  26.040  0.00  0.00    -0.376 OA
ATOM      7  C   UNL     1      -4.736   3.589  25.284  0.00  0.00    +0.072 C 
ATOM      8  C   UNL     1      -6.033   2.970  25.793  0.00  0.00    +0.184 C 
ATOM      9  C   UNL     1      -5.448   4.923  25.481  0.00  0.00    +0.184 C 
ENDROOT
BRANCH   7   5
ATOM      5  N   UNL     1      -3.707   3.446  26.317  0.00  0.00    -0.302 NA
ATOM     24  H   UNL     1      -3.394   2.491  26.486  0.00  0.00    +0.123 HD
BRANCH   5  12
ATOM     12  C   UNL     1      -2.562   4.290  25.973  0.00  0.00    +0.117 C 
BRANCH  12  15
ATOM      1 CL   UNL     1       1.939   1.142  23.554  0.00  0.00    -0.084 Cl
ATOM     15  C   UNL     1      -1.443   3.509  25.372  0.00  0.00    -0.033 A 
ATOM     19  C   UNL     1      -1.088   2.271  25.911  0.00  0.00    +0.006 A 
ATOM     20  C   UNL     1      -0.751   4.014  24.271  0.00  0.00    +0.006 A 
ATOM     21  C   UNL     1      -0.042   1.541  25.349  0.00  0.00    +0.020 A 
ATOM     22  C   UNL     1       0.296   3.283  23.709  0.00  0.00    +0.020 A 
ATOM     23  C   UNL     1       0.650   2.046  24.248  0.00  0.00    +0.041 A 
ENDBRANCH  12  15
ENDBRANCH   5  12
ENDBRANCH   7   5
BRANCH   7  10
ATOM     10  C   UNL     1      -4.245   3.224  23.916  0.00  0.00    +0.085 C 
BRANCH  10  11
ATOM      3  O   UNL     1      -2.559   0.097  23.256  0.00  0.00    -0.356 OA
ATOM      6  N   UNL     1      -2.796   1.443  23.008  0.00  0.00    -0.083 NA
ATOM     11  C   UNL     1      -3.733   1.799  23.892  0.00  0.00    +0.086 A 
ATOM     13  C   UNL     1      -4.122   0.728  24.716  0.00  0.00    +0.074 A 
ATOM     14  C   UNL     1      -3.354  -0.317  24.276  0.00  0.00    +0.168 A 
BRANCH  14  16
ATOM     16  C   UNL     1      -3.231  -1.725  24.672  0.00  0.00    +0.120 C 
ATOM     17  C   UNL     1      -4.216  -2.659  23.910  0.00  0.00    +0.049 C 
ATOM     18  C   UNL     1      -1.789  -2.283  24.493  0.00  0.00    +0.049 C 
BRANCH  16   4
ATOM      4  O   UNL     1      -3.535  -1.938  26.079  0.00  0.00    -0.381 OA
ATOM     25  H   UNL     1      -3.509  -2.894  26.255  0.00  0.00    +0.211 HD
ENDBRANCH  16   4
ENDBRANCH  14  16
ENDBRANCH  10  11
ENDBRANCH   7  10
TORSDOF 7
ENDMDL
MODEL 4
REMARK VINA RESULT:      -4.1      2.999      5.225
REMARK  Name = 56775505
REMARK  9 active torsions:
REMARK  status: ('A' for Active; 'I' for Inactive)
REMARK    1  A    between atoms: O_4  and  C_16
REMARK    2  A    between atoms: N_5  and  C_7
REMARK    3  A    between atoms: N_5  and  C_12
REMARK    4  A    between atoms: C_7  and  C_10
REMARK    5  A    between atoms: C_10  and  C_11
REMARK    6  A    between atoms: C_12  and  C_15
REMARK    7  A    between atoms: C_14  and  C_16
REMARK    8  A    between atoms: C_16  and  C_17
REMARK    9  A    between atoms: C_16  and  C_18
REMARK                            x       y       z     vdW  Elec       q    Type
REMARK                         _______ _______ _______ _____ _____    ______ ____
ROOT
ATOM      2  O   UNL     1      -4.058  -3.767  24.335  0.00  0.00    -0.376 OA
ATOM      7  C   UNL     1      -2.723  -2.159  24.765  0.00  0.00    +0.072 C 
ATOM      8  C   UNL     1      -3.298  -3.366  25.497  0.00  0.00    +0.184 C 
ATOM      9  C   UNL     1      -3.478  -2.697  23.555  0.00  0.00    +0.184 C 
ENDROOT
BRANCH   7   5
ATOM      5  N   UNL     1      -3.400  -0.950  25.244  0.00  0.00    -0.302 NA
ATOM     24  H   UNL     1      -2.832  -0.340  25.831  0.00  0.00    +0.123 HD
BRANCH   5  12
ATOM     12  C   UNL     1      -3.909  -0.199  24.095  0.00  0.00    +0.117 C 
BRANCH  12  15
ATOM      1 CL   UNL     1      -5.970   5.221  25.642  0.00  0.00    -0.084 Cl
ATOM     15  C   UNL     1      -4.421   1.147  24.480  0.00  0.00    -0.033 A 
ATOM     19  C   UNL     1      -3.896   2.292  23.879  0.00  0.00    +0.006 A 
ATOM     20  C   UNL     1      -5.426   1.264  25.442  0.00  0.00    +0.006 A 
ATOM     21  C   UNL     1      -4.374   3.551  24.239  0.00  0.00    +0.020 A 
ATOM     22  C   UNL     1      -5.904   2.523  25.802  0.00  0.00    +0.020 A 
ATOM     23  C   UNL     1      -5.379   3.667  25.201  0.00  0.00    +0.041 A 
ENDBRANCH  12  15
ENDBRANCH   5  12
ENDBRANCH   7   5
BRANCH   7  10
ATOM     10  C   UNL     1      -1.236  -2.000  24.681  0.00  0.00    +0.085 C 
BRANCH  10  11
ATOM      3  O   UNL     1      -0.058   1.323  23.887  0.00  0.00    -0.356 OA
ATOM      6  N   UNL     1      -0.269  -0.014  23.576  0.00  0.00    -0.083 NA
ATOM     11  C   UNL     1      -0.852  -0.534  24.659  0.00  0.00    +0.086 A 
ATOM     13  C   UNL     1      -1.033   0.419  25.677  0.00  0.00    +0.074 A 
ATOM     14  C   UNL     1      -0.517   1.569  25.141  0.00  0.00    +0.168 A 
BRANCH  14  16
ATOM     16  C   UNL     1      -0.373   2.944  25.633  0.00  0.00    +0.120 C 
ATOM     17  C   UNL     1      -0.091   3.970  24.497  0.00  0.00    +0.049 C 
ATOM     18  C   UNL     1      -1.613   3.434  26.438  0.00  0.00    +0.049 C 
BRANCH  16   4
ATOM      4  O   UNL     1       0.745   3.093  26.552  0.00  0.00    -0.381 OA
ATOM     25  H   UNL     1       1.522   2.659  26.160  0.00  0.00    +0.211 HD
ENDBRANCH  16   4
ENDBRANCH  14  16
ENDBRANCH  10  11
ENDBRANCH   7  10
TORSDOF 7
ENDMDL
MODEL 5
REMARK VINA RESULT:      -3.8      3.180      6.648
REMARK  Name = 56775505
REMARK  9 active torsions:
REMARK  status: ('A' for Active; 'I' for Inactive)
REMARK    1  A    between atoms: O_4  and  C_16
REMARK    2  A    between atoms: N_5  and  C_7
REMARK    3  A    between atoms: N_5  and  C_12
REMARK    4  A    between atoms: C_7  and  C_10
REMARK    5  A    between atoms: C_10  and  C_11
REMARK    6  A    between atoms: C_12  and  C_15
REMARK    7  A    between atoms: C_14  and  C_16
REMARK    8  A    between atoms: C_16  and  C_17
REMARK    9  A    between atoms: C_16  and  C_18
REMARK                            x       y       z     vdW  Elec       q    Type
REMARK                         _______ _______ _______ _____ _____    ______ ____
ROOT
ATOM      2  O   UNL     1      -2.845  -3.179  25.523  0.00  0.00    -0.376 OA
ATOM      7  C   UNL     1      -1.979  -1.411  24.698  0.00  0.00    +0.072 C 
ATOM      8  C   UNL     1      -1.824  -2.918  24.532  0.00  0.00    +0.184 C 
ATOM      9  C   UNL     1      -3.109  -1.764  25.660  0.00  0.00    +0.184 C 
ENDROOT
BRANCH   7   5
ATOM      5  N   UNL     1      -0.843  -0.902  25.471  0.00  0.00    -0.302 NA
ATOM     24  H   UNL     1      -0.270  -1.617  25.919  0.00  0.00    +0.123 HD
BRANCH   5  12
ATOM     12  C   UNL     1      -0.008  -0.069  24.605  0.00  0.00    +0.117 C 
BRANCH  12  15
ATOM      1 CL   UNL     1      -1.267   5.773  25.151  0.00  0.00    -0.084 Cl
ATOM     15  C   UNL     1      -0.320   1.382  24.741  0.00  0.00    -0.033 A 
ATOM     19  C   UNL     1       0.058   2.275  23.737  0.00  0.00    +0.006 A 
ATOM     20  C   UNL     1      -0.990   1.849  25.873  0.00  0.00    +0.006 A 
ATOM     21  C   UNL     1      -0.234   3.632  23.865  0.00  0.00    +0.020 A 
ATOM     22  C   UNL     1      -1.282   3.207  26.000  0.00  0.00    +0.020 A 
ATOM     23  C   UNL     1      -0.905   4.098  24.997  0.00  0.00    +0.041 A 
ENDBRANCH  12  15
ENDBRANCH   5  12
ENDBRANCH   7   5
BRANCH   7  10
ATOM     10  C   UNL     1      -2.287  -0.575  23.494  0.00  0.00    +0.085 C 
BRANCH  10  11
ATOM      3  O   UNL     1      -4.285   2.426  23.746  0.00  0.00    -0.356 OA
ATOM      6  N   UNL     1      -3.240   1.686  23.208  0.00  0.00    -0.083 NA
ATOM     11  C   UNL     1      -3.293   0.506  23.833  0.00  0.00    +0.086 A 
ATOM     13  C   UNL     1      -4.342   0.445  24.768  0.00  0.00    +0.074 A 
ATOM     14  C   UNL     1      -4.935   1.676  24.673  0.00  0.00    +0.168 A 
BRANCH  14  16
ATOM     16  C   UNL     1      -6.075   2.309  25.345  0.00  0.00    +0.120 C 
ATOM     17  C   UNL     1      -6.317   1.757  26.781  0.00  0.00    +0.049 C 
ATOM     18  C   UNL     1      -5.947   3.859  25.432  0.00  0.00    +0.049 C 
BRANCH  16   4
ATOM      4  O   UNL     1      -7.331   2.083  24.646  0.00  0.00    -0.381 OA
ATOM     25  H   UNL     1      -7.338   1.166  24.322  0.00  0.00    +0.211 HD
ENDBRANCH  16   4
ENDBRANCH  14  16
ENDBRANCH  10  11
ENDBRANCH   7  10
TORSDOF 7
ENDMDL
MODEL 6
REMARK VINA RESULT:      -3.6      2.724      4.383
REMARK  Name = 56775505
REMARK  9 active torsions:
REMARK  status: ('A' for Active; 'I' for Inactive)
REMARK    1  A    between atoms: O_4  and  C_16
REMARK    2  A    between atoms: N_5  and  C_7
REMARK    3  A    between atoms: N_5  and  C_12
REMARK    4  A    between atoms: C_7  and  C_10
REMARK    5  A    between atoms: C_10  and  C_11
REMARK    6  A    between atoms: C_12  and  C_15
REMARK    7  A    between atoms: C_14  and  C_16
REMARK    8  A    between atoms: C_16  and  C_17
REMARK    9  A    between atoms: C_16  and  C_18
REMARK                            x       y       z     vdW  Elec       q    Type
REMARK                         _______ _______ _______ _____ _____    ______ ____
ROOT
ATOM      2  O   UNL     1      -2.679  -3.225  25.008  0.00  0.00    -0.376 OA
ATOM      7  C   UNL     1      -2.538  -1.104  24.812  0.00  0.00    +0.072 C 
ATOM      8  C   UNL     1      -3.361  -2.104  25.616  0.00  0.00    +0.184 C 
ATOM      9  C   UNL     1      -1.800  -2.331  24.287  0.00  0.00    +0.184 C 
ENDROOT
BRANCH   7   5
ATOM      5  N   UNL     1      -3.374  -0.560  23.738  0.00  0.00    -0.302 NA
ATOM     24  H   UNL     1      -4.373  -0.539  23.937  0.00  0.00    +0.123 HD
BRANCH   5  12
ATOM     12  C   UNL     1      -2.907   0.786  23.402  0.00  0.00    +0.117 C 
BRANCH  12  15
ATOM      1 CL   UNL     1      -6.264   5.068  25.933  0.00  0.00    -0.084 Cl
ATOM     15  C   UNL     1      -3.741   1.849  24.031  0.00  0.00    -0.033 A 
ATOM     19  C   UNL     1      -3.318   3.179  23.997  0.00  0.00    +0.006 A 
ATOM     20  C   UNL     1      -4.944   1.516  24.654  0.00  0.00    +0.006 A 
ATOM     21  C   UNL     1      -4.098   4.173  24.587  0.00  0.00    +0.020 A 
ATOM     22  C   UNL     1      -5.724   2.511  25.244  0.00  0.00    +0.020 A 
ATOM     23  C   UNL     1      -5.301   3.839  25.210  0.00  0.00    +0.041 A 
ENDBRANCH  12  15
ENDBRANCH   5  12
ENDBRANCH   7   5
BRANCH   7  10
ATOM     10  C   UNL     1      -1.763  -0.048  25.540  0.00  0.00    +0.085 C 
BRANCH  10  11
ATOM      3  O   UNL     1       1.062   1.582  23.984  0.00  0.00    -0.356 OA
ATOM      6  N   UNL     1      -0.089   1.592  24.763  0.00  0.00    -0.083 NA
ATOM     11  C   UNL     1      -0.511   0.324  24.773  0.00  0.00    +0.086 A 
ATOM     13  C   UNL     1       0.325  -0.522  24.024  0.00  0.00    +0.074 A 
ATOM     14  C   UNL     1       1.298   0.318  23.550  0.00  0.00    +0.168 A 
BRANCH  14  16
ATOM     16  C   UNL     1       2.484   0.125  22.707  0.00  0.00    +0.120 C 
ATOM     17  C   UNL     1       3.432   1.360  22.702  0.00  0.00    +0.049 C 
ATOM     18  C   UNL     1       3.316  -1.129  23.106  0.00  0.00    +0.049 C 
BRANCH  16   4
ATOM      4  O   UNL     1       2.147  -0.087  21.308  0.00  0.00    -0.381 OA
ATOM     25  H   UNL     1       1.178  -0.073  21.223  0.00  0.00    +0.211 HD
ENDBRANCH  16   4
ENDBRANCH  14  16
ENDBRANCH  10  11
ENDBRANCH   7  10
TORSDOF 7
ENDMDL
MODEL 7
REMARK VINA RESULT:      -3.6      1.876      2.679
REMARK  Name = 56775505
REMARK  9 active torsions:
REMARK  status: ('A' for Active; 'I' for Inactive)
REMARK    1  A    between atoms: O_4  and  C_16
REMARK    2  A    between atoms: N_5  and  C_7
REMARK    3  A    between atoms: N_5  and  C_12
REMARK    4  A    between atoms: C_7  and  C_10
REMARK    5  A    between atoms: C_10  and  C_11
REMARK    6  A    between atoms: C_12  and  C_15
REMARK    7  A    between atoms: C_14  and  C_16
REMARK    8  A    between atoms: C_16  and  C_17
REMARK    9  A    between atoms: C_16  and  C_18
REMARK                            x       y       z     vdW  Elec       q    Type
REMARK                         _______ _______ _______ _____ _____    ______ ____
ROOT
ATOM      2  O   UNL     1      -5.880   4.236  25.745  0.00  0.00    -0.376 OA
ATOM      7  C   UNL     1      -4.326   3.028  24.919  0.00  0.00    +0.072 C 
ATOM      8  C   UNL     1      -5.850   3.037  24.937  0.00  0.00    +0.184 C 
ATOM      9  C   UNL     1      -4.439   4.340  25.689  0.00  0.00    +0.184 C 
ENDROOT
BRANCH   7   5
ATOM      5  N   UNL     1      -3.850   1.985  25.832  0.00  0.00    -0.302 NA
ATOM     24  H   UNL     1      -3.755   2.274  26.806  0.00  0.00    +0.123 HD
BRANCH   5  12
ATOM     12  C   UNL     1      -4.740   0.827  25.743  0.00  0.00    +0.117 C 
BRANCH  12  15
ATOM      1 CL   UNL     1      -1.983  -3.997  23.474  0.00  0.00    -0.084 Cl
ATOM     15  C   UNL     1      -4.055  -0.371  25.179  0.00  0.00    -0.033 A 
ATOM     19  C   UNL     1      -2.856  -0.817  25.736  0.00  0.00    +0.006 A 
ATOM     20  C   UNL     1      -4.613  -1.048  24.093  0.00  0.00    +0.006 A 
ATOM     21  C   UNL     1      -2.215  -1.937  25.208  0.00  0.00    +0.020 A 
ATOM     22  C   UNL     1      -3.972  -2.168  23.565  0.00  0.00    +0.020 A 
ATOM     23  C   UNL     1      -2.773  -2.613  24.123  0.00  0.00    +0.041 A 
ENDBRANCH  12  15
ENDBRANCH   5  12
ENDBRANCH   7   5
BRANCH   7  10
ATOM     10  C   UNL     1      -3.614   3.020  23.601  0.00  0.00    +0.085 C 
BRANCH  10  11
ATOM      3  O   UNL     1      -0.230   2.104  24.477  0.00  0.00    -0.356 OA
ATOM      6  N   UNL     1      -1.362   2.900  24.605  0.00  0.00    -0.083 NA
ATOM     11  C   UNL     1      -2.241   2.395  23.735  0.00  0.00    +0.086 A 
ATOM     13  C   UNL     1      -1.724   1.290  23.035  0.00  0.00    +0.074 A 
ATOM     14  C   UNL     1      -0.458   1.149  23.539  0.00  0.00    +0.168 A 
BRANCH  14  16
ATOM     16  C   UNL     1       0.642   0.214  23.275  0.00  0.00    +0.120 C 
ATOM     17  C   UNL     1       0.524  -0.487  21.890  0.00  0.00    +0.049 C 
ATOM     18  C   UNL     1       2.045   0.885  23.366  0.00  0.00    +0.049 C 
BRANCH  16   4
ATOM      4  O   UNL     1       0.693  -0.875  24.237  0.00  0.00    -0.381 OA
ATOM     25  H   UNL     1       1.626  -1.055  24.445  0.00  0.00    +0.211 HD
ENDBRANCH  16   4
ENDBRANCH  14  16
ENDBRANCH  10  11
ENDBRANCH   7  10
TORSDOF 7
ENDMDL
MODEL 8
REMARK VINA RESULT:      -3.6      1.911      2.406
REMARK  Name = 56775505
REMARK  9 active torsions:
REMARK  status: ('A' for Active; 'I' for Inactive)
REMARK    1  A    between atoms: O_4  and  C_16
REMARK    2  A    between atoms: N_5  and  C_7
REMARK    3  A    between atoms: N_5  and  C_12
REMARK    4  A    between atoms: C_7  and  C_10
REMARK    5  A    between atoms: C_10  and  C_11
REMARK    6  A    between atoms: C_12  and  C_15
REMARK    7  A    between atoms: C_14  and  C_16
REMARK    8  A    between atoms: C_16  and  C_17
REMARK    9  A    between atoms: C_16  and  C_18
REMARK                            x       y       z     vdW  Elec       q    Type
REMARK                         _______ _______ _______ _____ _____    ______ ____
ROOT
ATOM      2  O   UNL     1      -2.019   6.055  25.371  0.00  0.00    -0.376 OA
ATOM      7  C   UNL     1      -1.190   4.118  25.031  0.00  0.00    +0.072 C 
ATOM      8  C   UNL     1      -0.862   5.559  24.659  0.00  0.00    +0.184 C 
ATOM      9  C   UNL     1      -2.333   4.723  25.839  0.00  0.00    +0.184 C 
ENDROOT
BRANCH   7   5
ATOM      5  N   UNL     1      -1.748   3.442  23.857  0.00  0.00    -0.302 NA
ATOM     24  H   UNL     1      -1.305   2.556  23.617  0.00  0.00    +0.123 HD
BRANCH   5  12
ATOM     12  C   UNL     1      -3.184   3.239  24.058  0.00  0.00    +0.117 C 
BRANCH  12  15
ATOM      1 CL   UNL     1      -4.714  -2.561  23.862  0.00  0.00    -0.084 Cl
ATOM     15  C   UNL     1      -3.565   1.799  24.010  0.00  0.00    -0.033 A 
ATOM     19  C   UNL     1      -3.108   0.991  22.967  0.00  0.00    +0.006 A 
ATOM     20  C   UNL     1      -4.378   1.257  25.006  0.00  0.00    +0.006 A 
ATOM     21  C   UNL     1      -3.465  -0.357  22.922  0.00  0.00    +0.020 A 
ATOM     22  C   UNL     1      -4.735  -0.090  24.960  0.00  0.00    +0.020 A 
ATOM     23  C   UNL     1      -4.278  -0.897  23.918  0.00  0.00    +0.041 A 
ENDBRANCH  12  15
ENDBRANCH   5  12
ENDBRANCH   7   5
BRANCH   7  10
ATOM     10  C   UNL     1      -0.156   3.298  25.741  0.00  0.00    +0.085 C 
BRANCH  10  11
ATOM      3  O   UNL     1       0.108   0.138  24.007  0.00  0.00    -0.356 OA
ATOM      6  N   UNL     1       0.324   1.507  24.110  0.00  0.00    -0.083 NA
ATOM     11  C   UNL     1      -0.209   1.854  25.285  0.00  0.00    +0.086 A 
ATOM     13  C   UNL     1      -0.771   0.756  25.961  0.00  0.00    +0.074 A 
ATOM     14  C   UNL     1      -0.545  -0.297  25.115  0.00  0.00    +0.168 A 
BRANCH  14  16
ATOM     16  C   UNL     1      -0.856  -1.730  25.172  0.00  0.00    +0.120 C 
ATOM     17  C   UNL     1      -2.126  -2.044  26.016  0.00  0.00    +0.049 C 
ATOM     18  C   UNL     1      -1.035  -2.369  23.763  0.00  0.00    +0.049 C 
BRANCH  16   4
ATOM      4  O   UNL     1       0.203  -2.507  25.796  0.00  0.00    -0.381 OA
ATOM     25  H   UNL     1       1.011  -2.404  25.263  0.00  0.00    +0.211 HD
ENDBRANCH  16   4
ENDBRANCH  14  16
ENDBRANCH  10  11
ENDBRANCH   7  10
TORSDOF 7
ENDMDL
MODEL 9
REMARK VINA RESULT:      -3.6      3.304      7.221
REMARK  Name = 56775505
REMARK  9 active torsions:
REMARK  status: ('A' for Active; 'I' for Inactive)
REMARK    1  A    between atoms: O_4  and  C_16
REMARK    2  A    between atoms: N_5  and  C_7
REMARK    3  A    between atoms: N_5  and  C_12
REMARK    4  A    between atoms: C_7  and  C_10
REMARK    5  A    between atoms: C_10  and  C_11
REMARK    6  A    between atoms: C_12  and  C_15
REMARK    7  A    between atoms: C_14  and  C_16
REMARK    8  A    between atoms: C_16  and  C_17
REMARK    9  A    between atoms: C_16  and  C_18
REMARK                            x       y       z     vdW  Elec       q    Type
REMARK                         _______ _______ _______ _____ _____    ______ ____
ROOT
ATOM      2  O   UNL     1      -2.184  -1.708  25.471  0.00  0.00    -0.376 OA
ATOM      7  C   UNL     1      -0.938  -0.378  24.361  0.00  0.00    +0.072 C 
ATOM      8  C   UNL     1      -1.897  -1.525  24.066  0.00  0.00    +0.184 C 
ATOM      9  C   UNL     1      -1.363  -0.569  25.814  0.00  0.00    +0.184 C 
ENDROOT
BRANCH   7   5
ATOM      5  N   UNL     1       0.437  -0.860  24.206  0.00  0.00    -0.302 NA
ATOM     24  H   UNL     1       0.533  -1.871  24.113  0.00  0.00    +0.123 HD
BRANCH   5  12
ATOM     12  C   UNL     1       1.050  -0.197  23.053  0.00  0.00    +0.117 C 
BRANCH  12  15
ATOM      1 CL   UNL     1       7.039  -0.068  23.418  0.00  0.00    -0.084 Cl
ATOM     15  C   UNL     1       2.538  -0.164  23.144  0.00  0.00    -0.033 A 
ATOM     19  C   UNL     1       3.231  -1.269  23.640  0.00  0.00    +0.006 A 
ATOM     20  C   UNL     1       3.238   0.971  22.734  0.00  0.00    +0.006 A 
ATOM     21  C   UNL     1       4.623  -1.238  23.725  0.00  0.00    +0.020 A 
ATOM     22  C   UNL     1       4.630   1.002  22.819  0.00  0.00    +0.020 A 
ATOM     23  C   UNL     1       5.322  -0.103  23.315  0.00  0.00    +0.041 A 
ENDBRANCH  12  15
ENDBRANCH   5  12
ENDBRANCH   7   5
BRANCH   7  10
ATOM     10  C   UNL     1      -1.169   0.950  23.706  0.00  0.00    +0.085 C 
BRANCH  10  11
ATOM      3  O   UNL     1      -3.222   3.185  25.667  0.00  0.00    -0.356 OA
ATOM      6  N   UNL     1      -1.994   2.728  25.209  0.00  0.00    -0.083 NA
ATOM     11  C   UNL     1      -2.284   1.704  24.401  0.00  0.00    +0.086 A 
ATOM     13  C   UNL     1      -3.668   1.471  24.312  0.00  0.00    +0.074 A 
ATOM     14  C   UNL     1      -4.212   2.429  25.126  0.00  0.00    +0.168 A 
BRANCH  14  16
ATOM     16  C   UNL     1      -5.586   2.778  25.507  0.00  0.00    +0.120 C 
ATOM     17  C   UNL     1      -5.883   4.301  25.381  0.00  0.00    +0.049 C 
ATOM     18  C   UNL     1      -6.659   2.001  24.690  0.00  0.00    +0.049 C 
BRANCH  16   4
ATOM      4  O   UNL     1      -5.878   2.459  26.896  0.00  0.00    -0.381 OA
ATOM     25  H   UNL     1      -5.954   1.492  26.977  0.00  0.00    +0.211 HD
ENDBRANCH  16   4
ENDBRANCH  14  16
ENDBRANCH  10  11
ENDBRANCH   7  10
TORSDOF 7
ENDMDL
MODEL 10
REMARK VINA RESULT:      -3.5      2.455      3.808
REMARK  Name = 56775505
REMARK  9 active torsions:
REMARK  status: ('A' for Active; 'I' for Inactive)
REMARK    1  A    between atoms: O_4  and  C_16
REMARK    2  A    between atoms: N_5  and  C_7
REMARK    3  A    between atoms: N_5  and  C_12
REMARK    4  A    between atoms: C_7  and  C_10
REMARK    5  A    between atoms: C_10  and  C_11
REMARK    6  A    between atoms: C_12  and  C_15
REMARK    7  A    between atoms: C_14  and  C_16
REMARK    8  A    between atoms: C_16  and  C_17
REMARK    9  A    between atoms: C_16  and  C_18
REMARK                            x       y       z     vdW  Elec       q    Type
REMARK                         _______ _______ _______ _____ _____    ______ ____
ROOT
ATOM      2  O   UNL     1      -0.963   5.524  24.959  0.00  0.00    -0.376 OA
ATOM      7  C   UNL     1      -0.909   3.404  24.722  0.00  0.00    +0.072 C 
ATOM      8  C   UNL     1      -0.088   4.605  24.268  0.00  0.00    +0.184 C 
ATOM      9  C   UNL     1      -1.730   4.426  25.502  0.00  0.00    +0.184 C 
ENDROOT
BRANCH   7   5
ATOM      5  N   UNL     1      -1.708   2.923  23.591  0.00  0.00    -0.302 NA
ATOM     24  H   UNL     1      -1.889   1.920  23.585  0.00  0.00    +0.123 HD
BRANCH   5  12
ATOM     12  C   UNL     1      -2.974   3.655  23.552  0.00  0.00    +0.117 C 
BRANCH  12  15
ATOM      1 CL   UNL     1      -7.115   1.247  27.168  0.00  0.00    -0.084 Cl
ATOM     15  C   UNL     1      -4.003   3.056  24.451  0.00  0.00    -0.033 A 
ATOM     19  C   UNL     1      -4.636   3.847  25.410  0.00  0.00    +0.006 A 
ATOM     20  C   UNL     1      -4.332   1.706  24.333  0.00  0.00    +0.006 A 
ATOM     21  C   UNL     1      -5.598   3.287  26.251  0.00  0.00    +0.020 A 
ATOM     22  C   UNL     1      -5.293   1.145  25.173  0.00  0.00    +0.020 A 
ATOM     23  C   UNL     1      -5.927   1.936  26.132  0.00  0.00    +0.041 A 
ENDBRANCH  12  15
ENDBRANCH   5  12
ENDBRANCH   7   5
BRANCH   7  10
ATOM     10  C   UNL     1      -0.229   2.297  25.469  0.00  0.00    +0.085 C 
BRANCH  10  11
ATOM      3  O   UNL     1      -0.757  -0.889  23.850  0.00  0.00    -0.356 OA
ATOM      6  N   UNL     1      -0.050   0.291  24.041  0.00  0.00    -0.083 NA
ATOM     11  C   UNL     1      -0.720   0.946  24.993  0.00  0.00    +0.086 A 
ATOM     13  C   UNL     1      -1.849   0.234  25.436  0.00  0.00    +0.074 A 
ATOM     14  C   UNL     1      -1.826  -0.912  24.686  0.00  0.00    +0.168 A 
BRANCH  14  16
ATOM     16  C   UNL     1      -2.689  -2.097  24.616  0.00  0.00    +0.120 C 
ATOM     17  C   UNL     1      -3.171  -2.582  26.014  0.00  0.00    +0.049 C 
ATOM     18  C   UNL     1      -3.940  -1.886  23.713  0.00  0.00    +0.049 C 
BRANCH  16   4
ATOM      4  O   UNL     1      -2.010  -3.248  24.040  0.00  0.00    -0.381 OA
ATOM     25  H   UNL     1      -1.258  -2.926  23.513  0.00  0.00    +0.211 HD
ENDBRANCH  16   4
ENDBRANCH  14  16
ENDBRANCH  10  11
ENDBRANCH   7  10
TORSDOF 7
ENDMDL
