MODEL 1
REMARK VINA RESULT:       3.7      0.000      0.000
REMARK  Name = 7164973
REMARK  10 active torsions:
REMARK  status: ('A' for Active; 'I' for Inactive)
REMARK    1  A    between atoms: S_1  and  N_7
REMARK    2  A    between atoms: S_1  and  C_27
REMARK    3  A    between atoms: N_8  and  C_19
REMARK    4  A    between atoms: N_11  and  C_28
REMARK    5  A    between atoms: C_12  and  C_15
REMARK    6  A    between atoms: C_15  and  C_19
REMARK    7  A    between atoms: C_19  and  C_25
REMARK    8  A    between atoms: C_20  and  C_23
REMARK    9  A    between atoms: C_28  and  C_33
REMARK   10  A    between atoms: C_28  and  C_34
REMARK                            x       y       z     vdW  Elec       q    Type
REMARK                         _______ _______ _______ _____ _____    ______ ____
ROOT
ATOM      6  O   UNL     1       3.026  -1.180  22.712  0.00  0.00    -0.253 OA
ATOM      7  N   UNL     1      -1.416   0.427  24.587  0.00  0.00    -0.162 NA
ATOM      9  N   UNL     1       1.341   0.129  23.625  0.00  0.00    -0.282 N 
ATOM     11  N   UNL     1       3.561   0.913  23.502  0.00  0.00    -0.297 N 
ATOM     20  C   UNL     1      -0.623   1.584  24.080  0.00  0.00    +0.183 C 
ATOM     21  C   UNL     1       0.877   1.364  24.267  0.00  0.00    +0.139 C 
ATOM     22  C   UNL     1      -0.714  -0.891  24.512  0.00  0.00    +0.129 C 
ATOM     24  C   UNL     1       0.324  -0.899  23.400  0.00  0.00    +0.126 C 
ATOM     26  C   UNL     1       2.669  -0.122  23.238  0.00  0.00    +0.303 C 
ATOM     39  H   UNL     1       3.276   1.697  24.077  0.00  0.00    +0.150 HD
ENDROOT
BRANCH  20  23
ATOM      2  O   UNL     1      -0.580   3.011  25.986  0.00  0.00    -0.274 OA
ATOM      8  N   UNL     1      -2.020   3.516  24.228  0.00  0.00    -0.303 N 
ATOM     23  C   UNL     1      -1.050   2.772  24.877  0.00  0.00    +0.234 C 
ATOM     36  H   UNL     1      -2.385   3.186  23.339  0.00  0.00    +0.149 HD
BRANCH   8  19
ATOM     19  C   UNL     1      -2.616   4.703  24.797  0.00  0.00    +0.159 C 
BRANCH  19  25
ATOM      5  O   UNL     1      -1.758   6.911  25.337  0.00  0.00    -0.274 OA
ATOM     10  N   UNL     1      -0.295   5.336  24.531  0.00  0.00    -0.328 N 
ATOM     25  C   UNL     1      -1.539   5.772  24.935  0.00  0.00    +0.231 C 
ATOM     37  H   UNL     1      -0.131   4.398  24.182  0.00  0.00    +0.145 HD
ATOM     38  H   UNL     1       0.508   5.954  24.565  0.00  0.00    +0.145 HD
ENDBRANCH  19  25
BRANCH  19  15
ATOM     15  C   UNL     1      -3.336   4.413  26.118  0.00  0.00    +0.035 C 
BRANCH  15  12
ATOM     12  C   UNL     1      -4.756   3.877  25.953  0.00  0.00    -0.009 C 
ATOM     13  C   UNL     1      -5.030   2.747  26.955  0.00  0.00    +0.003 C 
ATOM     14  C   UNL     1      -4.991   3.399  24.513  0.00  0.00    +0.003 C 
ATOM     16  C   UNL     1      -6.427   2.158  26.774  0.00  0.00    +0.000 C 
ATOM     17  C   UNL     1      -6.388   2.809  24.337  0.00  0.00    +0.000 C 
ATOM     18  C   UNL     1      -6.658   1.692  25.340  0.00  0.00    +0.000 C 
ENDBRANCH  15  12
ENDBRANCH  19  15
ENDBRANCH   8  19
ENDBRANCH  20  23
BRANCH   7   1
ATOM      1  S   UNL     1      -3.088   0.408  24.205  0.00  0.00    +0.062 S 
ATOM      3  O   UNL     1      -3.251   0.799  22.825  0.00  0.00    -0.153 OA
ATOM      4  O   UNL     1      -3.809   1.068  25.267  0.00  0.00    -0.153 OA
BRANCH   1  27
ATOM     27  C   UNL     1      -3.399  -1.325  24.322  0.00  0.00    +0.106 A 
ATOM     29  C   UNL     1      -4.101  -1.978  23.309  0.00  0.00    +0.028 A 
ATOM     30  C   UNL     1      -2.941  -2.043  25.427  0.00  0.00    +0.028 A 
ATOM     31  C   UNL     1      -4.347  -3.348  23.401  0.00  0.00    +0.002 A 
ATOM     32  C   UNL     1      -3.187  -3.412  25.520  0.00  0.00    +0.002 A 
ATOM     35  C   UNL     1      -3.889  -4.065  24.507  0.00  0.00    +0.000 A 
ENDBRANCH   1  27
ENDBRANCH   7   1
BRANCH  11  28
ATOM     28  C   UNL     1       4.966   0.821  23.179  0.00  0.00    +0.068 C 
ATOM     33  C   UNL     1       5.160   0.063  21.871  0.00  0.00    +0.027 C 
ATOM     34  C   UNL     1       5.735   0.164  24.318  0.00  0.00    +0.027 C 
ENDBRANCH  11  28
TORSDOF 8
ENDMDL
MODEL 2
REMARK VINA RESULT:       5.0      2.659      6.755
REMARK  Name = 7164973
REMARK  10 active torsions:
REMARK  status: ('A' for Active; 'I' for Inactive)
REMARK    1  A    between atoms: S_1  and  N_7
REMARK    2  A    between atoms: S_1  and  C_27
REMARK    3  A    between atoms: N_8  and  C_19
REMARK    4  A    between atoms: N_11  and  C_28
REMARK    5  A    between atoms: C_12  and  C_15
REMARK    6  A    between atoms: C_15  and  C_19
REMARK    7  A    between atoms: C_19  and  C_25
REMARK    8  A    between atoms: C_20  and  C_23
REMARK    9  A    between atoms: C_28  and  C_33
REMARK   10  A    between atoms: C_28  and  C_34
REMARK                            x       y       z     vdW  Elec       q    Type
REMARK                         _______ _______ _______ _____ _____    ______ ____
ROOT
ATOM      6  O   UNL     1      -0.221   3.111  29.525  0.00  0.00    -0.253 OA
ATOM      7  N   UNL     1      -2.164   2.829  24.836  0.00  0.00    -0.162 NA
ATOM      9  N   UNL     1      -0.519   2.682  27.263  0.00  0.00    -0.282 N 
ATOM     11  N   UNL     1       1.573   2.354  28.300  0.00  0.00    -0.297 N 
ATOM     20  C   UNL     1      -1.114   1.785  25.022  0.00  0.00    +0.183 C 
ATOM     21  C   UNL     1      -0.004   2.263  25.955  0.00  0.00    +0.139 C 
ATOM     22  C   UNL     1      -2.342   3.748  26.001  0.00  0.00    +0.129 C 
ATOM     24  C   UNL     1      -1.927   3.076  27.301  0.00  0.00    +0.126 C 
ATOM     26  C   UNL     1       0.244   2.740  28.443  0.00  0.00    +0.303 C 
ATOM     39  H   UNL     1       1.965   2.211  27.377  0.00  0.00    +0.150 HD
ENDROOT
BRANCH  20  23
ATOM      2  O   UNL     1      -1.255   1.345  22.686  0.00  0.00    -0.274 OA
ATOM      8  N   UNL     1       0.842   1.461  23.690  0.00  0.00    -0.303 N 
ATOM     23  C   UNL     1      -0.541   1.515  23.670  0.00  0.00    +0.234 C 
ATOM     36  H   UNL     1       1.328   1.550  24.577  0.00  0.00    +0.149 HD
BRANCH   8  19
ATOM     19  C   UNL     1       1.638   1.191  22.514  0.00  0.00    +0.159 C 
BRANCH  19  25
ATOM      5  O   UNL     1       1.734  -0.715  21.011  0.00  0.00    -0.274 OA
ATOM     10  N   UNL     1       0.868  -1.023  23.115  0.00  0.00    -0.328 N 
ATOM     25  C   UNL     1       1.441  -0.266  22.115  0.00  0.00    +0.231 C 
ATOM     37  H   UNL     1       0.612  -0.635  24.016  0.00  0.00    +0.145 HD
ATOM     38  H   UNL     1       0.676  -2.009  22.973  0.00  0.00    +0.145 HD
ENDBRANCH  19  25
BRANCH  19  15
ATOM     15  C   UNL     1       3.112   1.556  22.717  0.00  0.00    +0.035 C 
BRANCH  15  12
ATOM     12  C   UNL     1       4.047   0.353  22.812  0.00  0.00    -0.009 C 
ATOM     13  C   UNL     1       3.483  -0.698  23.778  0.00  0.00    +0.003 C 
ATOM     14  C   UNL     1       5.454   0.791  23.244  0.00  0.00    +0.003 C 
ATOM     16  C   UNL     1       4.426  -1.888  23.932  0.00  0.00    +0.000 C 
ATOM     17  C   UNL     1       6.394  -0.402  23.397  0.00  0.00    +0.000 C 
ATOM     18  C   UNL     1       5.825  -1.447  24.352  0.00  0.00    +0.000 C 
ENDBRANCH  15  12
ENDBRANCH  19  15
ENDBRANCH   8  19
ENDBRANCH  20  23
BRANCH   7   1
ATOM      1  S   UNL     1      -3.602   2.346  24.036  0.00  0.00    +0.062 S 
ATOM      3  O   UNL     1      -3.403   2.471  22.612  0.00  0.00    -0.153 OA
ATOM      4  O   UNL     1      -4.726   2.966  24.698  0.00  0.00    -0.153 OA
BRANCH   1  27
ATOM     27  C   UNL     1      -3.604   0.629  24.440  0.00  0.00    +0.106 A 
ATOM     29  C   UNL     1      -3.278   0.216  25.732  0.00  0.00    +0.028 A 
ATOM     30  C   UNL     1      -3.933  -0.316  23.468  0.00  0.00    +0.028 A 
ATOM     31  C   UNL     1      -3.279  -1.142  26.052  0.00  0.00    +0.002 A 
ATOM     32  C   UNL     1      -3.934  -1.674  23.787  0.00  0.00    +0.002 A 
ATOM     35  C   UNL     1      -3.607  -2.087  25.079  0.00  0.00    +0.000 A 
ENDBRANCH   1  27
ENDBRANCH   7   1
BRANCH  11  28
ATOM     28  C   UNL     1       2.500   2.361  29.407  0.00  0.00    +0.068 C 
ATOM     33  C   UNL     1       1.789   1.969  30.697  0.00  0.00    +0.027 C 
ATOM     34  C   UNL     1       3.167   3.724  29.537  0.00  0.00    +0.027 C 
ENDBRANCH  11  28
TORSDOF 8
ENDMDL
MODEL 3
REMARK VINA RESULT:       5.7      1.848      3.485
REMARK  Name = 7164973
REMARK  10 active torsions:
REMARK  status: ('A' for Active; 'I' for Inactive)
REMARK    1  A    between atoms: S_1  and  N_7
REMARK    2  A    between atoms: S_1  and  C_27
REMARK    3  A    between atoms: N_8  and  C_19
REMARK    4  A    between atoms: N_11  and  C_28
REMARK    5  A    between atoms: C_12  and  C_15
REMARK    6  A    between atoms: C_15  and  C_19
REMARK    7  A    between atoms: C_19  and  C_25
REMARK    8  A    between atoms: C_20  and  C_23
REMARK    9  A    between atoms: C_28  and  C_33
REMARK   10  A    between atoms: C_28  and  C_34
REMARK                            x       y       z     vdW  Elec       q    Type
REMARK                         _______ _______ _______ _____ _____    ______ ____
ROOT
ATOM      6  O   UNL     1       2.394  -1.428  23.394  0.00  0.00    -0.253 OA
ATOM      7  N   UNL     1      -1.780  -0.498  26.142  0.00  0.00    -0.162 NA
ATOM      9  N   UNL     1       0.567  -0.392  24.382  0.00  0.00    -0.282 N 
ATOM     11  N   UNL     1       2.180   0.854  23.196  0.00  0.00    -0.297 N 
ATOM     20  C   UNL     1      -1.668   0.487  25.028  0.00  0.00    +0.183 C 
ATOM     21  C   UNL     1      -0.210   0.810  24.706  0.00  0.00    +0.139 C 
ATOM     22  C   UNL     1      -0.634  -1.452  26.249  0.00  0.00    +0.129 C 
ATOM     24  C   UNL     1       0.042  -1.654  24.901  0.00  0.00    +0.126 C 
ATOM     26  C   UNL     1       1.759  -0.397  23.636  0.00  0.00    +0.303 C 
ATOM     39  H   UNL     1       1.732   1.693  23.544  0.00  0.00    +0.150 HD
ENDROOT
BRANCH  20  23
ATOM      2  O   UNL     1      -1.840   2.496  26.294  0.00  0.00    -0.274 OA
ATOM      8  N   UNL     1      -3.612   1.870  24.921  0.00  0.00    -0.303 N 
ATOM     23  C   UNL     1      -2.358   1.728  25.487  0.00  0.00    +0.234 C 
ATOM     36  H   UNL     1      -3.968   1.136  24.315  0.00  0.00    +0.149 HD
BRANCH   8  19
ATOM     19  C   UNL     1      -4.493   2.977  25.219  0.00  0.00    +0.159 C 
BRANCH  19  25
ATOM      5  O   UNL     1      -6.629   2.044  24.531  0.00  0.00    -0.274 OA
ATOM     10  N   UNL     1      -6.284   2.460  26.763  0.00  0.00    -0.328 N 
ATOM     25  C   UNL     1      -5.900   2.436  25.439  0.00  0.00    +0.231 C 
ATOM     37  H   UNL     1      -5.679   2.804  27.501  0.00  0.00    +0.145 HD
ATOM     38  H   UNL     1      -7.202   2.133  27.043  0.00  0.00    +0.145 HD
ENDBRANCH  19  25
BRANCH  19  15
ATOM     15  C   UNL     1      -4.438   4.067  24.144  0.00  0.00    +0.035 C 
BRANCH  15  12
ATOM     12  C   UNL     1      -3.050   4.666  23.930  0.00  0.00    -0.009 C 
ATOM     13  C   UNL     1      -2.085   3.613  23.370  0.00  0.00    +0.003 C 
ATOM     14  C   UNL     1      -2.508   5.262  25.237  0.00  0.00    +0.003 C 
ATOM     16  C   UNL     1      -0.675   4.174  23.196  0.00  0.00    +0.000 C 
ATOM     17  C   UNL     1      -1.098   5.820  25.060  0.00  0.00    +0.000 C 
ATOM     18  C   UNL     1      -0.145   4.772  24.496  0.00  0.00    +0.000 C 
ENDBRANCH  15  12
ENDBRANCH  19  15
ENDBRANCH   8  19
ENDBRANCH  20  23
BRANCH   7   1
ATOM      1  S   UNL     1      -3.335  -1.160  26.435  0.00  0.00    +0.062 S 
ATOM      3  O   UNL     1      -4.304  -0.091  26.411  0.00  0.00    -0.153 OA
ATOM      4  O   UNL     1      -3.243  -2.072  27.551  0.00  0.00    -0.153 OA
BRANCH   1  27
ATOM     27  C   UNL     1      -3.535  -2.111  24.962  0.00  0.00    +0.106 A 
ATOM     29  C   UNL     1      -2.743  -3.240  24.749  0.00  0.00    +0.028 A 
ATOM     30  C   UNL     1      -4.485  -1.736  24.013  0.00  0.00    +0.028 A 
ATOM     31  C   UNL     1      -2.901  -3.992  23.584  0.00  0.00    +0.002 A 
ATOM     32  C   UNL     1      -4.643  -2.487  22.849  0.00  0.00    +0.002 A 
ATOM     35  C   UNL     1      -3.851  -3.616  22.635  0.00  0.00    +0.000 A 
ENDBRANCH   1  27
ENDBRANCH   7   1
BRANCH  11  28
ATOM     28  C   UNL     1       3.388   1.033  22.425  0.00  0.00    +0.068 C 
ATOM     33  C   UNL     1       3.353   0.161  21.175  0.00  0.00    +0.027 C 
ATOM     34  C   UNL     1       4.615   0.729  23.276  0.00  0.00    +0.027 C 
ENDBRANCH  11  28
TORSDOF 8
ENDMDL
MODEL 4
REMARK VINA RESULT:       6.0      2.095      3.771
REMARK  Name = 7164973
REMARK  10 active torsions:
REMARK  status: ('A' for Active; 'I' for Inactive)
REMARK    1  A    between atoms: S_1  and  N_7
REMARK    2  A    between atoms: S_1  and  C_27
REMARK    3  A    between atoms: N_8  and  C_19
REMARK    4  A    between atoms: N_11  and  C_28
REMARK    5  A    between atoms: C_12  and  C_15
REMARK    6  A    between atoms: C_15  and  C_19
REMARK    7  A    between atoms: C_19  and  C_25
REMARK    8  A    between atoms: C_20  and  C_23
REMARK    9  A    between atoms: C_28  and  C_33
REMARK   10  A    between atoms: C_28  and  C_34
REMARK                            x       y       z     vdW  Elec       q    Type
REMARK                         _______ _______ _______ _____ _____    ______ ____
ROOT
ATOM      6  O   UNL     1       2.615  -1.219  23.735  0.00  0.00    -0.253 OA
ATOM      7  N   UNL     1      -2.330  -0.337  24.514  0.00  0.00    -0.162 NA
ATOM      9  N   UNL     1       0.501  -0.262  23.739  0.00  0.00    -0.282 N 
ATOM     11  N   UNL     1       2.377   0.934  22.960  0.00  0.00    -0.297 N 
ATOM     20  C   UNL     1      -1.853   0.422  23.322  0.00  0.00    +0.183 C 
ATOM     21  C   UNL     1      -0.401   0.866  23.481  0.00  0.00    +0.139 C 
ATOM     22  C   UNL     1      -1.263  -1.093  25.239  0.00  0.00    +0.129 C 
ATOM     24  C   UNL     1      -0.118  -1.460  24.307  0.00  0.00    +0.126 C 
ATOM     26  C   UNL     1       1.885  -0.254  23.492  0.00  0.00    +0.303 C 
ATOM     39  H   UNL     1       1.790   1.758  22.924  0.00  0.00    +0.150 HD
ENDROOT
BRANCH  20  23
ATOM      2  O   UNL     1      -3.105   2.053  22.121  0.00  0.00    -0.274 OA
ATOM      8  N   UNL     1      -3.018   2.181  24.444  0.00  0.00    -0.303 N 
ATOM     23  C   UNL     1      -2.728   1.627  23.209  0.00  0.00    +0.234 C 
ATOM     36  H   UNL     1      -2.594   1.782  25.277  0.00  0.00    +0.149 HD
BRANCH   8  19
ATOM     19  C   UNL     1      -3.828   3.366  24.606  0.00  0.00    +0.159 C 
BRANCH  19  25
ATOM      5  O   UNL     1      -3.354   5.247  23.143  0.00  0.00    -0.274 OA
ATOM     10  N   UNL     1      -4.495   3.451  22.281  0.00  0.00    -0.328 N 
ATOM     25  C   UNL     1      -3.844   4.131  23.289  0.00  0.00    +0.231 C 
ATOM     37  H   UNL     1      -4.913   2.537  22.420  0.00  0.00    +0.145 HD
ATOM     38  H   UNL     1      -4.583   3.855  21.355  0.00  0.00    +0.145 HD
ENDBRANCH  19  25
BRANCH  19  15
ATOM     15  C   UNL     1      -3.364   4.228  25.786  0.00  0.00    +0.035 C 
BRANCH  15  12
ATOM     12  C   UNL     1      -1.893   4.046  26.153  0.00  0.00    -0.009 C 
ATOM     13  C   UNL     1      -0.989   4.399  24.965  0.00  0.00    +0.003 C 
ATOM     14  C   UNL     1      -1.628   2.612  26.634  0.00  0.00    +0.003 C 
ATOM     16  C   UNL     1       0.486   4.174  25.291  0.00  0.00    +0.000 C 
ATOM     17  C   UNL     1      -0.152   2.391  26.958  0.00  0.00    +0.000 C 
ATOM     18  C   UNL     1       0.743   2.751  25.777  0.00  0.00    +0.000 C 
ENDBRANCH  15  12
ENDBRANCH  19  15
ENDBRANCH   8  19
ENDBRANCH  20  23
BRANCH   7   1
ATOM      1  S   UNL     1      -3.844  -1.130  24.373  0.00  0.00    +0.062 S 
ATOM      3  O   UNL     1      -3.867  -2.248  25.285  0.00  0.00    -0.153 OA
ATOM      4  O   UNL     1      -4.148  -1.292  22.970  0.00  0.00    -0.153 OA
BRANCH   1  27
ATOM     27  C   UNL     1      -4.898   0.128  25.022  0.00  0.00    +0.106 A 
ATOM     29  C   UNL     1      -4.789   0.506  26.360  0.00  0.00    +0.028 A 
ATOM     30  C   UNL     1      -5.838   0.745  24.197  0.00  0.00    +0.028 A 
ATOM     31  C   UNL     1      -5.622   1.500  26.874  0.00  0.00    +0.002 A 
ATOM     32  C   UNL     1      -6.671   1.739  24.710  0.00  0.00    +0.002 A 
ATOM     35  C   UNL     1      -6.563   2.117  26.049  0.00  0.00    +0.000 A 
ENDBRANCH   1  27
ENDBRANCH   7   1
BRANCH  11  28
ATOM     28  C   UNL     1       3.777   1.119  22.655  0.00  0.00    +0.068 C 
ATOM     33  C   UNL     1       4.126   0.441  21.335  0.00  0.00    +0.027 C 
ATOM     34  C   UNL     1       4.646   0.596  23.791  0.00  0.00    +0.027 C 
ENDBRANCH  11  28
TORSDOF 8
ENDMDL
MODEL 5
REMARK VINA RESULT:       6.0      2.063      4.780
REMARK  Name = 7164973
REMARK  10 active torsions:
REMARK  status: ('A' for Active; 'I' for Inactive)
REMARK    1  A    between atoms: S_1  and  N_7
REMARK    2  A    between atoms: S_1  and  C_27
REMARK    3  A    between atoms: N_8  and  C_19
REMARK    4  A    between atoms: N_11  and  C_28
REMARK    5  A    between atoms: C_12  and  C_15
REMARK    6  A    between atoms: C_15  and  C_19
REMARK    7  A    between atoms: C_19  and  C_25
REMARK    8  A    between atoms: C_20  and  C_23
REMARK    9  A    between atoms: C_28  and  C_33
REMARK   10  A    between atoms: C_28  and  C_34
REMARK                            x       y       z     vdW  Elec       q    Type
REMARK                         _______ _______ _______ _____ _____    ______ ____
ROOT
ATOM      6  O   UNL     1       4.114   0.376  22.032  0.00  0.00    -0.253 OA
ATOM      7  N   UNL     1      -0.908   0.395  22.818  0.00  0.00    -0.162 NA
ATOM      9  N   UNL     1       2.014   0.179  23.002  0.00  0.00    -0.282 N 
ATOM     11  N   UNL     1       3.942  -0.619  24.100  0.00  0.00    -0.297 N 
ATOM     20  C   UNL     1      -0.183   0.509  24.117  0.00  0.00    +0.183 C 
ATOM     21  C   UNL     1       1.138  -0.256  24.095  0.00  0.00    +0.139 C 
ATOM     22  C   UNL     1      -0.025   0.218  21.626  0.00  0.00    +0.129 C 
ATOM     24  C   UNL     1       1.352   0.820  21.866  0.00  0.00    +0.126 C 
ATOM     26  C   UNL     1       3.410   0.008  22.977  0.00  0.00    +0.303 C 
ATOM     39  H   UNL     1       3.329  -1.053  24.779  0.00  0.00    +0.150 HD
ENDROOT
BRANCH  20  23
ATOM      2  O   UNL     1      -0.949   0.183  26.348  0.00  0.00    -0.274 OA
ATOM      8  N   UNL     1      -2.012  -0.946  24.612  0.00  0.00    -0.303 N 
ATOM     23  C   UNL     1      -1.078  -0.081  25.156  0.00  0.00    +0.234 C 
ATOM     36  H   UNL     1      -1.983  -1.143  23.616  0.00  0.00    +0.149 HD
BRANCH   8  19
ATOM     19  C   UNL     1      -2.980  -1.664  25.408  0.00  0.00    +0.159 C 
BRANCH  19  25
ATOM      5  O   UNL     1      -3.985  -3.740  24.644  0.00  0.00    -0.274 OA
ATOM     10  N   UNL     1      -4.365  -1.828  23.430  0.00  0.00    -0.328 N 
ATOM     25  C   UNL     1      -3.824  -2.534  24.485  0.00  0.00    +0.231 C 
ATOM     37  H   UNL     1      -4.209  -0.835  23.299  0.00  0.00    +0.145 HD
ATOM     38  H   UNL     1      -4.942  -2.293  22.738  0.00  0.00    +0.145 HD
ENDBRANCH  19  25
BRANCH  19  15
ATOM     15  C   UNL     1      -3.826  -0.726  26.276  0.00  0.00    +0.035 C 
BRANCH  15  12
ATOM     12  C   UNL     1      -4.350   0.505  25.540  0.00  0.00    -0.009 C 
ATOM     13  C   UNL     1      -3.963   1.789  26.286  0.00  0.00    +0.003 C 
ATOM     14  C   UNL     1      -5.871   0.419  25.354  0.00  0.00    +0.003 C 
ATOM     16  C   UNL     1      -4.520   3.032  25.598  0.00  0.00    +0.000 C 
ATOM     17  C   UNL     1      -6.426   1.665  24.666  0.00  0.00    +0.000 C 
ATOM     18  C   UNL     1      -6.032   2.939  25.407  0.00  0.00    +0.000 C 
ENDBRANCH  15  12
ENDBRANCH  19  15
ENDBRANCH   8  19
ENDBRANCH  20  23
BRANCH   7   1
ATOM      1  S   UNL     1      -2.269   1.415  22.598  0.00  0.00    +0.062 S 
ATOM      3  O   UNL     1      -3.412   0.801  23.230  0.00  0.00    -0.153 OA
ATOM      4  O   UNL     1      -2.305   1.840  21.219  0.00  0.00    -0.153 OA
BRANCH   1  27
ATOM     27  C   UNL     1      -1.771   2.790  23.586  0.00  0.00    +0.106 A 
ATOM     29  C   UNL     1      -0.468   2.857  24.080  0.00  0.00    +0.028 A 
ATOM     30  C   UNL     1      -2.678   3.810  23.870  0.00  0.00    +0.028 A 
ATOM     31  C   UNL     1      -0.074   3.944  24.861  0.00  0.00    +0.002 A 
ATOM     32  C   UNL     1      -2.285   4.897  24.650  0.00  0.00    +0.002 A 
ATOM     35  C   UNL     1      -0.983   4.964  25.146  0.00  0.00    +0.000 A 
ENDBRANCH   1  27
ENDBRANCH   7   1
BRANCH  11  28
ATOM     28  C   UNL     1       5.356  -0.884  24.237  0.00  0.00    +0.068 C 
ATOM     33  C   UNL     1       6.167   0.316  23.762  0.00  0.00    +0.027 C 
ATOM     34  C   UNL     1       5.739  -2.146  23.476  0.00  0.00    +0.027 C 
ENDBRANCH  11  28
TORSDOF 8
ENDMDL
MODEL 6
REMARK VINA RESULT:       6.1      1.801      2.592
REMARK  Name = 7164973
REMARK  10 active torsions:
REMARK  status: ('A' for Active; 'I' for Inactive)
REMARK    1  A    between atoms: S_1  and  N_7
REMARK    2  A    between atoms: S_1  and  C_27
REMARK    3  A    between atoms: N_8  and  C_19
REMARK    4  A    between atoms: N_11  and  C_28
REMARK    5  A    between atoms: C_12  and  C_15
REMARK    6  A    between atoms: C_15  and  C_19
REMARK    7  A    between atoms: C_19  and  C_25
REMARK    8  A    between atoms: C_20  and  C_23
REMARK    9  A    between atoms: C_28  and  C_33
REMARK   10  A    between atoms: C_28  and  C_34
REMARK                            x       y       z     vdW  Elec       q    Type
REMARK                         _______ _______ _______ _____ _____    ______ ____
ROOT
ATOM      6  O   UNL     1       3.915  -0.920  22.122  0.00  0.00    -0.253 OA
ATOM      7  N   UNL     1      -0.567   0.874  23.713  0.00  0.00    -0.162 NA
ATOM      9  N   UNL     1       2.262   0.381  23.102  0.00  0.00    -0.282 N 
ATOM     11  N   UNL     1       4.546   0.808  23.503  0.00  0.00    -0.297 N 
ATOM     20  C   UNL     1       0.434   1.978  23.646  0.00  0.00    +0.183 C 
ATOM     21  C   UNL     1       1.841   1.483  23.975  0.00  0.00    +0.139 C 
ATOM     22  C   UNL     1      -0.024  -0.481  23.392  0.00  0.00    +0.129 C 
ATOM     24  C   UNL     1       1.186  -0.386  22.475  0.00  0.00    +0.126 C 
ATOM     26  C   UNL     1       3.598   0.023  22.853  0.00  0.00    +0.303 C 
ATOM     39  H   UNL     1       4.258   1.465  24.218  0.00  0.00    +0.150 HD
ENDROOT
BRANCH  20  23
ATOM      2  O   UNL     1      -0.182   4.164  24.357  0.00  0.00    -0.274 OA
ATOM      8  N   UNL     1      -0.082   2.451  25.929  0.00  0.00    -0.303 N 
ATOM     23  C   UNL     1       0.018   2.991  24.659  0.00  0.00    +0.234 C 
ATOM     36  H   UNL     1       0.173   1.478  26.075  0.00  0.00    +0.149 HD
BRANCH   8  19
ATOM     19  C   UNL     1      -0.447   3.228  27.091  0.00  0.00    +0.159 C 
BRANCH  19  25
ATOM      5  O   UNL     1       0.076   2.687  29.402  0.00  0.00    -0.274 OA
ATOM     10  N   UNL     1       1.784   2.700  27.867  0.00  0.00    -0.328 N 
ATOM     25  C   UNL     1       0.465   2.838  28.247  0.00  0.00    +0.231 C 
ATOM     37  H   UNL     1       2.096   2.846  26.913  0.00  0.00    +0.145 HD
ATOM     38  H   UNL     1       2.496   2.450  28.544  0.00  0.00    +0.145 HD
ENDBRANCH  19  25
BRANCH  19  15
ATOM     15  C   UNL     1      -1.934   3.090  27.437  0.00  0.00    +0.035 C 
BRANCH  15  12
ATOM     12  C   UNL     1      -2.874   3.304  26.254  0.00  0.00    -0.009 C 
ATOM     13  C   UNL     1      -3.011   4.798  25.932  0.00  0.00    +0.003 C 
ATOM     14  C   UNL     1      -4.248   2.677  26.532  0.00  0.00    +0.003 C 
ATOM     16  C   UNL     1      -3.989   5.041  24.785  0.00  0.00    +0.000 C 
ATOM     17  C   UNL     1      -5.223   2.924  25.383  0.00  0.00    +0.000 C 
ATOM     18  C   UNL     1      -5.350   4.410  25.062  0.00  0.00    +0.000 C 
ENDBRANCH  15  12
ENDBRANCH  19  15
ENDBRANCH   8  19
ENDBRANCH  20  23
BRANCH   7   1
ATOM      1  S   UNL     1      -2.136   1.215  23.109  0.00  0.00    +0.062 S 
ATOM      3  O   UNL     1      -2.138   0.997  21.682  0.00  0.00    -0.153 OA
ATOM      4  O   UNL     1      -2.589   2.459  23.684  0.00  0.00    -0.153 OA
BRANCH   1  27
ATOM     27  C   UNL     1      -3.036  -0.101  23.864  0.00  0.00    +0.106 A 
ATOM     29  C   UNL     1      -2.932  -0.319  25.238  0.00  0.00    +0.028 A 
ATOM     30  C   UNL     1      -3.853  -0.923  23.088  0.00  0.00    +0.028 A 
ATOM     31  C   UNL     1      -3.643  -1.359  25.836  0.00  0.00    +0.002 A 
ATOM     32  C   UNL     1      -4.565  -1.963  23.684  0.00  0.00    +0.002 A 
ATOM     35  C   UNL     1      -4.460  -2.181  25.059  0.00  0.00    +0.000 A 
ENDBRANCH   1  27
ENDBRANCH   7   1
BRANCH  11  28
ATOM     28  C   UNL     1       5.965   0.574  23.367  0.00  0.00    +0.068 C 
ATOM     33  C   UNL     1       6.298  -0.875  23.703  0.00  0.00    +0.027 C 
ATOM     34  C   UNL     1       6.752   1.539  24.244  0.00  0.00    +0.027 C 
ENDBRANCH  11  28
TORSDOF 8
ENDMDL
MODEL 7
REMARK VINA RESULT:       6.3      2.582      4.186
REMARK  Name = 7164973
REMARK  10 active torsions:
REMARK  status: ('A' for Active; 'I' for Inactive)
REMARK    1  A    between atoms: S_1  and  N_7
REMARK    2  A    between atoms: S_1  and  C_27
REMARK    3  A    between atoms: N_8  and  C_19
REMARK    4  A    between atoms: N_11  and  C_28
REMARK    5  A    between atoms: C_12  and  C_15
REMARK    6  A    between atoms: C_15  and  C_19
REMARK    7  A    between atoms: C_19  and  C_25
REMARK    8  A    between atoms: C_20  and  C_23
REMARK    9  A    between atoms: C_28  and  C_33
REMARK   10  A    between atoms: C_28  and  C_34
REMARK                            x       y       z     vdW  Elec       q    Type
REMARK                         _______ _______ _______ _____ _____    ______ ____
ROOT
ATOM      6  O   UNL     1       3.344  -0.789  21.800  0.00  0.00    -0.253 OA
ATOM      7  N   UNL     1      -1.064   1.266  23.276  0.00  0.00    -0.162 NA
ATOM      9  N   UNL     1       1.742   0.511  22.863  0.00  0.00    -0.282 N 
ATOM     11  N   UNL     1       3.990   0.524  23.575  0.00  0.00    -0.297 N 
ATOM     20  C   UNL     1       0.059   2.209  23.548  0.00  0.00    +0.183 C 
ATOM     21  C   UNL     1       1.345   1.465  23.905  0.00  0.00    +0.139 C 
ATOM     22  C   UNL     1      -0.646  -0.061  22.730  0.00  0.00    +0.129 C 
ATOM     24  C   UNL     1       0.674   0.043  21.981  0.00  0.00    +0.126 C 
ATOM     26  C   UNL     1       3.049   0.025  22.680  0.00  0.00    +0.303 C 
ATOM     39  H   UNL     1       3.692   1.060  24.381  0.00  0.00    +0.150 HD
ENDROOT
BRANCH  20  23
ATOM      2  O   UNL     1       0.032   4.203  24.847  0.00  0.00    -0.274 OA
ATOM      8  N   UNL     1      -1.201   2.366  25.571  0.00  0.00    -0.303 N 
ATOM     23  C   UNL     1      -0.363   3.049  24.707  0.00  0.00    +0.234 C 
ATOM     36  H   UNL     1      -1.408   1.388  25.390  0.00  0.00    +0.149 HD
BRANCH   8  19
ATOM     19  C   UNL     1      -1.732   2.949  26.782  0.00  0.00    +0.159 C 
BRANCH  19  25
ATOM      5  O   UNL     1      -4.005   3.787  26.976  0.00  0.00    -0.274 OA
ATOM     10  N   UNL     1      -2.637   4.696  25.371  0.00  0.00    -0.328 N 
ATOM     25  C   UNL     1      -2.912   3.841  26.418  0.00  0.00    +0.231 C 
ATOM     37  H   UNL     1      -1.737   4.716  24.905  0.00  0.00    +0.145 HD
ATOM     38  H   UNL     1      -3.342   5.337  25.026  0.00  0.00    +0.145 HD
ENDBRANCH  19  25
BRANCH  19  15
ATOM     15  C   UNL     1      -0.658   3.688  27.587  0.00  0.00    +0.035 C 
BRANCH  15  12
ATOM     12  C   UNL     1       0.393   2.775  28.215  0.00  0.00    -0.009 C 
ATOM     13  C   UNL     1       0.287   2.798  29.746  0.00  0.00    +0.003 C 
ATOM     14  C   UNL     1       1.802   3.176  27.759  0.00  0.00    +0.003 C 
ATOM     16  C   UNL     1       1.362   1.932  30.399  0.00  0.00    +0.000 C 
ATOM     17  C   UNL     1       2.875   2.309  28.415  0.00  0.00    +0.000 C 
ATOM     18  C   UNL     1       2.761   2.329  29.936  0.00  0.00    +0.000 C 
ENDBRANCH  15  12
ENDBRANCH  19  15
ENDBRANCH   8  19
ENDBRANCH  20  23
BRANCH   7   1
ATOM      1  S   UNL     1      -2.492   1.937  22.603  0.00  0.00    +0.062 S 
ATOM      3  O   UNL     1      -2.776   1.264  21.358  0.00  0.00    -0.153 OA
ATOM      4  O   UNL     1      -2.405   3.376  22.682  0.00  0.00    -0.153 OA
BRANCH   1  27
ATOM     27  C   UNL     1      -3.668   1.390  23.800  0.00  0.00    +0.106 A 
ATOM     29  C   UNL     1      -4.773   2.186  24.106  0.00  0.00    +0.028 A 
ATOM     30  C   UNL     1      -3.495   0.163  24.439  0.00  0.00    +0.028 A 
ATOM     31  C   UNL     1      -5.703   1.754  25.052  0.00  0.00    +0.002 A 
ATOM     32  C   UNL     1      -4.424  -0.270  25.384  0.00  0.00    +0.002 A 
ATOM     35  C   UNL     1      -5.528   0.526  25.691  0.00  0.00    +0.000 A 
ENDBRANCH   1  27
ENDBRANCH   7   1
BRANCH  11  28
ATOM     28  C   UNL     1       5.378   0.125  23.536  0.00  0.00    +0.068 C 
ATOM     33  C   UNL     1       5.539  -1.286  24.091  0.00  0.00    +0.027 C 
ATOM     34  C   UNL     1       6.242   1.120  24.300  0.00  0.00    +0.027 C 
ENDBRANCH  11  28
TORSDOF 8
ENDMDL
MODEL 8
REMARK VINA RESULT:       6.3      2.611      5.870
REMARK  Name = 7164973
REMARK  10 active torsions:
REMARK  status: ('A' for Active; 'I' for Inactive)
REMARK    1  A    between atoms: S_1  and  N_7
REMARK    2  A    between atoms: S_1  and  C_27
REMARK    3  A    between atoms: N_8  and  C_19
REMARK    4  A    between atoms: N_11  and  C_28
REMARK    5  A    between atoms: C_12  and  C_15
REMARK    6  A    between atoms: C_15  and  C_19
REMARK    7  A    between atoms: C_19  and  C_25
REMARK    8  A    between atoms: C_20  and  C_23
REMARK    9  A    between atoms: C_28  and  C_33
REMARK   10  A    between atoms: C_28  and  C_34
REMARK                            x       y       z     vdW  Elec       q    Type
REMARK                         _______ _______ _______ _____ _____    ______ ____
ROOT
ATOM      6  O   UNL     1      -0.234   3.850  29.089  0.00  0.00    -0.253 OA
ATOM      7  N   UNL     1      -1.712   3.122  24.281  0.00  0.00    -0.162 NA
ATOM      9  N   UNL     1      -0.538   2.961  26.967  0.00  0.00    -0.282 N 
ATOM     11  N   UNL     1       1.033   2.035  28.460  0.00  0.00    -0.297 N 
ATOM     20  C   UNL     1      -1.335   1.821  24.905  0.00  0.00    +0.183 C 
ATOM     21  C   UNL     1      -0.205   1.990  25.919  0.00  0.00    +0.139 C 
ATOM     22  C   UNL     1      -1.495   4.318  25.151  0.00  0.00    +0.129 C 
ATOM     24  C   UNL     1      -1.565   3.946  26.625  0.00  0.00    +0.126 C 
ATOM     26  C   UNL     1       0.064   3.008  28.236  0.00  0.00    +0.303 C 
ATOM     39  H   UNL     1       1.369   1.465  27.693  0.00  0.00    +0.150 HD
ENDROOT
BRANCH  20  23
ATOM      2  O   UNL     1      -1.325   1.035  22.658  0.00  0.00    -0.274 OA
ATOM      8  N   UNL     1       0.071   0.017  24.217  0.00  0.00    -0.303 N 
ATOM     23  C   UNL     1      -0.874   0.936  23.796  0.00  0.00    +0.234 C 
ATOM     36  H   UNL     1       0.322  -0.019  25.201  0.00  0.00    +0.149 HD
BRANCH   8  19
ATOM     19  C   UNL     1       0.660  -0.969  23.340  0.00  0.00    +0.159 C 
BRANCH  19  25
ATOM      5  O   UNL     1       1.237  -0.426  21.043  0.00  0.00    -0.274 OA
ATOM     10  N   UNL     1       2.394   0.609  22.735  0.00  0.00    -0.328 N 
ATOM     25  C   UNL     1       1.431  -0.247  22.242  0.00  0.00    +0.231 C 
ATOM     37  H   UNL     1       2.557   0.733  23.728  0.00  0.00    +0.145 HD
ATOM     38  H   UNL     1       2.982   1.145  22.107  0.00  0.00    +0.145 HD
ENDBRANCH  19  25
BRANCH  19  15
ATOM     15  C   UNL     1      -0.381  -1.948  22.788  0.00  0.00    +0.035 C 
BRANCH  15  12
ATOM     12  C   UNL     1      -1.367  -2.468  23.831  0.00  0.00    -0.009 C 
ATOM     13  C   UNL     1      -2.810  -2.141  23.425  0.00  0.00    +0.003 C 
ATOM     14  C   UNL     1      -1.046  -1.890  25.216  0.00  0.00    +0.003 C 
ATOM     16  C   UNL     1      -3.813  -2.604  24.479  0.00  0.00    +0.000 C 
ATOM     17  C   UNL     1      -2.051  -2.354  26.268  0.00  0.00    +0.000 C 
ATOM     18  C   UNL     1      -3.485  -2.033  25.856  0.00  0.00    +0.000 C 
ENDBRANCH  15  12
ENDBRANCH  19  15
ENDBRANCH   8  19
ENDBRANCH  20  23
BRANCH   7   1
ATOM      1  S   UNL     1      -3.138   3.139  23.327  0.00  0.00    +0.062 S 
ATOM      3  O   UNL     1      -2.981   2.195  22.246  0.00  0.00    -0.153 OA
ATOM      4  O   UNL     1      -3.511   4.512  23.083  0.00  0.00    -0.153 OA
BRANCH   1  27
ATOM     27  C   UNL     1      -4.278   2.456  24.488  0.00  0.00    +0.106 A 
ATOM     29  C   UNL     1      -4.945   3.291  25.384  0.00  0.00    +0.028 A 
ATOM     30  C   UNL     1      -4.514   1.081  24.508  0.00  0.00    +0.028 A 
ATOM     31  C   UNL     1      -5.847   2.751  26.302  0.00  0.00    +0.002 A 
ATOM     32  C   UNL     1      -5.415   0.541  25.425  0.00  0.00    +0.002 A 
ATOM     35  C   UNL     1      -6.082   1.376  26.322  0.00  0.00    +0.000 A 
ENDBRANCH   1  27
ENDBRANCH   7   1
BRANCH  11  28
ATOM     28  C   UNL     1       1.759   1.943  29.706  0.00  0.00    +0.068 C 
ATOM     33  C   UNL     1       0.866   2.352  30.871  0.00  0.00    +0.027 C 
ATOM     34  C   UNL     1       3.022   2.793  29.653  0.00  0.00    +0.027 C 
ENDBRANCH  11  28
TORSDOF 8
ENDMDL
MODEL 9
REMARK VINA RESULT:       6.3      2.749      4.500
REMARK  Name = 7164973
REMARK  10 active torsions:
REMARK  status: ('A' for Active; 'I' for Inactive)
REMARK    1  A    between atoms: S_1  and  N_7
REMARK    2  A    between atoms: S_1  and  C_27
REMARK    3  A    between atoms: N_8  and  C_19
REMARK    4  A    between atoms: N_11  and  C_28
REMARK    5  A    between atoms: C_12  and  C_15
REMARK    6  A    between atoms: C_15  and  C_19
REMARK    7  A    between atoms: C_19  and  C_25
REMARK    8  A    between atoms: C_20  and  C_23
REMARK    9  A    between atoms: C_28  and  C_33
REMARK   10  A    between atoms: C_28  and  C_34
REMARK                            x       y       z     vdW  Elec       q    Type
REMARK                         _______ _______ _______ _____ _____    ______ ____
ROOT
ATOM      6  O   UNL     1       2.198  -1.212  21.365  0.00  0.00    -0.253 OA
ATOM      7  N   UNL     1      -1.753  -1.161  24.563  0.00  0.00    -0.162 NA
ATOM      9  N   UNL     1       0.715  -0.647  23.059  0.00  0.00    -0.282 N 
ATOM     11  N   UNL     1       2.809   0.421  22.867  0.00  0.00    -0.297 N 
ATOM     20  C   UNL     1      -1.152   0.200  24.467  0.00  0.00    +0.183 C 
ATOM     21  C   UNL     1       0.359   0.135  24.248  0.00  0.00    +0.139 C 
ATOM     22  C   UNL     1      -1.030  -2.218  23.791  0.00  0.00    +0.129 C 
ATOM     24  C   UNL     1      -0.279  -1.621  22.610  0.00  0.00    +0.126 C 
ATOM     26  C   UNL     1       1.927  -0.526  22.356  0.00  0.00    +0.303 C 
ATOM     39  H   UNL     1       2.630   0.849  23.767  0.00  0.00    +0.150 HD
ENDROOT
BRANCH  20  23
ATOM      2  O   UNL     1      -1.789   0.256  26.760  0.00  0.00    -0.274 OA
ATOM      8  N   UNL     1      -1.267   2.253  25.683  0.00  0.00    -0.303 N 
ATOM     23  C   UNL     1      -1.433   0.881  25.764  0.00  0.00    +0.234 C 
ATOM     36  H   UNL     1      -1.034   2.671  24.787  0.00  0.00    +0.149 HD
BRANCH   8  19
ATOM     19  C   UNL     1      -1.500   3.144  26.797  0.00  0.00    +0.159 C 
BRANCH  19  25
ATOM      5  O   UNL     1      -3.646   4.282  26.871  0.00  0.00    -0.274 OA
ATOM     10  N   UNL     1      -2.072   5.010  25.366  0.00  0.00    -0.328 N 
ATOM     25  C   UNL     1      -2.524   4.191  26.379  0.00  0.00    +0.231 C 
ATOM     37  H   UNL     1      -1.150   4.913  24.955  0.00  0.00    +0.145 HD
ATOM     38  H   UNL     1      -2.661   5.745  24.991  0.00  0.00    +0.145 HD
ENDBRANCH  19  25
BRANCH  19  15
ATOM     15  C   UNL     1      -0.201   3.763  27.324  0.00  0.00    +0.035 C 
BRANCH  15  12
ATOM     12  C   UNL     1       0.678   2.795  28.113  0.00  0.00    -0.009 C 
ATOM     13  C   UNL     1       0.286   2.791  29.597  0.00  0.00    +0.003 C 
ATOM     14  C   UNL     1       2.162   3.148  27.942  0.00  0.00    +0.003 C 
ATOM     16  C   UNL     1       1.186   1.869  30.416  0.00  0.00    +0.000 C 
ATOM     17  C   UNL     1       3.059   2.225  28.764  0.00  0.00    +0.000 C 
ATOM     18  C   UNL     1       2.660   2.218  30.237  0.00  0.00    +0.000 C 
ENDBRANCH  15  12
ENDBRANCH  19  15
ENDBRANCH   8  19
ENDBRANCH  20  23
BRANCH   7   1
ATOM      1  S   UNL     1      -3.466  -1.254  24.537  0.00  0.00    +0.062 S 
ATOM      3  O   UNL     1      -3.932  -1.538  25.874  0.00  0.00    -0.153 OA
ATOM      4  O   UNL     1      -3.865  -2.064  23.410  0.00  0.00    -0.153 OA
BRANCH   1  27
ATOM     27  C   UNL     1      -3.848   0.428  24.170  0.00  0.00    +0.106 A 
ATOM     29  C   UNL     1      -4.788   1.113  24.940  0.00  0.00    +0.028 A 
ATOM     30  C   UNL     1      -3.210   1.074  23.111  0.00  0.00    +0.028 A 
ATOM     31  C   UNL     1      -5.091   2.444  24.649  0.00  0.00    +0.002 A 
ATOM     32  C   UNL     1      -3.512   2.404  22.820  0.00  0.00    +0.002 A 
ATOM     35  C   UNL     1      -4.453   3.089  23.590  0.00  0.00    +0.000 A 
ENDBRANCH   1  27
ENDBRANCH   7   1
BRANCH  11  28
ATOM     28  C   UNL     1       4.102   0.668  22.274  0.00  0.00    +0.068 C 
ATOM     33  C   UNL     1       5.207   0.089  23.150  0.00  0.00    +0.027 C 
ATOM     34  C   UNL     1       4.307   2.160  22.041  0.00  0.00    +0.027 C 
ENDBRANCH  11  28
TORSDOF 8
ENDMDL
MODEL 10
REMARK VINA RESULT:       6.5      2.628      7.256
REMARK  Name = 7164973
REMARK  10 active torsions:
REMARK  status: ('A' for Active; 'I' for Inactive)
REMARK    1  A    between atoms: S_1  and  N_7
REMARK    2  A    between atoms: S_1  and  C_27
REMARK    3  A    between atoms: N_8  and  C_19
REMARK    4  A    between atoms: N_11  and  C_28
REMARK    5  A    between atoms: C_12  and  C_15
REMARK    6  A    between atoms: C_15  and  C_19
REMARK    7  A    between atoms: C_19  and  C_25
REMARK    8  A    between atoms: C_20  and  C_23
REMARK    9  A    between atoms: C_28  and  C_33
REMARK   10  A    between atoms: C_28  and  C_34
REMARK                            x       y       z     vdW  Elec       q    Type
REMARK                         _______ _______ _______ _____ _____    ______ ____
ROOT
ATOM      6  O   UNL     1      -0.289   3.527  28.848  0.00  0.00    -0.253 OA
ATOM      7  N   UNL     1      -1.512   1.952  24.173  0.00  0.00    -0.162 NA
ATOM      9  N   UNL     1      -0.359   2.363  26.841  0.00  0.00    -0.282 N 
ATOM     11  N   UNL     1       1.369   1.995  28.402  0.00  0.00    -0.297 N 
ATOM     20  C   UNL     1      -0.850   0.850  24.930  0.00  0.00    +0.183 C 
ATOM     21  C   UNL     1       0.200   1.386  25.901  0.00  0.00    +0.139 C 
ATOM     22  C   UNL     1      -1.586   3.254  24.904  0.00  0.00    +0.129 C 
ATOM     24  C   UNL     1      -1.582   3.040  26.410  0.00  0.00    +0.126 C 
ATOM     26  C   UNL     1       0.203   2.687  28.088  0.00  0.00    +0.303 C 
ATOM     39  H   UNL     1       1.835   1.438  27.697  0.00  0.00    +0.150 HD
ENDROOT
BRANCH  20  23
ATOM      2  O   UNL     1      -0.504  -1.199  23.769  0.00  0.00    -0.274 OA
ATOM      8  N   UNL     1       0.805   0.646  23.221  0.00  0.00    -0.303 N 
ATOM     23  C   UNL     1      -0.187  -0.022  23.917  0.00  0.00    +0.234 C 
ATOM     36  H   UNL     1       1.029   1.604  23.475  0.00  0.00    +0.149 HD
BRANCH   8  19
ATOM     19  C   UNL     1       1.613   0.018  22.200  0.00  0.00    +0.159 C 
BRANCH  19  25
ATOM      5  O   UNL     1       0.991  -1.378  20.311  0.00  0.00    -0.274 OA
ATOM     10  N   UNL     1      -0.488   0.230  21.017  0.00  0.00    -0.328 N 
ATOM     25  C   UNL     1       0.697  -0.472  21.086  0.00  0.00    +0.231 C 
ATOM     37  H   UNL     1      -0.711   0.989  21.651  0.00  0.00    +0.145 HD
ATOM     38  H   UNL     1      -1.183   0.006  20.313  0.00  0.00    +0.145 HD
ENDBRANCH  19  25
BRANCH  19  15
ATOM     15  C   UNL     1       2.503  -1.093  22.768  0.00  0.00    +0.035 C 
BRANCH  15  12
ATOM     12  C   UNL     1       3.707  -0.587  23.559  0.00  0.00    -0.009 C 
ATOM     13  C   UNL     1       4.350   0.618  22.858  0.00  0.00    +0.003 C 
ATOM     14  C   UNL     1       4.733  -1.711  23.763  0.00  0.00    +0.003 C 
ATOM     16  C   UNL     1       5.589   1.109  23.603  0.00  0.00    +0.000 C 
ATOM     17  C   UNL     1       5.971  -1.215  24.507  0.00  0.00    +0.000 C 
ATOM     18  C   UNL     1       6.601  -0.013  23.811  0.00  0.00    +0.000 C 
ENDBRANCH  15  12
ENDBRANCH  19  15
ENDBRANCH   8  19
ENDBRANCH  20  23
BRANCH   7   1
ATOM      1  S   UNL     1      -2.894   1.533  23.247  0.00  0.00    +0.062 S 
ATOM      3  O   UNL     1      -3.005   0.094  23.208  0.00  0.00    -0.153 OA
ATOM      4  O   UNL     1      -2.893   2.324  22.039  0.00  0.00    -0.153 OA
BRANCH   1  27
ATOM     27  C   UNL     1      -4.160   2.151  24.308  0.00  0.00    +0.106 A 
ATOM     29  C   UNL     1      -4.933   1.265  25.060  0.00  0.00    +0.028 A 
ATOM     30  C   UNL     1      -4.388   3.524  24.398  0.00  0.00    +0.028 A 
ATOM     31  C   UNL     1      -5.935   1.753  25.899  0.00  0.00    +0.002 A 
ATOM     32  C   UNL     1      -5.389   4.012  25.237  0.00  0.00    +0.002 A 
ATOM     35  C   UNL     1      -6.162   3.127  25.988  0.00  0.00    +0.000 A 
ENDBRANCH   1  27
ENDBRANCH   7   1
BRANCH  11  28
ATOM     28  C   UNL     1       2.084   2.211  29.638  0.00  0.00    +0.068 C 
ATOM     33  C   UNL     1       1.105   2.398  30.791  0.00  0.00    +0.027 C 
ATOM     34  C   UNL     1       3.023   3.405  29.512  0.00  0.00    +0.027 C 
ENDBRANCH  11  28
TORSDOF 8
ENDMDL
