MODEL 1
REMARK VINA RESULT:      -1.8      0.000      0.000
REMARK  Name = 71693881
REMARK  8 active torsions:
REMARK  status: ('A' for Active; 'I' for Inactive)
REMARK    1  A    between atoms: O_1  and  C_9
REMARK    2  A    between atoms: O_2  and  C_11
REMARK    3  A    between atoms: O_4  and  C_18
REMARK    4  A    between atoms: O_4  and  C_25
REMARK    5  A    between atoms: N_5  and  C_8
REMARK    6  A    between atoms: C_7  and  C_12
REMARK    7  A    between atoms: C_15  and  C_19
REMARK    8  A    between atoms: C_24  and  C_26
REMARK                            x       y       z     vdW  Elec       q    Type
REMARK                         _______ _______ _______ _____ _____    ______ ____
ROOT
ATOM      7  C   UNL     1      -1.765  -0.441  25.604  0.00  0.00    +0.044 C 
ATOM      8  C   UNL     1      -1.274  -1.152  24.323  0.00  0.00    +0.112 C 
ATOM      9  C   UNL     1      -1.739  -2.595  24.517  0.00  0.00    +0.164 C 
ATOM     10  C   UNL     1      -2.937  -1.300  26.143  0.00  0.00    +0.044 C 
ATOM     11  C   UNL     1      -3.123  -2.432  25.135  0.00  0.00    +0.145 C 
ENDROOT
BRANCH   7  12
ATOM     12  C   UNL     1      -2.112   1.016  25.378  0.00  0.00    -0.042 A 
ATOM     13  C   UNL     1      -3.341   1.361  24.814  0.00  0.00    +0.007 A 
ATOM     14  C   UNL     1      -1.204   2.013  25.734  0.00  0.00    +0.007 A 
ATOM     16  C   UNL     1      -3.660   2.702  24.605  0.00  0.00    +0.046 A 
ATOM     17  C   UNL     1      -1.523   3.353  25.526  0.00  0.00    +0.046 A 
ATOM     18  C   UNL     1      -2.752   3.699  24.962  0.00  0.00    +0.120 A 
BRANCH  18   4
ATOM      4  O   UNL     1      -3.063   5.008  24.759  0.00  0.00    -0.495 OA
ATOM     25  C   UNL     1      -2.033   5.966  24.999  0.00  0.00    +0.277 C 
ENDBRANCH  18   4
ENDBRANCH   7  12
BRANCH   8   5
ATOM      3  O   UNL     1       0.166   0.804  22.793  0.00  0.00    -0.270 OA
ATOM      5  N   UNL     1       0.155  -1.063  24.169  0.00  0.00    -0.305 N 
ATOM     15  C   UNL     1       0.765  -0.077  23.405  0.00  0.00    +0.244 C 
ATOM     27  H   UNL     1       0.712  -1.776  24.629  0.00  0.00    +0.149 HD
BRANCH  15  19
ATOM     19  C   UNL     1       2.247  -0.139  23.324  0.00  0.00    +0.037 A 
ATOM     20  C   UNL     1       2.964   0.947  22.821  0.00  0.00    +0.014 A 
ATOM     21  C   UNL     1       2.921  -1.282  23.753  0.00  0.00    +0.014 A 
ATOM     22  C   UNL     1       4.356   0.889  22.747  0.00  0.00    +0.019 A 
ATOM     23  C   UNL     1       4.313  -1.340  23.679  0.00  0.00    +0.019 A 
ATOM     24  C   UNL     1       5.030  -0.255  23.177  0.00  0.00    +0.052 A 
BRANCH  24  26
ATOM      6  N   UNL     1       7.614  -0.360  23.038  0.00  0.00    -0.191 NA
ATOM     26  C   UNL     1       6.456  -0.313  23.100  0.00  0.00    +0.099 C 
ENDBRANCH  24  26
ENDBRANCH  15  19
ENDBRANCH   8   5
BRANCH   9   1
ATOM      1  O   UNL     1      -1.804  -3.306  23.296  0.00  0.00    -0.387 OA
ATOM     28  H   UNL     1      -2.744  -3.443  23.089  0.00  0.00    +0.210 HD
ENDBRANCH   9   1
BRANCH  11   2
ATOM      2  O   UNL     1      -4.074  -2.021  24.157  0.00  0.00    -0.389 OA
ATOM     29  H   UNL     1      -4.262  -1.080  24.309  0.00  0.00    +0.210 HD
ENDBRANCH  11   2
TORSDOF 7
ENDMDL
