MODEL 1
REMARK VINA RESULT:      -5.9      0.000      0.000
REMARK  Name = 75536495
REMARK  8 active torsions:
REMARK  status: ('A' for Active; 'I' for Inactive)
REMARK    1  A    between atoms: O_2  and  C_7
REMARK    2  A    between atoms: N_4  and  C_6
REMARK    3  A    between atoms: N_4  and  C_11
REMARK    4  A    between atoms: N_5  and  C_10
REMARK    5  A    between atoms: C_8  and  C_10
REMARK    6  A    between atoms: C_11  and  C_12
REMARK    7  A    between atoms: C_11  and  C_13
REMARK    8  A    between atoms: C_14  and  C_15
REMARK                            x       y       z     vdW  Elec       q    Type
REMARK                         _______ _______ _______ _____ _____    ______ ____
ROOT
ATOM      1  O   UNL     1      -1.154   0.390  23.398  0.00  0.00    -0.371 OA
ATOM      6  C   UNL     1      -0.861   2.591  24.241  0.00  0.00    +0.111 C 
ATOM      7  C   UNL     1      -0.654   1.598  25.369  0.00  0.00    +0.164 C 
ATOM      8  C   UNL     1      -0.351   0.326  24.588  0.00  0.00    +0.165 C 
ATOM      9  C   UNL     1      -1.611   1.744  23.227  0.00  0.00    +0.181 C 
ENDROOT
BRANCH   7   2
ATOM      2  O   UNL     1       0.413   1.958  26.225  0.00  0.00    -0.388 OA
ATOM     17  H   UNL     1       1.206   1.470  25.947  0.00  0.00    +0.210 HD
ENDBRANCH   7   2
BRANCH   6   4
ATOM      4  N   UNL     1      -1.595   3.782  24.638  0.00  0.00    -0.307 NA
ATOM     16  H   UNL     1      -1.708   4.407  23.840  0.00  0.00    +0.123 HD
BRANCH   4  11
ATOM     11  C   UNL     1      -2.900   3.437  25.187  0.00  0.00    +0.048 C 
ATOM     12  C   UNL     1      -3.108   4.173  26.507  0.00  0.00    +0.023 C 
ATOM     13  C   UNL     1      -4.001   3.779  24.189  0.00  0.00    +0.023 C 
ENDBRANCH   4  11
ENDBRANCH   6   4
BRANCH   8  10
ATOM     10  C   UNL     1      -0.674  -0.942  25.358  0.00  0.00    +0.138 C 
BRANCH  10   5
ATOM      3  O   UNL     1      -3.484  -1.163  26.051  0.00  0.00    -0.276 OA
ATOM      5  N   UNL     1      -1.678  -1.717  24.688  0.00  0.00    -0.313 N 
ATOM     14  C   UNL     1      -3.008  -1.764  25.091  0.00  0.00    +0.210 C 
ATOM     15  C   UNL     1      -3.853  -2.632  24.199  0.00  0.00    +0.109 C 
ATOM     18  H   UNL     1      -1.393  -2.259  23.877  0.00  0.00    +0.149 HD
ENDBRANCH  10   5
ENDBRANCH   8  10
TORSDOF 5
ENDMDL
MODEL 2
REMARK VINA RESULT:      -5.8      2.156      4.658
REMARK  Name = 75536495
REMARK  8 active torsions:
REMARK  status: ('A' for Active; 'I' for Inactive)
REMARK    1  A    between atoms: O_2  and  C_7
REMARK    2  A    between atoms: N_4  and  C_6
REMARK    3  A    between atoms: N_4  and  C_11
REMARK    4  A    between atoms: N_5  and  C_10
REMARK    5  A    between atoms: C_8  and  C_10
REMARK    6  A    between atoms: C_11  and  C_12
REMARK    7  A    between atoms: C_11  and  C_13
REMARK    8  A    between atoms: C_14  and  C_15
REMARK                            x       y       z     vdW  Elec       q    Type
REMARK                         _______ _______ _______ _____ _____    ______ ____
ROOT
ATOM      1  O   UNL     1      -1.145   3.448  25.574  0.00  0.00    -0.371 OA
ATOM      6  C   UNL     1      -0.905   1.114  25.210  0.00  0.00    +0.111 C 
ATOM      7  C   UNL     1      -2.292   1.543  24.771  0.00  0.00    +0.164 C 
ATOM      8  C   UNL     1      -2.087   3.038  24.570  0.00  0.00    +0.165 C 
ATOM      9  C   UNL     1      -0.498   2.276  26.100  0.00  0.00    +0.181 C 
ENDROOT
BRANCH   7   2
ATOM      2  O   UNL     1      -2.712   0.903  23.581  0.00  0.00    -0.388 OA
ATOM     17  H   UNL     1      -3.668   0.744  23.641  0.00  0.00    +0.210 HD
ENDBRANCH   7   2
BRANCH   6   4
ATOM      4  N   UNL     1      -0.881  -0.165  25.901  0.00  0.00    -0.307 NA
ATOM     16  H   UNL     1      -1.811  -0.392  26.253  0.00  0.00    +0.123 HD
BRANCH   4  11
ATOM     11  C   UNL     1      -0.408  -1.229  25.024  0.00  0.00    +0.048 C 
ATOM     12  C   UNL     1      -1.577  -2.133  24.645  0.00  0.00    +0.023 C 
ATOM     13  C   UNL     1       0.253  -0.637  23.783  0.00  0.00    +0.023 C 
ENDBRANCH   4  11
ENDBRANCH   6   4
BRANCH   8  10
ATOM     10  C   UNL     1      -3.367   3.844  24.706  0.00  0.00    +0.138 C 
BRANCH  10   5
ATOM      3  O   UNL     1      -5.460   3.076  26.565  0.00  0.00    -0.276 OA
ATOM      5  N   UNL     1      -4.522   3.039  24.432  0.00  0.00    -0.313 N 
ATOM     14  C   UNL     1      -5.479   2.720  25.389  0.00  0.00    +0.210 C 
ATOM     15  C   UNL     1      -6.600   1.885  24.830  0.00  0.00    +0.109 C 
ATOM     18  H   UNL     1      -4.638   2.687  23.487  0.00  0.00    +0.149 HD
ENDBRANCH  10   5
ENDBRANCH   8  10
TORSDOF 5
ENDMDL
MODEL 3
REMARK VINA RESULT:      -5.8      2.070      3.519
REMARK  Name = 75536495
REMARK  8 active torsions:
REMARK  status: ('A' for Active; 'I' for Inactive)
REMARK    1  A    between atoms: O_2  and  C_7
REMARK    2  A    between atoms: N_4  and  C_6
REMARK    3  A    between atoms: N_4  and  C_11
REMARK    4  A    between atoms: N_5  and  C_10
REMARK    5  A    between atoms: C_8  and  C_10
REMARK    6  A    between atoms: C_11  and  C_12
REMARK    7  A    between atoms: C_11  and  C_13
REMARK    8  A    between atoms: C_14  and  C_15
REMARK                            x       y       z     vdW  Elec       q    Type
REMARK                         _______ _______ _______ _____ _____    ______ ____
ROOT
ATOM      1  O   UNL     1      -4.481   3.035  25.736  0.00  0.00    -0.371 OA
ATOM      6  C   UNL     1      -2.491   3.472  24.515  0.00  0.00    +0.111 C 
ATOM      7  C   UNL     1      -2.954   2.058  24.218  0.00  0.00    +0.164 C 
ATOM      8  C   UNL     1      -4.422   2.140  24.613  0.00  0.00    +0.165 C 
ATOM      9  C   UNL     1      -3.247   3.773  25.798  0.00  0.00    +0.181 C 
ENDROOT
BRANCH   7   2
ATOM      2  O   UNL     1      -2.793   1.705  22.857  0.00  0.00    -0.388 OA
ATOM     17  H   UNL     1      -2.457   0.794  22.816  0.00  0.00    +0.210 HD
ENDBRANCH   7   2
BRANCH   6   4
ATOM      4  N   UNL     1      -1.051   3.596  24.664  0.00  0.00    -0.307 NA
ATOM     16  H   UNL     1      -0.828   4.354  25.309  0.00  0.00    +0.123 HD
BRANCH   4  11
ATOM     11  C   UNL     1      -0.461   2.350  25.139  0.00  0.00    +0.048 C 
ATOM     12  C   UNL     1       0.588   1.871  24.141  0.00  0.00    +0.023 C 
ATOM     13  C   UNL     1       0.148   2.548  26.523  0.00  0.00    +0.023 C 
ENDBRANCH   4  11
ENDBRANCH   6   4
BRANCH   8  10
ATOM     10  C   UNL     1      -5.017   0.797  24.996  0.00  0.00    +0.138 C 
BRANCH  10   5
ATOM      3  O   UNL     1      -4.596  -1.765  23.698  0.00  0.00    -0.276 OA
ATOM      5  N   UNL     1      -3.993  -0.166  25.281  0.00  0.00    -0.313 N 
ATOM     14  C   UNL     1      -3.865  -1.374  24.605  0.00  0.00    +0.210 C 
ATOM     15  C   UNL     1      -2.691  -2.184  25.084  0.00  0.00    +0.109 C 
ATOM     18  H   UNL     1      -3.331   0.055  26.019  0.00  0.00    +0.149 HD
ENDBRANCH  10   5
ENDBRANCH   8  10
TORSDOF 5
ENDMDL
MODEL 4
REMARK VINA RESULT:      -5.6      2.249      5.006
REMARK  Name = 75536495
REMARK  8 active torsions:
REMARK  status: ('A' for Active; 'I' for Inactive)
REMARK    1  A    between atoms: O_2  and  C_7
REMARK    2  A    between atoms: N_4  and  C_6
REMARK    3  A    between atoms: N_4  and  C_11
REMARK    4  A    between atoms: N_5  and  C_10
REMARK    5  A    between atoms: C_8  and  C_10
REMARK    6  A    between atoms: C_11  and  C_12
REMARK    7  A    between atoms: C_11  and  C_13
REMARK    8  A    between atoms: C_14  and  C_15
REMARK                            x       y       z     vdW  Elec       q    Type
REMARK                         _______ _______ _______ _____ _____    ______ ____
ROOT
ATOM      1  O   UNL     1      -3.027   2.792  23.311  0.00  0.00    -0.371 OA
ATOM      6  C   UNL     1      -4.607   1.383  24.389  0.00  0.00    +0.111 C 
ATOM      7  C   UNL     1      -4.162   2.461  25.359  0.00  0.00    +0.164 C 
ATOM      8  C   UNL     1      -3.623   3.514  24.402  0.00  0.00    +0.165 C 
ATOM      9  C   UNL     1      -3.495   1.432  23.355  0.00  0.00    +0.181 C 
ENDROOT
BRANCH   7   2
ATOM      2  O   UNL     1      -5.226   2.960  26.147  0.00  0.00    -0.388 OA
ATOM     17  H   UNL     1      -5.422   2.311  26.843  0.00  0.00    +0.210 HD
ENDBRANCH   7   2
BRANCH   6   4
ATOM      4  N   UNL     1      -4.755   0.072  25.000  0.00  0.00    -0.307 NA
ATOM     16  H   UNL     1      -5.646  -0.343  24.730  0.00  0.00    +0.123 HD
BRANCH   4  11
ATOM     11  C   UNL     1      -3.660  -0.812  24.622  0.00  0.00    +0.048 C 
ATOM     12  C   UNL     1      -2.861  -1.193  25.863  0.00  0.00    +0.023 C 
ATOM     13  C   UNL     1      -4.201  -2.052  23.916  0.00  0.00    +0.023 C 
ENDBRANCH   4  11
ENDBRANCH   6   4
BRANCH   8  10
ATOM     10  C   UNL     1      -2.591   4.431  25.034  0.00  0.00    +0.138 C 
BRANCH  10   5
ATOM      3  O   UNL     1      -0.097   3.137  24.307  0.00  0.00    -0.276 OA
ATOM      5  N   UNL     1      -1.704   3.702  25.895  0.00  0.00    -0.313 N 
ATOM     14  C   UNL     1      -0.524   3.112  25.459  0.00  0.00    +0.210 C 
ATOM     15  C   UNL     1       0.230   2.433  26.571  0.00  0.00    +0.109 C 
ATOM     18  H   UNL     1      -1.962   3.617  26.874  0.00  0.00    +0.149 HD
ENDBRANCH  10   5
ENDBRANCH   8  10
TORSDOF 5
ENDMDL
MODEL 5
REMARK VINA RESULT:      -5.5      1.751      4.567
REMARK  Name = 75536495
REMARK  8 active torsions:
REMARK  status: ('A' for Active; 'I' for Inactive)
REMARK    1  A    between atoms: O_2  and  C_7
REMARK    2  A    between atoms: N_4  and  C_6
REMARK    3  A    between atoms: N_4  and  C_11
REMARK    4  A    between atoms: N_5  and  C_10
REMARK    5  A    between atoms: C_8  and  C_10
REMARK    6  A    between atoms: C_11  and  C_12
REMARK    7  A    between atoms: C_11  and  C_13
REMARK    8  A    between atoms: C_14  and  C_15
REMARK                            x       y       z     vdW  Elec       q    Type
REMARK                         _______ _______ _______ _____ _____    ______ ____
ROOT
ATOM      1  O   UNL     1      -0.451   2.257  25.918  0.00  0.00    -0.371 OA
ATOM      6  C   UNL     1      -1.037   0.501  24.429  0.00  0.00    +0.111 C 
ATOM      7  C   UNL     1      -1.883   1.720  24.114  0.00  0.00    +0.164 C 
ATOM      8  C   UNL     1      -1.049   2.828  24.742  0.00  0.00    +0.165 C 
ATOM      9  C   UNL     1      -0.555   0.824  25.833  0.00  0.00    +0.181 C 
ENDROOT
BRANCH   7   2
ATOM      2  O   UNL     1      -2.062   1.918  22.725  0.00  0.00    -0.388 OA
ATOM     17  H   UNL     1      -1.827   2.837  22.514  0.00  0.00    +0.210 HD
ENDBRANCH   7   2
BRANCH   6   4
ATOM      4  N   UNL     1      -1.769  -0.753  24.356  0.00  0.00    -0.307 NA
ATOM     16  H   UNL     1      -1.288  -1.472  24.896  0.00  0.00    +0.123 HD
BRANCH   4  11
ATOM     11  C   UNL     1      -3.133  -0.595  24.843  0.00  0.00    +0.048 C 
ATOM     12  C   UNL     1      -4.111  -1.114  23.794  0.00  0.00    +0.023 C 
ATOM     13  C   UNL     1      -3.310  -1.330  26.168  0.00  0.00    +0.023 C 
ENDBRANCH   4  11
ENDBRANCH   6   4
BRANCH   8  10
ATOM     10  C   UNL     1      -1.862   4.052  25.123  0.00  0.00    +0.138 C 
BRANCH  10   5
ATOM      3  O   UNL     1      -4.384   3.741  23.719  0.00  0.00    -0.276 OA
ATOM      5  N   UNL     1      -3.131   3.682  25.682  0.00  0.00    -0.313 N 
ATOM     14  C   UNL     1      -4.293   3.556  24.931  0.00  0.00    +0.210 C 
ATOM     15  C   UNL     1      -5.475   3.132  25.760  0.00  0.00    +0.109 C 
ATOM     18  H   UNL     1      -3.172   3.507  26.682  0.00  0.00    +0.149 HD
ENDBRANCH  10   5
ENDBRANCH   8  10
TORSDOF 5
ENDMDL
MODEL 6
REMARK VINA RESULT:      -5.4      1.388      4.647
REMARK  Name = 75536495
REMARK  8 active torsions:
REMARK  status: ('A' for Active; 'I' for Inactive)
REMARK    1  A    between atoms: O_2  and  C_7
REMARK    2  A    between atoms: N_4  and  C_6
REMARK    3  A    between atoms: N_4  and  C_11
REMARK    4  A    between atoms: N_5  and  C_10
REMARK    5  A    between atoms: C_8  and  C_10
REMARK    6  A    between atoms: C_11  and  C_12
REMARK    7  A    between atoms: C_11  and  C_13
REMARK    8  A    between atoms: C_14  and  C_15
REMARK                            x       y       z     vdW  Elec       q    Type
REMARK                         _______ _______ _______ _____ _____    ______ ____
ROOT
ATOM      1  O   UNL     1      -0.809   1.194  26.049  0.00  0.00    -0.371 OA
ATOM      6  C   UNL     1      -0.700  -0.794  24.753  0.00  0.00    +0.111 C 
ATOM      7  C   UNL     1      -0.530   0.404  23.838  0.00  0.00    +0.164 C 
ATOM      8  C   UNL     1      -0.100   1.475  24.831  0.00  0.00    +0.165 C 
ATOM      9  C   UNL     1      -1.322  -0.149  25.981  0.00  0.00    +0.181 C 
ENDROOT
BRANCH   7   2
ATOM      2  O   UNL     1       0.445   0.192  22.835  0.00  0.00    -0.388 OA
ATOM     17  H   UNL     1       1.313   0.111  23.265  0.00  0.00    +0.210 HD
ENDBRANCH   7   2
BRANCH   6   4
ATOM      4  N   UNL     1      -1.525  -1.849  24.188  0.00  0.00    -0.307 NA
ATOM     16  H   UNL     1      -1.115  -2.761  24.388  0.00  0.00    +0.123 HD
BRANCH   4  11
ATOM     11  C   UNL     1      -2.884  -1.791  24.712  0.00  0.00    +0.048 C 
ATOM     12  C   UNL     1      -3.755  -0.959  23.776  0.00  0.00    +0.023 C 
ATOM     13  C   UNL     1      -3.447  -3.200  24.877  0.00  0.00    +0.023 C 
ENDBRANCH   4  11
ENDBRANCH   6   4
BRANCH   8  10
ATOM     10  C   UNL     1      -0.415   2.886  24.367  0.00  0.00    +0.138 C 
BRANCH  10   5
ATOM      3  O   UNL     1      -3.130   2.577  23.388  0.00  0.00    -0.276 OA
ATOM      5  N   UNL     1      -1.620   3.377  24.972  0.00  0.00    -0.313 N 
ATOM     14  C   UNL     1      -2.885   3.181  24.430  0.00  0.00    +0.210 C 
ATOM     15  C   UNL     1      -3.976   3.777  25.278  0.00  0.00    +0.109 C 
ATOM     18  H   UNL     1      -1.534   3.896  25.841  0.00  0.00    +0.149 HD
ENDBRANCH  10   5
ENDBRANCH   8  10
TORSDOF 5
ENDMDL
MODEL 7
REMARK VINA RESULT:      -5.4      2.496      4.069
REMARK  Name = 75536495
REMARK  8 active torsions:
REMARK  status: ('A' for Active; 'I' for Inactive)
REMARK    1  A    between atoms: O_2  and  C_7
REMARK    2  A    between atoms: N_4  and  C_6
REMARK    3  A    between atoms: N_4  and  C_11
REMARK    4  A    between atoms: N_5  and  C_10
REMARK    5  A    between atoms: C_8  and  C_10
REMARK    6  A    between atoms: C_11  and  C_12
REMARK    7  A    between atoms: C_11  and  C_13
REMARK    8  A    between atoms: C_14  and  C_15
REMARK                            x       y       z     vdW  Elec       q    Type
REMARK                         _______ _______ _______ _____ _____    ______ ____
ROOT
ATOM      1  O   UNL     1      -0.052   2.096  24.334  0.00  0.00    -0.371 OA
ATOM      6  C   UNL     1      -2.421   2.249  24.420  0.00  0.00    +0.111 C 
ATOM      7  C   UNL     1      -2.033   0.896  23.855  0.00  0.00    +0.164 C 
ATOM      8  C   UNL     1      -0.601   0.768  24.356  0.00  0.00    +0.165 C 
ATOM      9  C   UNL     1      -1.136   3.036  24.226  0.00  0.00    +0.181 C 
ENDROOT
BRANCH   7   2
ATOM      2  O   UNL     1      -2.854  -0.152  24.333  0.00  0.00    -0.388 OA
ATOM     17  H   UNL     1      -2.531  -0.989  23.958  0.00  0.00    +0.210 HD
ENDBRANCH   7   2
BRANCH   6   4
ATOM      4  N   UNL     1      -3.562   2.855  23.754  0.00  0.00    -0.307 NA
ATOM     16  H   UNL     1      -3.944   2.214  23.059  0.00  0.00    +0.123 HD
BRANCH   4  11
ATOM     11  C   UNL     1      -4.597   3.221  24.713  0.00  0.00    +0.048 C 
ATOM     12  C   UNL     1      -5.480   2.010  24.997  0.00  0.00    +0.023 C 
ATOM     13  C   UNL     1      -3.966   3.752  25.996  0.00  0.00    +0.023 C 
ENDBRANCH   4  11
ENDBRANCH   6   4
BRANCH   8  10
ATOM     10  C   UNL     1       0.254  -0.155  23.505  0.00  0.00    +0.138 C 
BRANCH  10   5
ATOM      3  O   UNL     1       2.113  -0.262  21.278  0.00  0.00    -0.276 OA
ATOM      5  N   UNL     1       1.625   0.267  23.493  0.00  0.00    -0.313 N 
ATOM     14  C   UNL     1       2.446   0.179  22.375  0.00  0.00    +0.210 C 
ATOM     15  C   UNL     1       3.829   0.714  22.629  0.00  0.00    +0.109 C 
ATOM     18  H   UNL     1       2.008   0.647  24.354  0.00  0.00    +0.149 HD
ENDBRANCH  10   5
ENDBRANCH   8  10
TORSDOF 5
ENDMDL
MODEL 8
REMARK VINA RESULT:      -5.4      1.876      3.219
REMARK  Name = 75536495
REMARK  8 active torsions:
REMARK  status: ('A' for Active; 'I' for Inactive)
REMARK    1  A    between atoms: O_2  and  C_7
REMARK    2  A    between atoms: N_4  and  C_6
REMARK    3  A    between atoms: N_4  and  C_11
REMARK    4  A    between atoms: N_5  and  C_10
REMARK    5  A    between atoms: C_8  and  C_10
REMARK    6  A    between atoms: C_11  and  C_12
REMARK    7  A    between atoms: C_11  and  C_13
REMARK    8  A    between atoms: C_14  and  C_15
REMARK                            x       y       z     vdW  Elec       q    Type
REMARK                         _______ _______ _______ _____ _____    ______ ____
ROOT
ATOM      1  O   UNL     1      -5.436   1.116  25.382  0.00  0.00    -0.371 OA
ATOM      6  C   UNL     1      -4.354   2.873  24.204  0.00  0.00    +0.111 C 
ATOM      7  C   UNL     1      -3.463   1.645  24.190  0.00  0.00    +0.164 C 
ATOM      8  C   UNL     1      -4.474   0.544  24.479  0.00  0.00    +0.165 C 
ATOM      9  C   UNL     1      -5.296   2.548  25.352  0.00  0.00    +0.181 C 
ENDROOT
BRANCH   7   2
ATOM      2  O   UNL     1      -2.817   1.453  22.946  0.00  0.00    -0.388 OA
ATOM     17  H   UNL     1      -3.297   0.766  22.455  0.00  0.00    +0.210 HD
ENDBRANCH   7   2
BRANCH   6   4
ATOM      4  N   UNL     1      -3.630   4.118  24.401  0.00  0.00    -0.307 NA
ATOM     16  H   UNL     1      -4.267   4.848  24.719  0.00  0.00    +0.123 HD
BRANCH   4  11
ATOM     11  C   UNL     1      -2.547   3.951  25.362  0.00  0.00    +0.048 C 
ATOM     12  C   UNL     1      -1.384   4.861  24.981  0.00  0.00    +0.023 C 
ATOM     13  C   UNL     1      -3.041   4.254  26.773  0.00  0.00    +0.023 C 
ENDBRANCH   4  11
ENDBRANCH   6   4
BRANCH   8  10
ATOM     10  C   UNL     1      -3.854  -0.692  25.106  0.00  0.00    +0.138 C 
BRANCH  10   5
ATOM      3  O   UNL     1      -1.241  -0.571  26.362  0.00  0.00    -0.276 OA
ATOM      5  N   UNL     1      -2.587  -1.000  24.510  0.00  0.00    -0.313 N 
ATOM     14  C   UNL     1      -1.377  -0.914  25.190  0.00  0.00    +0.210 C 
ATOM     15  C   UNL     1      -0.204  -1.317  24.338  0.00  0.00    +0.109 C 
ATOM     18  H   UNL     1      -2.582  -1.293  23.537  0.00  0.00    +0.149 HD
ENDBRANCH  10   5
ENDBRANCH   8  10
TORSDOF 5
ENDMDL
MODEL 9
REMARK VINA RESULT:      -5.4      2.148      4.116
REMARK  Name = 75536495
REMARK  8 active torsions:
REMARK  status: ('A' for Active; 'I' for Inactive)
REMARK    1  A    between atoms: O_2  and  C_7
REMARK    2  A    between atoms: N_4  and  C_6
REMARK    3  A    between atoms: N_4  and  C_11
REMARK    4  A    between atoms: N_5  and  C_10
REMARK    5  A    between atoms: C_8  and  C_10
REMARK    6  A    between atoms: C_11  and  C_12
REMARK    7  A    between atoms: C_11  and  C_13
REMARK    8  A    between atoms: C_14  and  C_15
REMARK                            x       y       z     vdW  Elec       q    Type
REMARK                         _______ _______ _______ _____ _____    ______ ____
ROOT
ATOM      1  O   UNL     1      -1.438   0.019  25.135  0.00  0.00    -0.371 OA
ATOM      6  C   UNL     1      -3.455   0.562  24.004  0.00  0.00    +0.111 C 
ATOM      7  C   UNL     1      -2.377   1.548  23.595  0.00  0.00    +0.164 C 
ATOM      8  C   UNL     1      -1.117   0.773  23.954  0.00  0.00    +0.165 C 
ATOM      9  C   UNL     1      -2.869  -0.011  25.284  0.00  0.00    +0.181 C 
ENDROOT
BRANCH   7   2
ATOM      2  O   UNL     1      -2.424   1.870  22.218  0.00  0.00    -0.388 OA
ATOM     17  H   UNL     1      -2.173   1.080  21.711  0.00  0.00    +0.210 HD
ENDBRANCH   7   2
BRANCH   6   4
ATOM      4  N   UNL     1      -4.760   1.172  24.202  0.00  0.00    -0.307 NA
ATOM     16  H   UNL     1      -5.466   0.451  24.349  0.00  0.00    +0.123 HD
BRANCH   4  11
ATOM     11  C   UNL     1      -4.745   2.091  25.333  0.00  0.00    +0.048 C 
ATOM     12  C   UNL     1      -4.547   3.516  24.828  0.00  0.00    +0.023 C 
ATOM     13  C   UNL     1      -6.040   1.967  26.131  0.00  0.00    +0.023 C 
ENDBRANCH   4  11
ENDBRANCH   6   4
BRANCH   8  10
ATOM     10  C   UNL     1       0.082   1.665  24.225  0.00  0.00    +0.138 C 
BRANCH  10   5
ATOM      3  O   UNL     1      -1.161   3.173  26.371  0.00  0.00    -0.276 OA
ATOM      5  N   UNL     1      -0.287   3.051  24.215  0.00  0.00    -0.313 N 
ATOM     14  C   UNL     1      -0.880   3.695  25.294  0.00  0.00    +0.210 C 
ATOM     15  C   UNL     1      -1.139   5.154  25.027  0.00  0.00    +0.109 C 
ATOM     18  H   UNL     1      -0.102   3.582  23.369  0.00  0.00    +0.149 HD
ENDBRANCH  10   5
ENDBRANCH   8  10
TORSDOF 5
ENDMDL
MODEL 10
REMARK VINA RESULT:      -5.4      1.474      1.544
REMARK  Name = 75536495
REMARK  8 active torsions:
REMARK  status: ('A' for Active; 'I' for Inactive)
REMARK    1  A    between atoms: O_2  and  C_7
REMARK    2  A    between atoms: N_4  and  C_6
REMARK    3  A    between atoms: N_4  and  C_11
REMARK    4  A    between atoms: N_5  and  C_10
REMARK    5  A    between atoms: C_8  and  C_10
REMARK    6  A    between atoms: C_11  and  C_12
REMARK    7  A    between atoms: C_11  and  C_13
REMARK    8  A    between atoms: C_14  and  C_15
REMARK                            x       y       z     vdW  Elec       q    Type
REMARK                         _______ _______ _______ _____ _____    ______ ____
ROOT
ATOM      1  O   UNL     1      -1.434   0.900  23.098  0.00  0.00    -0.371 OA
ATOM      6  C   UNL     1      -2.547   2.857  23.855  0.00  0.00    +0.111 C 
ATOM      7  C   UNL     1      -2.100   2.046  25.056  0.00  0.00    +0.164 C 
ATOM      8  C   UNL     1      -1.006   1.186  24.440  0.00  0.00    +0.165 C 
ATOM      9  C   UNL     1      -2.487   1.816  22.750  0.00  0.00    +0.181 C 
ENDROOT
BRANCH   7   2
ATOM      2  O   UNL     1      -1.607   2.853  26.108  0.00  0.00    -0.388 OA
ATOM     17  H   UNL     1      -2.263   3.545  26.295  0.00  0.00    +0.210 HD
ENDBRANCH   7   2
BRANCH   6   4
ATOM      4  N   UNL     1      -3.867   3.447  24.006  0.00  0.00    -0.307 NA
ATOM     16  H   UNL     1      -4.411   3.315  23.153  0.00  0.00    +0.123 HD
BRANCH   4  11
ATOM     11  C   UNL     1      -4.575   2.869  25.141  0.00  0.00    +0.048 C 
ATOM     12  C   UNL     1      -5.435   3.940  25.804  0.00  0.00    +0.023 C 
ATOM     13  C   UNL     1      -5.426   1.687  24.686  0.00  0.00    +0.023 C 
ENDBRANCH   4  11
ENDBRANCH   6   4
BRANCH   8  10
ATOM     10  C   UNL     1      -0.768  -0.113  25.190  0.00  0.00    +0.138 C 
BRANCH  10   5
ATOM      3  O   UNL     1      -3.362  -1.033  26.112  0.00  0.00    -0.276 OA
ATOM      5  N   UNL     1      -1.556  -1.181  24.647  0.00  0.00    -0.313 N 
ATOM     14  C   UNL     1      -2.795  -1.555  25.155  0.00  0.00    +0.210 C 
ATOM     15  C   UNL     1      -3.419  -2.687  24.384  0.00  0.00    +0.109 C 
ATOM     18  H   UNL     1      -1.180  -1.687  23.850  0.00  0.00    +0.149 HD
ENDBRANCH  10   5
ENDBRANCH   8  10
TORSDOF 5
ENDMDL
