MODEL 1
REMARK VINA RESULT:      -5.3      0.000      0.000
REMARK  Name = 75367092
REMARK  7 active torsions:
REMARK  status: ('A' for Active; 'I' for Inactive)
REMARK    1  A    between atoms: S_1  and  N_8
REMARK    2  A    between atoms: S_1  and  C_19
REMARK    3  A    between atoms: O_3  and  C_10
REMARK    4  A    between atoms: N_7  and  C_9
REMARK    5  A    between atoms: N_7  and  C_12
REMARK    6  A    between atoms: N_8  and  C_16
REMARK    7  A    between atoms: C_11  and  C_16
REMARK                            x       y       z     vdW  Elec       q    Type
REMARK                         _______ _______ _______ _____ _____    ______ ____
ROOT
ATOM      2  O   UNL     1      -0.394  -0.094  23.340  0.00  0.00    -0.371 OA
ATOM      9  C   UNL     1      -0.512   2.140  24.137  0.00  0.00    +0.111 C 
ATOM     10  C   UNL     1      -0.710   1.189  25.302  0.00  0.00    +0.164 C 
ATOM     11  C   UNL     1      -0.095  -0.088  24.746  0.00  0.00    +0.164 C 
ATOM     13  C   UNL     1      -0.799   1.231  22.953  0.00  0.00    +0.181 C 
ENDROOT
BRANCH  10   3
ATOM      3  O   UNL     1      -0.055   1.622  26.478  0.00  0.00    -0.388 OA
ATOM     21  H   UNL     1       0.884   1.766  26.270  0.00  0.00    +0.210 HD
ENDBRANCH  10   3
BRANCH   9   7
ATOM      7  N   UNL     1      -1.382   3.305  24.180  0.00  0.00    -0.306 NA
ATOM     20  H   UNL     1      -1.565   3.640  23.235  0.00  0.00    +0.123 HD
BRANCH   7  12
ATOM      4  O   UNL     1      -5.354   3.741  25.466  0.00  0.00    -0.380 OA
ATOM     12  C   UNL     1      -2.644   2.994  24.847  0.00  0.00    +0.058 C 
ATOM     14  C   UNL     1      -3.785   2.859  23.833  0.00  0.00    +0.047 C 
ATOM     15  C   UNL     1      -2.982   4.076  25.877  0.00  0.00    +0.047 C 
ATOM     17  C   UNL     1      -5.115   2.669  24.555  0.00  0.00    +0.161 C 
ATOM     18  C   UNL     1      -4.357   3.818  26.484  0.00  0.00    +0.161 C 
ENDBRANCH   7  12
ENDBRANCH   9   7
BRANCH  11  16
ATOM     16  C   UNL     1      -0.639  -1.349  25.393  0.00  0.00    +0.139 C 
BRANCH  16   8
ATOM      8  N   UNL     1      -1.621  -1.984  24.493  0.00  0.00    -0.192 NA
ATOM     22  H   UNL     1      -1.278  -2.852  24.061  0.00  0.00    +0.148 HD
BRANCH   8   1
ATOM      1  S   UNL     1      -3.274  -1.955  24.914  0.00  0.00    +0.027 S 
ATOM      5  O   UNL     1      -3.433  -1.410  26.248  0.00  0.00    -0.158 OA
ATOM      6  O   UNL     1      -3.860  -3.234  24.561  0.00  0.00    -0.158 OA
ATOM     19  C   UNL     1      -3.886  -0.753  23.755  0.00  0.00    +0.214 C 
ENDBRANCH   8   1
ENDBRANCH  16   8
ENDBRANCH  11  16
TORSDOF 6
ENDMDL
MODEL 2
REMARK VINA RESULT:      -5.2      2.131      4.896
REMARK  Name = 75367092
REMARK  7 active torsions:
REMARK  status: ('A' for Active; 'I' for Inactive)
REMARK    1  A    between atoms: S_1  and  N_8
REMARK    2  A    between atoms: S_1  and  C_19
REMARK    3  A    between atoms: O_3  and  C_10
REMARK    4  A    between atoms: N_7  and  C_9
REMARK    5  A    between atoms: N_7  and  C_12
REMARK    6  A    between atoms: N_8  and  C_16
REMARK    7  A    between atoms: C_11  and  C_16
REMARK                            x       y       z     vdW  Elec       q    Type
REMARK                         _______ _______ _______ _____ _____    ______ ____
ROOT
ATOM      2  O   UNL     1      -0.629   3.530  25.761  0.00  0.00    -0.371 OA
ATOM      9  C   UNL     1      -0.260   1.455  24.667  0.00  0.00    +0.111 C 
ATOM     10  C   UNL     1      -1.638   1.971  24.297  0.00  0.00    +0.164 C 
ATOM     11  C   UNL     1      -1.491   3.453  24.614  0.00  0.00    +0.164 C 
ATOM     13  C   UNL     1       0.041   2.267  25.916  0.00  0.00    +0.181 C 
ENDROOT
BRANCH  10   3
ATOM      3  O   UNL     1      -1.957   1.751  22.937  0.00  0.00    -0.388 OA
ATOM     21  H   UNL     1      -1.168   1.942  22.403  0.00  0.00    +0.210 HD
ENDBRANCH  10   3
BRANCH   9   7
ATOM      7  N   UNL     1      -0.217   0.021  24.900  0.00  0.00    -0.306 NA
ATOM     20  H   UNL     1       0.126  -0.172  25.840  0.00  0.00    +0.123 HD
BRANCH   7  12
ATOM      4  O   UNL     1      -3.450  -2.594  25.478  0.00  0.00    -0.380 OA
ATOM     12  C   UNL     1      -1.536  -0.581  24.722  0.00  0.00    +0.058 C 
ATOM     14  C   UNL     1      -2.363  -0.486  26.008  0.00  0.00    +0.047 C 
ATOM     15  C   UNL     1      -1.401  -2.045  24.292  0.00  0.00    +0.047 C 
ATOM     17  C   UNL     1      -3.682  -1.235  25.847  0.00  0.00    +0.161 C 
ATOM     18  C   UNL     1      -2.773  -2.707  24.227  0.00  0.00    +0.161 C 
ENDBRANCH   7  12
ENDBRANCH   9   7
BRANCH  11  16
ATOM     16  C   UNL     1      -2.813   4.137  24.917  0.00  0.00    +0.139 C 
BRANCH  16   8
ATOM      8  N   UNL     1      -3.555   3.355  25.926  0.00  0.00    -0.192 NA
ATOM     22  H   UNL     1      -3.217   3.504  26.886  0.00  0.00    +0.148 HD
BRANCH   8   1
ATOM      1  S   UNL     1      -5.238   3.148  25.743  0.00  0.00    +0.027 S 
ATOM      5  O   UNL     1      -5.838   4.383  25.277  0.00  0.00    -0.158 OA
ATOM      6  O   UNL     1      -5.749   2.475  26.921  0.00  0.00    -0.158 OA
ATOM     19  C   UNL     1      -5.281   1.980  24.403  0.00  0.00    +0.214 C 
ENDBRANCH   8   1
ENDBRANCH  16   8
ENDBRANCH  11  16
TORSDOF 6
ENDMDL
MODEL 3
REMARK VINA RESULT:      -5.1      2.216      5.155
REMARK  Name = 75367092
REMARK  7 active torsions:
REMARK  status: ('A' for Active; 'I' for Inactive)
REMARK    1  A    between atoms: S_1  and  N_8
REMARK    2  A    between atoms: S_1  and  C_19
REMARK    3  A    between atoms: O_3  and  C_10
REMARK    4  A    between atoms: N_7  and  C_9
REMARK    5  A    between atoms: N_7  and  C_12
REMARK    6  A    between atoms: N_8  and  C_16
REMARK    7  A    between atoms: C_11  and  C_16
REMARK                            x       y       z     vdW  Elec       q    Type
REMARK                         _______ _______ _______ _____ _____    ______ ____
ROOT
ATOM      2  O   UNL     1      -2.614   3.093  23.614  0.00  0.00    -0.371 OA
ATOM      9  C   UNL     1      -4.622   1.993  24.246  0.00  0.00    +0.111 C 
ATOM     10  C   UNL     1      -4.092   2.776  25.433  0.00  0.00    +0.164 C 
ATOM     11  C   UNL     1      -3.184   3.782  24.739  0.00  0.00    +0.164 C 
ATOM     13  C   UNL     1      -3.384   1.904  23.367  0.00  0.00    +0.181 C 
ENDROOT
BRANCH  10   3
ATOM      3  O   UNL     1      -5.118   3.411  26.170  0.00  0.00    -0.388 OA
ATOM     21  H   UNL     1      -5.924   3.422  25.627  0.00  0.00    +0.210 HD
ENDBRANCH  10   3
BRANCH   9   7
ATOM      7  N   UNL     1      -5.160   0.690  24.600  0.00  0.00    -0.306 NA
ATOM     20  H   UNL     1      -5.915   0.438  23.963  0.00  0.00    +0.123 HD
BRANCH   7  12
ATOM      4  O   UNL     1      -3.256  -2.994  25.251  0.00  0.00    -0.380 OA
ATOM     12  C   UNL     1      -4.121  -0.336  24.564  0.00  0.00    +0.058 C 
ATOM     14  C   UNL     1      -4.597  -1.577  23.802  0.00  0.00    +0.047 C 
ATOM     15  C   UNL     1      -3.703  -0.722  25.986  0.00  0.00    +0.047 C 
ATOM     17  C   UNL     1      -3.554  -2.686  23.889  0.00  0.00    +0.161 C 
ATOM     18  C   UNL     1      -2.710  -1.877  25.952  0.00  0.00    +0.161 C 
ENDBRANCH   7  12
ENDBRANCH   9   7
BRANCH  11  16
ATOM     16  C   UNL     1      -2.077   4.310  25.634  0.00  0.00    +0.139 C 
BRANCH  16   8
ATOM      8  N   UNL     1      -0.768   3.865  25.117  0.00  0.00    -0.192 NA
ATOM     22  H   UNL     1      -0.102   4.636  24.975  0.00  0.00    +0.148 HD
BRANCH   8   1
ATOM      1  S   UNL     1      -0.109   2.395  25.679  0.00  0.00    +0.027 S 
ATOM      5  O   UNL     1      -1.177   1.467  25.998  0.00  0.00    -0.158 OA
ATOM      6  O   UNL     1       0.925   2.697  26.651  0.00  0.00    -0.158 OA
ATOM     19  C   UNL     1       0.700   1.813  24.207  0.00  0.00    +0.214 C 
ENDBRANCH   8   1
ENDBRANCH  16   8
ENDBRANCH  11  16
TORSDOF 6
ENDMDL
MODEL 4
REMARK VINA RESULT:      -4.4     14.212     16.231
REMARK  Name = 75367092
REMARK  7 active torsions:
REMARK  status: ('A' for Active; 'I' for Inactive)
REMARK    1  A    between atoms: S_1  and  N_8
REMARK    2  A    between atoms: S_1  and  C_19
REMARK    3  A    between atoms: O_3  and  C_10
REMARK    4  A    between atoms: N_7  and  C_9
REMARK    5  A    between atoms: N_7  and  C_12
REMARK    6  A    between atoms: N_8  and  C_16
REMARK    7  A    between atoms: C_11  and  C_16
REMARK                            x       y       z     vdW  Elec       q    Type
REMARK                         _______ _______ _______ _____ _____    ______ ____
ROOT
ATOM      2  O   UNL     1      -5.030 -10.324  16.492  0.00  0.00    -0.371 OA
ATOM      9  C   UNL     1      -5.524  -9.878  14.212  0.00  0.00    +0.111 C 
ATOM     10  C   UNL     1      -6.824 -10.069  14.972  0.00  0.00    +0.164 C 
ATOM     11  C   UNL     1      -6.369  -9.810  16.401  0.00  0.00    +0.164 C 
ATOM     13  C   UNL     1      -4.524 -10.520  15.160  0.00  0.00    +0.181 C 
ENDROOT
BRANCH  10   3
ATOM      3  O   UNL     1      -7.832  -9.164  14.566  0.00  0.00    -0.388 OA
ATOM     21  H   UNL     1      -7.678  -8.931  13.635  0.00  0.00    +0.210 HD
ENDBRANCH  10   3
BRANCH   9   7
ATOM      7  N   UNL     1      -5.525 -10.486  12.892  0.00  0.00    -0.306 NA
ATOM     20  H   UNL     1      -6.475 -10.745  12.626  0.00  0.00    +0.123 HD
BRANCH   7  12
ATOM      4  O   UNL     1      -4.187  -9.091   9.165  0.00  0.00    -0.380 OA
ATOM     12  C   UNL     1      -4.962  -9.580  11.894  0.00  0.00    +0.058 C 
ATOM     14  C   UNL     1      -5.982  -9.268  10.794  0.00  0.00    +0.047 C 
ATOM     15  C   UNL     1      -3.695 -10.183  11.280  0.00  0.00    +0.047 C 
ATOM     17  C   UNL     1      -5.337  -8.431   9.695  0.00  0.00    +0.161 C 
ATOM     18  C   UNL     1      -3.178  -9.296  10.154  0.00  0.00    +0.161 C 
ENDBRANCH   7  12
ENDBRANCH   9   7
BRANCH  11  16
ATOM     16  C   UNL     1      -7.248 -10.479  17.443  0.00  0.00    +0.139 C 
BRANCH  16   8
ATOM      8  N   UNL     1      -8.131  -9.474  18.066  0.00  0.00    -0.192 NA
ATOM     22  H   UNL     1      -7.685  -8.554  18.179  0.00  0.00    +0.148 HD
BRANCH   8   1
ATOM      1  S   UNL     1      -9.790  -9.464  17.667  0.00  0.00    +0.027 S 
ATOM      5  O   UNL     1     -10.586  -9.635  18.867  0.00  0.00    -0.158 OA
ATOM      6  O   UNL     1      -9.990 -10.324  16.516  0.00  0.00    -0.158 OA
ATOM     19  C   UNL     1      -9.984  -7.784  17.116  0.00  0.00    +0.214 C 
ENDBRANCH   8   1
ENDBRANCH  16   8
ENDBRANCH  11  16
TORSDOF 6
ENDMDL
MODEL 5
REMARK VINA RESULT:      -4.0      2.214      3.943
REMARK  Name = 75367092
REMARK  7 active torsions:
REMARK  status: ('A' for Active; 'I' for Inactive)
REMARK    1  A    between atoms: S_1  and  N_8
REMARK    2  A    between atoms: S_1  and  C_19
REMARK    3  A    between atoms: O_3  and  C_10
REMARK    4  A    between atoms: N_7  and  C_9
REMARK    5  A    between atoms: N_7  and  C_12
REMARK    6  A    between atoms: N_8  and  C_16
REMARK    7  A    between atoms: C_11  and  C_16
REMARK                            x       y       z     vdW  Elec       q    Type
REMARK                         _______ _______ _______ _____ _____    ______ ____
ROOT
ATOM      2  O   UNL     1      -2.250  -1.933  25.217  0.00  0.00    -0.371 OA
ATOM      9  C   UNL     1      -3.714  -0.618  23.885  0.00  0.00    +0.111 C 
ATOM     10  C   UNL     1      -2.474   0.195  24.208  0.00  0.00    +0.164 C 
ATOM     11  C   UNL     1      -1.485  -0.906  24.563  0.00  0.00    +0.164 C 
ATOM     13  C   UNL     1      -3.644  -1.706  24.945  0.00  0.00    +0.181 C 
ENDROOT
BRANCH  10   3
ATOM      3  O   UNL     1      -2.030   0.971  23.113  0.00  0.00    -0.388 OA
ATOM     21  H   UNL     1      -1.060   0.921  23.076  0.00  0.00    +0.210 HD
ENDBRANCH  10   3
BRANCH   9   7
ATOM      7  N   UNL     1      -4.947   0.149  23.942  0.00  0.00    -0.306 NA
ATOM     20  H   UNL     1      -5.719  -0.449  24.235  0.00  0.00    +0.123 HD
BRANCH   7  12
ATOM      4  O   UNL     1      -5.801   3.822  25.787  0.00  0.00    -0.380 OA
ATOM     12  C   UNL     1      -4.821   1.279  24.860  0.00  0.00    +0.058 C 
ATOM     14  C   UNL     1      -6.062   1.407  25.750  0.00  0.00    +0.047 C 
ATOM     15  C   UNL     1      -4.601   2.578  24.079  0.00  0.00    +0.047 C 
ATOM     17  C   UNL     1      -5.973   2.666  26.606  0.00  0.00    +0.161 C 
ATOM     18  C   UNL     1      -4.593   3.772  25.027  0.00  0.00    +0.161 C 
ENDBRANCH   7  12
ENDBRANCH   9   7
BRANCH  11  16
ATOM     16  C   UNL     1      -0.367  -0.438  25.478  0.00  0.00    +0.139 C 
BRANCH  16   8
ATOM      8  N   UNL     1      -0.743   0.846  26.103  0.00  0.00    -0.192 NA
ATOM     22  H   UNL     1      -1.018   0.754  27.089  0.00  0.00    +0.148 HD
BRANCH   8   1
ATOM      1  S   UNL     1       0.126   2.255  25.691  0.00  0.00    +0.027 S 
ATOM      5  O   UNL     1       0.719   2.102  24.377  0.00  0.00    -0.158 OA
ATOM      6  O   UNL     1       0.937   2.643  26.829  0.00  0.00    -0.158 OA
ATOM     19  C   UNL     1      -1.202   3.431  25.559  0.00  0.00    +0.214 C 
ENDBRANCH   8   1
ENDBRANCH  16   8
ENDBRANCH  11  16
TORSDOF 6
ENDMDL
MODEL 6
REMARK VINA RESULT:      -3.5      2.069      4.986
REMARK  Name = 75367092
REMARK  7 active torsions:
REMARK  status: ('A' for Active; 'I' for Inactive)
REMARK    1  A    between atoms: S_1  and  N_8
REMARK    2  A    between atoms: S_1  and  C_19
REMARK    3  A    between atoms: O_3  and  C_10
REMARK    4  A    between atoms: N_7  and  C_9
REMARK    5  A    between atoms: N_7  and  C_12
REMARK    6  A    between atoms: N_8  and  C_16
REMARK    7  A    between atoms: C_11  and  C_16
REMARK                            x       y       z     vdW  Elec       q    Type
REMARK                         _______ _______ _______ _____ _____    ______ ____
ROOT
ATOM      2  O   UNL     1      -0.840   1.832  26.401  0.00  0.00    -0.371 OA
ATOM      9  C   UNL     1      -0.083   0.096  24.968  0.00  0.00    +0.111 C 
ATOM     10  C   UNL     1      -0.021   1.415  24.221  0.00  0.00    +0.164 C 
ATOM     11  C   UNL     1      -0.010   2.406  25.378  0.00  0.00    +0.164 C 
ATOM     13  C   UNL     1      -1.031   0.437  26.106  0.00  0.00    +0.181 C 
ENDROOT
BRANCH  10   3
ATOM      3  O   UNL     1       1.134   1.533  23.414  0.00  0.00    -0.388 OA
ATOM     21  H   UNL     1       1.004   0.995  22.614  0.00  0.00    +0.210 HD
ENDBRANCH  10   3
BRANCH   9   7
ATOM      7  N   UNL     1      -0.552  -1.014  24.153  0.00  0.00    -0.306 NA
ATOM     20  H   UNL     1       0.080  -1.808  24.247  0.00  0.00    +0.123 HD
BRANCH   7  12
ATOM      4  O   UNL     1      -4.436  -2.568  23.795  0.00  0.00    -0.380 OA
ATOM     12  C   UNL     1      -1.906  -1.410  24.535  0.00  0.00    +0.058 C 
ATOM     14  C   UNL     1      -2.102  -2.922  24.375  0.00  0.00    +0.047 C 
ATOM     15  C   UNL     1      -2.939  -0.655  23.694  0.00  0.00    +0.047 C 
ATOM     17  C   UNL     1      -3.555  -3.299  24.648  0.00  0.00    +0.161 C 
ATOM     18  C   UNL     1      -4.345  -1.158  24.004  0.00  0.00    +0.161 C 
ENDBRANCH   7  12
ENDBRANCH   9   7
BRANCH  11  16
ATOM     16  C   UNL     1      -0.537   3.779  24.999  0.00  0.00    +0.139 C 
BRANCH  16   8
ATOM      8  N   UNL     1      -1.785   3.634  24.224  0.00  0.00    -0.192 NA
ATOM     22  H   UNL     1      -1.770   2.838  23.572  0.00  0.00    +0.148 HD
BRANCH   8   1
ATOM      1  S   UNL     1      -3.277   3.958  24.985  0.00  0.00    +0.027 S 
ATOM      5  O   UNL     1      -4.092   4.801  24.132  0.00  0.00    -0.158 OA
ATOM      6  O   UNL     1      -3.018   4.328  26.363  0.00  0.00    -0.158 OA
ATOM     19  C   UNL     1      -3.998   2.332  24.998  0.00  0.00    +0.214 C 
ENDBRANCH   8   1
ENDBRANCH  16   8
ENDBRANCH  11  16
TORSDOF 6
ENDMDL
MODEL 7
REMARK VINA RESULT:      -3.4      3.333      6.285
REMARK  Name = 75367092
REMARK  7 active torsions:
REMARK  status: ('A' for Active; 'I' for Inactive)
REMARK    1  A    between atoms: S_1  and  N_8
REMARK    2  A    between atoms: S_1  and  C_19
REMARK    3  A    between atoms: O_3  and  C_10
REMARK    4  A    between atoms: N_7  and  C_9
REMARK    5  A    between atoms: N_7  and  C_12
REMARK    6  A    between atoms: N_8  and  C_16
REMARK    7  A    between atoms: C_11  and  C_16
REMARK                            x       y       z     vdW  Elec       q    Type
REMARK                         _______ _______ _______ _____ _____    ______ ____
ROOT
ATOM      2  O   UNL     1      -1.755  -0.994  24.584  0.00  0.00    -0.371 OA
ATOM      9  C   UNL     1       0.306  -0.021  23.916  0.00  0.00    +0.111 C 
ATOM     10  C   UNL     1      -0.817   0.960  23.636  0.00  0.00    +0.164 C 
ATOM     11  C   UNL     1      -1.903   0.436  24.566  0.00  0.00    +0.164 C 
ATOM     13  C   UNL     1      -0.460  -1.326  24.053  0.00  0.00    +0.181 C 
ENDROOT
BRANCH  10   3
ATOM      3  O   UNL     1      -0.464   2.296  23.936  0.00  0.00    -0.388 OA
ATOM     21  H   UNL     1      -1.221   2.722  24.373  0.00  0.00    +0.210 HD
ENDBRANCH  10   3
BRANCH   9   7
ATOM      7  N   UNL     1       1.317  -0.064  22.872  0.00  0.00    -0.306 NA
ATOM     20  H   UNL     1       1.166   0.694  22.207  0.00  0.00    +0.123 HD
BRANCH   7  12
ATOM      4  O   UNL     1       5.499  -0.329  23.122  0.00  0.00    -0.380 OA
ATOM     12  C   UNL     1       2.661   0.033  23.437  0.00  0.00    +0.058 C 
ATOM     14  C   UNL     1       3.529   1.005  22.630  0.00  0.00    +0.047 C 
ATOM     15  C   UNL     1       3.322  -1.347  23.481  0.00  0.00    +0.047 C 
ATOM     17  C   UNL     1       4.962   0.993  23.150  0.00  0.00    +0.161 C 
ATOM     18  C   UNL     1       4.766  -1.229  23.954  0.00  0.00    +0.161 C 
ENDBRANCH   7  12
ENDBRANCH   9   7
BRANCH  11  16
ATOM     16  C   UNL     1      -3.307   0.802  24.118  0.00  0.00    +0.139 C 
BRANCH  16   8
ATOM      8  N   UNL     1      -3.974   1.590  25.172  0.00  0.00    -0.192 NA
ATOM     22  H   UNL     1      -3.721   1.295  26.124  0.00  0.00    +0.148 HD
BRANCH   8   1
ATOM      1  S   UNL     1      -4.202   3.265  24.939  0.00  0.00    +0.027 S 
ATOM      5  O   UNL     1      -5.460   3.678  25.529  0.00  0.00    -0.158 OA
ATOM      6  O   UNL     1      -3.893   3.582  23.557  0.00  0.00    -0.158 OA
ATOM     19  C   UNL     1      -2.887   3.918  25.941  0.00  0.00    +0.214 C 
ENDBRANCH   8   1
ENDBRANCH  16   8
ENDBRANCH  11  16
TORSDOF 6
ENDMDL
MODEL 8
REMARK VINA RESULT:      -3.4      3.592      4.855
REMARK  Name = 75367092
REMARK  7 active torsions:
REMARK  status: ('A' for Active; 'I' for Inactive)
REMARK    1  A    between atoms: S_1  and  N_8
REMARK    2  A    between atoms: S_1  and  C_19
REMARK    3  A    between atoms: O_3  and  C_10
REMARK    4  A    between atoms: N_7  and  C_9
REMARK    5  A    between atoms: N_7  and  C_12
REMARK    6  A    between atoms: N_8  and  C_16
REMARK    7  A    between atoms: C_11  and  C_16
REMARK                            x       y       z     vdW  Elec       q    Type
REMARK                         _______ _______ _______ _____ _____    ______ ____
ROOT
ATOM      2  O   UNL     1       0.776  -0.512  23.436  0.00  0.00    -0.371 OA
ATOM      9  C   UNL     1      -1.200   0.629  24.094  0.00  0.00    +0.111 C 
ATOM     10  C   UNL     1      -0.021   1.579  24.202  0.00  0.00    +0.164 C 
ATOM     11  C   UNL     1       0.986   0.901  23.283  0.00  0.00    +0.164 C 
ATOM     13  C   UNL     1      -0.499  -0.719  24.068  0.00  0.00    +0.181 C 
ENDROOT
BRANCH  10   3
ATOM      3  O   UNL     1      -0.333   2.889  23.770  0.00  0.00    -0.388 OA
ATOM     21  H   UNL     1      -0.529   2.858  22.818  0.00  0.00    +0.210 HD
ENDBRANCH  10   3
BRANCH   9   7
ATOM      7  N   UNL     1      -2.151   0.753  25.187  0.00  0.00    -0.306 NA
ATOM     20  H   UNL     1      -1.693   1.151  26.006  0.00  0.00    +0.123 HD
BRANCH   7  12
ATOM      4  O   UNL     1      -5.632   3.066  25.578  0.00  0.00    -0.380 OA
ATOM     12  C   UNL     1      -3.289   1.584  24.803  0.00  0.00    +0.058 C 
ATOM     14  C   UNL     1      -3.207   2.967  25.458  0.00  0.00    +0.047 C 
ATOM     15  C   UNL     1      -4.603   0.899  25.187  0.00  0.00    +0.047 C 
ATOM     17  C   UNL     1      -4.466   3.772  25.155  0.00  0.00    +0.161 C 
ATOM     18  C   UNL     1      -5.785   1.819  24.900  0.00  0.00    +0.161 C 
ENDBRANCH   7  12
ENDBRANCH   9   7
BRANCH  11  16
ATOM     16  C   UNL     1       2.428   1.246  23.613  0.00  0.00    +0.139 C 
BRANCH  16   8
ATOM      8  N   UNL     1       3.335   0.426  22.787  0.00  0.00    -0.192 NA
ATOM     22  H   UNL     1       3.312   0.672  21.788  0.00  0.00    +0.148 HD
BRANCH   8   1
ATOM      1  S   UNL     1       4.855  -0.022  23.418  0.00  0.00    +0.027 S 
ATOM      5  O   UNL     1       5.150   0.765  24.599  0.00  0.00    -0.158 OA
ATOM      6  O   UNL     1       5.803  -0.098  22.322  0.00  0.00    -0.158 OA
ATOM     19  C   UNL     1       4.515  -1.687  23.941  0.00  0.00    +0.214 C 
ENDBRANCH   8   1
ENDBRANCH  16   8
ENDBRANCH  11  16
TORSDOF 6
ENDMDL
MODEL 9
REMARK VINA RESULT:      -3.0      3.736      5.591
REMARK  Name = 75367092
REMARK  7 active torsions:
REMARK  status: ('A' for Active; 'I' for Inactive)
REMARK    1  A    between atoms: S_1  and  N_8
REMARK    2  A    between atoms: S_1  and  C_19
REMARK    3  A    between atoms: O_3  and  C_10
REMARK    4  A    between atoms: N_7  and  C_9
REMARK    5  A    between atoms: N_7  and  C_12
REMARK    6  A    between atoms: N_8  and  C_16
REMARK    7  A    between atoms: C_11  and  C_16
REMARK                            x       y       z     vdW  Elec       q    Type
REMARK                         _______ _______ _______ _____ _____    ______ ____
ROOT
ATOM      2  O   UNL     1       1.380  -0.407  23.009  0.00  0.00    -0.371 OA
ATOM      9  C   UNL     1      -0.453   0.285  24.350  0.00  0.00    +0.111 C 
ATOM     10  C   UNL     1       0.614   1.364  24.377  0.00  0.00    +0.164 C 
ATOM     11  C   UNL     1       1.404   1.026  23.120  0.00  0.00    +0.164 C 
ATOM     13  C   UNL     1       0.343  -0.915  23.866  0.00  0.00    +0.181 C 
ENDROOT
BRANCH  10   3
ATOM      3  O   UNL     1       0.073   2.669  24.326  0.00  0.00    -0.388 OA
ATOM     21  H   UNL     1      -0.872   2.601  24.110  0.00  0.00    +0.210 HD
ENDBRANCH  10   3
BRANCH   9   7
ATOM      7  N   UNL     1      -1.089   0.061  25.637  0.00  0.00    -0.306 NA
ATOM     20  H   UNL     1      -1.195   0.945  26.135  0.00  0.00    +0.123 HD
BRANCH   7  12
ATOM      4  O   UNL     1      -4.330  -1.827  23.752  0.00  0.00    -0.380 OA
ATOM     12  C   UNL     1      -2.395  -0.574  25.476  0.00  0.00    +0.058 C 
ATOM     14  C   UNL     1      -2.248  -2.020  24.990  0.00  0.00    +0.047 C 
ATOM     15  C   UNL     1      -3.258   0.224  24.494  0.00  0.00    +0.047 C 
ATOM     17  C   UNL     1      -3.618  -2.623  24.699  0.00  0.00    +0.161 C 
ATOM     18  C   UNL     1      -4.572  -0.504  24.231  0.00  0.00    +0.161 C 
ENDBRANCH   7  12
ENDBRANCH   9   7
BRANCH  11  16
ATOM     16  C   UNL     1       2.841   1.514  23.164  0.00  0.00    +0.139 C 
BRANCH  16   8
ATOM      8  N   UNL     1       3.733   0.483  22.598  0.00  0.00    -0.192 NA
ATOM     22  H   UNL     1       3.884   0.585  21.586  0.00  0.00    +0.148 HD
BRANCH   8   1
ATOM      1  S   UNL     1       5.074  -0.047  23.510  0.00  0.00    +0.027 S 
ATOM      5  O   UNL     1       5.178   0.731  24.729  0.00  0.00    -0.158 OA
ATOM      6  O   UNL     1       6.210  -0.183  22.619  0.00  0.00    -0.158 OA
ATOM     19  C   UNL     1       4.544  -1.686  23.950  0.00  0.00    +0.214 C 
ENDBRANCH   8   1
ENDBRANCH  16   8
ENDBRANCH  11  16
TORSDOF 6
ENDMDL
MODEL 10
REMARK VINA RESULT:      -2.9      2.249      2.706
REMARK  Name = 75367092
REMARK  7 active torsions:
REMARK  status: ('A' for Active; 'I' for Inactive)
REMARK    1  A    between atoms: S_1  and  N_8
REMARK    2  A    between atoms: S_1  and  C_19
REMARK    3  A    between atoms: O_3  and  C_10
REMARK    4  A    between atoms: N_7  and  C_9
REMARK    5  A    between atoms: N_7  and  C_12
REMARK    6  A    between atoms: N_8  and  C_16
REMARK    7  A    between atoms: C_11  and  C_16
REMARK                            x       y       z     vdW  Elec       q    Type
REMARK                         _______ _______ _______ _____ _____    ______ ____
ROOT
ATOM      2  O   UNL     1      -0.995   1.781  23.030  0.00  0.00    -0.371 OA
ATOM      9  C   UNL     1      -2.480   3.551  23.583  0.00  0.00    +0.111 C 
ATOM     10  C   UNL     1      -1.590   3.261  24.777  0.00  0.00    +0.164 C 
ATOM     11  C   UNL     1      -0.425   2.543  24.108  0.00  0.00    +0.164 C 
ATOM     13  C   UNL     1      -2.321   2.275  22.772  0.00  0.00    +0.181 C 
ENDROOT
BRANCH  10   3
ATOM      3  O   UNL     1      -1.172   4.436  25.445  0.00  0.00    -0.388 OA
ATOM     21  H   UNL     1      -1.264   4.293  26.402  0.00  0.00    +0.210 HD
ENDBRANCH  10   3
BRANCH   9   7
ATOM      7  N   UNL     1      -3.862   3.827  23.939  0.00  0.00    -0.306 NA
ATOM     20  H   UNL     1      -4.457   3.753  23.115  0.00  0.00    +0.123 HD
BRANCH   7  12
ATOM      4  O   UNL     1      -6.407   1.187  25.983  0.00  0.00    -0.380 OA
ATOM     12  C   UNL     1      -4.333   2.909  24.973  0.00  0.00    +0.058 C 
ATOM     14  C   UNL     1      -4.597   1.515  24.395  0.00  0.00    +0.047 C 
ATOM     15  C   UNL     1      -5.604   3.454  25.632  0.00  0.00    +0.047 C 
ATOM     17  C   UNL     1      -5.213   0.609  25.455  0.00  0.00    +0.161 C 
ATOM     18  C   UNL     1      -6.164   2.440  26.623  0.00  0.00    +0.161 C 
ENDBRANCH   7  12
ENDBRANCH   9   7
BRANCH  11  16
ATOM     16  C   UNL     1       0.331   1.620  25.047  0.00  0.00    +0.139 C 
BRANCH  16   8
ATOM      8  N   UNL     1      -0.576   0.568  25.546  0.00  0.00    -0.192 NA
ATOM     22  H   UNL     1      -1.511   0.920  25.793  0.00  0.00    +0.148 HD
BRANCH   8   1
ATOM      1  S   UNL     1      -0.518  -0.983  24.838  0.00  0.00    +0.027 S 
ATOM      5  O   UNL     1      -0.131  -1.964  25.833  0.00  0.00    -0.158 OA
ATOM      6  O   UNL     1       0.194  -0.886  23.578  0.00  0.00    -0.158 OA
ATOM     19  C   UNL     1      -2.236  -1.235  24.459  0.00  0.00    +0.214 C 
ENDBRANCH   8   1
ENDBRANCH  16   8
ENDBRANCH  11  16
TORSDOF 6
ENDMDL
