MODEL 1
REMARK VINA RESULT:      -2.7      0.000      0.000
REMARK  Name = 45783475
REMARK  8 active torsions:
REMARK  status: ('A' for Active; 'I' for Inactive)
REMARK    1  A    between atoms: O_2  and  C_26
REMARK    2  A    between atoms: O_2  and  C_27
REMARK    3  A    between atoms: N_3  and  C_8
REMARK    4  A    between atoms: N_7  and  C_24
REMARK    5  A    between atoms: N_7  and  C_25
REMARK    6  A    between atoms: C_9  and  C_18
REMARK    7  A    between atoms: C_19  and  C_20
REMARK    8  A    between atoms: C_25  and  C_26
REMARK                            x       y       z     vdW  Elec       q    Type
REMARK                         _______ _______ _______ _____ _____    ______ ____
ROOT
ATOM      1  O   UNL     1      15.599  -8.777  28.143  0.00  0.00    -0.336 OA
ATOM      4  N   UNL     1      16.813  -6.900  28.297  0.00  0.00    -0.190 NA
ATOM      5  N   UNL     1      15.604  -8.209  26.862  0.00  0.00    -0.056 NA
ATOM     18  C   UNL     1      16.333  -7.944  28.926  0.00  0.00    +0.245 A 
ATOM     19  C   UNL     1      16.339  -7.107  27.034  0.00  0.00    +0.204 A 
ENDROOT
BRANCH  19  20
ATOM      6  N   UNL     1      16.724  -3.908  25.178  0.00  0.00    -0.240 NA
ATOM     20  C   UNL     1      16.618  -6.191  25.966  0.00  0.00    +0.041 A 
ATOM     21  C   UNL     1      17.039  -6.647  24.722  0.00  0.00    +0.016 A 
ATOM     22  C   UNL     1      16.478  -4.824  26.141  0.00  0.00    +0.124 A 
ATOM     23  C   UNL     1      17.303  -5.736  23.705  0.00  0.00    +0.044 A 
ATOM     24  C   UNL     1      17.131  -4.389  23.982  0.00  0.00    +0.119 A 
BRANCH  24   7
ATOM      7  N   UNL     1      17.405  -3.473  22.936  0.00  0.00    -0.327 N 
ATOM     28  H   UNL     1      17.659  -3.872  22.040  0.00  0.00    +0.148 HD
BRANCH   7  25
ATOM     25  C   UNL     1      17.339  -2.059  23.116  0.00  0.00    +0.131 C 
BRANCH  25  26
ATOM     26  C   UNL     1      16.049  -1.519  22.520  0.00  0.00    +0.178 C 
BRANCH  26   2
ATOM      2  O   UNL     1      15.039  -2.517  22.594  0.00  0.00    -0.381 OA
ATOM     27  C   UNL     1      13.890  -2.152  21.841  0.00  0.00    +0.194 C 
ENDBRANCH  26   2
ENDBRANCH  25  26
ENDBRANCH   7  25
ENDBRANCH  24   7
ENDBRANCH  19  20
BRANCH  18   9
ATOM      3  N   UNL     1      15.315  -7.954  31.197  0.00  0.00    -0.288 NA
ATOM      9  C   UNL     1      16.482  -8.341  30.379  0.00  0.00    +0.146 C 
ATOM     12  C   UNL     1      15.228  -8.931  32.282  0.00  0.00    +0.085 C 
ATOM     13  C   UNL     1      16.606  -9.864  30.570  0.00  0.00    +0.030 C 
ATOM     14  C   UNL     1      15.505 -10.232  31.556  0.00  0.00    +0.017 C 
BRANCH   3   8
ATOM      8  C   UNL     1      15.392  -6.583  31.697  0.00  0.00    +0.057 C 
ATOM     10  C   UNL     1      16.796  -6.018  31.455  0.00  0.00    +0.019 C 
ATOM     11  C   UNL     1      14.325  -5.720  31.016  0.00  0.00    +0.019 C 
ATOM     15  C   UNL     1      16.893  -4.558  31.895  0.00  0.00    +0.002 C 
ATOM     16  C   UNL     1      14.424  -4.260  31.457  0.00  0.00    +0.002 C 
ATOM     17  C   UNL     1      15.824  -3.697  31.228  0.00  0.00    +0.000 C 
ENDBRANCH   3   8
ENDBRANCH  18   9
TORSDOF 7
ENDMDL
MODEL 2
REMARK VINA RESULT:      -2.4     16.163     19.197
REMARK  Name = 45783475
REMARK  8 active torsions:
REMARK  status: ('A' for Active; 'I' for Inactive)
REMARK    1  A    between atoms: O_2  and  C_26
REMARK    2  A    between atoms: O_2  and  C_27
REMARK    3  A    between atoms: N_3  and  C_8
REMARK    4  A    between atoms: N_7  and  C_24
REMARK    5  A    between atoms: N_7  and  C_25
REMARK    6  A    between atoms: C_9  and  C_18
REMARK    7  A    between atoms: C_19  and  C_20
REMARK    8  A    between atoms: C_25  and  C_26
REMARK                            x       y       z     vdW  Elec       q    Type
REMARK                         _______ _______ _______ _____ _____    ______ ____
ROOT
ATOM      1  O   UNL     1      -1.884   2.852  25.101  0.00  0.00    -0.336 OA
ATOM      4  N   UNL     1      -1.590   1.250  23.564  0.00  0.00    -0.190 NA
ATOM      5  N   UNL     1      -0.502   2.759  24.896  0.00  0.00    -0.056 NA
ATOM     18  C   UNL     1      -2.450   1.930  24.279  0.00  0.00    +0.245 A 
ATOM     19  C   UNL     1      -0.408   1.793  23.977  0.00  0.00    +0.204 A 
ENDROOT
BRANCH  19  20
ATOM      6  N   UNL     1       3.203   1.769  23.092  0.00  0.00    -0.240 NA
ATOM     20  C   UNL     1       0.850   1.348  23.452  0.00  0.00    +0.041 A 
ATOM     21  C   UNL     1       0.966   0.118  22.814  0.00  0.00    +0.016 A 
ATOM     22  C   UNL     1       1.988   2.129  23.564  0.00  0.00    +0.124 A 
ATOM     23  C   UNL     1       2.198  -0.288  22.314  0.00  0.00    +0.044 A 
ATOM     24  C   UNL     1       3.276   0.567  22.477  0.00  0.00    +0.119 A 
BRANCH  24   7
ATOM      7  N   UNL     1       4.526   0.139  21.964  0.00  0.00    -0.327 N 
ATOM     28  H   UNL     1       4.527  -0.218  21.016  0.00  0.00    +0.148 HD
BRANCH   7  25
ATOM     25  C   UNL     1       5.730   0.194  22.728  0.00  0.00    +0.131 C 
BRANCH  25  26
ATOM     26  C   UNL     1       5.404   0.205  24.212  0.00  0.00    +0.178 C 
BRANCH  26   2
ATOM      2  O   UNL     1       5.548  -1.108  24.738  0.00  0.00    -0.381 OA
ATOM     27  C   UNL     1       4.774  -2.050  24.007  0.00  0.00    +0.194 C 
ENDBRANCH  26   2
ENDBRANCH  25  26
ENDBRANCH   7  25
ENDBRANCH  24   7
ENDBRANCH  19  20
BRANCH  18   9
ATOM      3  N   UNL     1      -4.456   1.118  25.507  0.00  0.00    -0.288 NA
ATOM      9  C   UNL     1      -3.961   1.832  24.314  0.00  0.00    +0.146 C 
ATOM     12  C   UNL     1      -5.778   1.671  25.800  0.00  0.00    +0.085 C 
ATOM     13  C   UNL     1      -4.645   3.210  24.369  0.00  0.00    +0.030 C 
ATOM     14  C   UNL     1      -5.551   3.155  25.592  0.00  0.00    +0.017 C 
BRANCH   3   8
ATOM      8  C   UNL     1      -4.494  -0.333  25.337  0.00  0.00    +0.057 C 
ATOM     10  C   UNL     1      -4.503  -0.682  23.844  0.00  0.00    +0.019 C 
ATOM     11  C   UNL     1      -3.295  -0.972  26.046  0.00  0.00    +0.019 C 
ATOM     15  C   UNL     1      -4.463  -2.193  23.625  0.00  0.00    +0.002 C 
ATOM     16  C   UNL     1      -3.258  -2.483  25.824  0.00  0.00    +0.002 C 
ATOM     17  C   UNL     1      -3.278  -2.835  24.340  0.00  0.00    +0.000 C 
ENDBRANCH   3   8
ENDBRANCH  18   9
TORSDOF 7
ENDMDL
MODEL 3
REMARK VINA RESULT:      -0.7     16.475     19.446
REMARK  Name = 45783475
REMARK  8 active torsions:
REMARK  status: ('A' for Active; 'I' for Inactive)
REMARK    1  A    between atoms: O_2  and  C_26
REMARK    2  A    between atoms: O_2  and  C_27
REMARK    3  A    between atoms: N_3  and  C_8
REMARK    4  A    between atoms: N_7  and  C_24
REMARK    5  A    between atoms: N_7  and  C_25
REMARK    6  A    between atoms: C_9  and  C_18
REMARK    7  A    between atoms: C_19  and  C_20
REMARK    8  A    between atoms: C_25  and  C_26
REMARK                            x       y       z     vdW  Elec       q    Type
REMARK                         _______ _______ _______ _____ _____    ______ ____
ROOT
ATOM      1  O   UNL     1      -2.879  -0.663  24.801  0.00  0.00    -0.336 OA
ATOM      4  N   UNL     1      -1.826   1.278  24.425  0.00  0.00    -0.190 NA
ATOM      5  N   UNL     1      -1.627  -0.996  24.268  0.00  0.00    -0.056 NA
ATOM     18  C   UNL     1      -2.915   0.694  24.859  0.00  0.00    +0.245 A 
ATOM     19  C   UNL     1      -1.066   0.201  24.073  0.00  0.00    +0.204 A 
ENDROOT
BRANCH  19  20
ATOM      6  N   UNL     1       2.350   1.556  23.507  0.00  0.00    -0.240 NA
ATOM     20  C   UNL     1       0.252   0.356  23.528  0.00  0.00    +0.041 A 
ATOM     21  C   UNL     1       0.720  -0.494  22.533  0.00  0.00    +0.016 A 
ATOM     22  C   UNL     1       1.098   1.356  23.977  0.00  0.00    +0.124 A 
ATOM     23  C   UNL     1       2.002  -0.320  22.023  0.00  0.00    +0.044 A 
ATOM     24  C   UNL     1       2.770   0.711  22.539  0.00  0.00    +0.119 A 
BRANCH  24   7
ATOM      7  N   UNL     1       4.075   0.875  22.012  0.00  0.00    -0.327 N 
ATOM     28  H   UNL     1       4.184   1.571  21.284  0.00  0.00    +0.148 HD
BRANCH   7  25
ATOM     25  C   UNL     1       5.190   0.105  22.462  0.00  0.00    +0.131 C 
BRANCH  25  26
ATOM     26  C   UNL     1       5.503   0.444  23.909  0.00  0.00    +0.178 C 
BRANCH  26   2
ATOM      2  O   UNL     1       5.501  -0.747  24.686  0.00  0.00    -0.381 OA
ATOM     27  C   UNL     1       4.805  -1.798  24.028  0.00  0.00    +0.194 C 
ENDBRANCH  26   2
ENDBRANCH  25  26
ENDBRANCH   7  25
ENDBRANCH  24   7
ENDBRANCH  19  20
BRANCH  18   9
ATOM      3  N   UNL     1      -4.702   2.398  24.552  0.00  0.00    -0.288 NA
ATOM      9  C   UNL     1      -4.183   1.313  25.408  0.00  0.00    +0.146 C 
ATOM     12  C   UNL     1      -6.152   2.415  24.740  0.00  0.00    +0.085 C 
ATOM     13  C   UNL     1      -5.342   0.304  25.508  0.00  0.00    +0.030 C 
ATOM     14  C   UNL     1      -6.487   0.937  24.728  0.00  0.00    +0.017 C 
BRANCH   3   8
ATOM      8  C   UNL     1      -4.096   3.697  24.839  0.00  0.00    +0.057 C 
ATOM     10  C   UNL     1      -3.306   3.625  26.150  0.00  0.00    +0.019 C 
ATOM     11  C   UNL     1      -3.196   4.120  23.674  0.00  0.00    +0.019 C 
ATOM     15  C   UNL     1      -2.593   4.944  26.444  0.00  0.00    +0.002 C 
ATOM     16  C   UNL     1      -2.484   5.440  23.971  0.00  0.00    +0.002 C 
ATOM     17  C   UNL     1      -1.705   5.376  25.281  0.00  0.00    +0.000 C 
ENDBRANCH   3   8
ENDBRANCH  18   9
TORSDOF 7
ENDMDL
