MODEL 1
REMARK VINA RESULT:      -5.1      0.000      0.000
REMARK  Name = 75367111
REMARK  10 active torsions:
REMARK  status: ('A' for Active; 'I' for Inactive)
REMARK    1  A    between atoms: O_2  and  C_8
REMARK    2  A    between atoms: N_4  and  C_7
REMARK    3  A    between atoms: N_4  and  C_12
REMARK    4  A    between atoms: N_5  and  C_13
REMARK    5  A    between atoms: C_9  and  C_13
REMARK    6  A    between atoms: C_11  and  C_12
REMARK    7  A    between atoms: C_11  and  C_14
REMARK    8  A    between atoms: C_11  and  C_15
REMARK    9  A    between atoms: C_11  and  C_16
REMARK   10  A    between atoms: C_17  and  C_18
REMARK                            x       y       z     vdW  Elec       q    Type
REMARK                         _______ _______ _______ _____ _____    ______ ____
ROOT
ATOM      1  O   UNL     1      -0.190   3.520  23.669  0.00  0.00    -0.371 OA
ATOM      7  C   UNL     1      -1.375   4.041  25.660  0.00  0.00    +0.111 C 
ATOM      8  C   UNL     1      -0.819   2.634  25.770  0.00  0.00    +0.164 C 
ATOM      9  C   UNL     1       0.291   2.674  24.728  0.00  0.00    +0.165 C 
ATOM     10  C   UNL     1      -1.312   4.274  24.159  0.00  0.00    +0.181 C 
ENDROOT
BRANCH   8   2
ATOM      2  O   UNL     1      -0.319   2.343  27.060  0.00  0.00    -0.388 OA
ATOM     24  H   UNL     1      -0.519   3.096  27.642  0.00  0.00    +0.210 HD
ENDBRANCH   8   2
BRANCH   7   4
ATOM      4  N   UNL     1      -2.718   4.181  26.199  0.00  0.00    -0.308 NA
ATOM     23  H   UNL     1      -3.204   4.918  25.690  0.00  0.00    +0.122 HD
BRANCH   4  12
ATOM     12  C   UNL     1      -3.466   2.936  26.074  0.00  0.00    +0.087 C 
BRANCH  12  11
ATOM     11  C   UNL     1      -4.758   3.056  25.227  0.00  0.00    -0.025 C 
ATOM     14  C   UNL     1      -5.453   4.410  25.458  0.00  0.00    +0.012 C 
ATOM     15  C   UNL     1      -5.740   1.919  25.560  0.00  0.00    +0.012 C 
ATOM     16  C   UNL     1      -4.371   2.953  23.739  0.00  0.00    +0.012 C 
ENDBRANCH  12  11
ENDBRANCH   4  12
ENDBRANCH   7   4
BRANCH   9  13
ATOM     13  C   UNL     1       0.645   1.307  24.173  0.00  0.00    +0.138 C 
BRANCH  13   5
ATOM      3  O   UNL     1      -0.491  -0.554  26.041  0.00  0.00    -0.270 OA
ATOM      5  N   UNL     1      -0.527   0.504  23.976  0.00  0.00    -0.309 N 
ATOM     17  C   UNL     1      -1.008  -0.377  24.941  0.00  0.00    +0.244 C 
ATOM     25  H   UNL     1      -0.965   0.551  23.062  0.00  0.00    +0.149 HD
BRANCH  17  18
ATOM      6  N   UNL     1      -4.497  -2.625  23.892  0.00  0.00    -0.263 NA
ATOM     18  C   UNL     1      -2.218  -1.157  24.574  0.00  0.00    +0.040 A 
ATOM     19  C   UNL     1      -3.389  -0.501  24.211  0.00  0.00    +0.033 A 
ATOM     20  C   UNL     1      -2.186  -2.547  24.597  0.00  0.00    +0.033 A 
ATOM     21  C   UNL     1      -4.490  -1.273  23.881  0.00  0.00    +0.111 A 
ATOM     22  C   UNL     1      -3.341  -3.228  24.250  0.00  0.00    +0.111 A 
ENDBRANCH  17  18
ENDBRANCH  13   5
ENDBRANCH   9  13
TORSDOF 7
ENDMDL
MODEL 2
REMARK VINA RESULT:      -5.0      1.818      4.781
REMARK  Name = 75367111
REMARK  10 active torsions:
REMARK  status: ('A' for Active; 'I' for Inactive)
REMARK    1  A    between atoms: O_2  and  C_8
REMARK    2  A    between atoms: N_4  and  C_7
REMARK    3  A    between atoms: N_4  and  C_12
REMARK    4  A    between atoms: N_5  and  C_13
REMARK    5  A    between atoms: C_9  and  C_13
REMARK    6  A    between atoms: C_11  and  C_12
REMARK    7  A    between atoms: C_11  and  C_14
REMARK    8  A    between atoms: C_11  and  C_15
REMARK    9  A    between atoms: C_11  and  C_16
REMARK   10  A    between atoms: C_17  and  C_18
REMARK                            x       y       z     vdW  Elec       q    Type
REMARK                         _______ _______ _______ _____ _____    ______ ____
ROOT
ATOM      1  O   UNL     1      -1.363  -2.004  23.517  0.00  0.00    -0.371 OA
ATOM      7  C   UNL     1       0.042  -0.400  24.563  0.00  0.00    +0.111 C 
ATOM      8  C   UNL     1      -1.218  -0.568  25.391  0.00  0.00    +0.164 C 
ATOM      9  C   UNL     1      -1.705  -1.929  24.912  0.00  0.00    +0.165 C 
ATOM     10  C   UNL     1      -0.396  -0.981  23.228  0.00  0.00    +0.181 C 
ENDROOT
BRANCH   8   2
ATOM      2  O   UNL     1      -0.963  -0.560  26.782  0.00  0.00    -0.388 OA
ATOM     24  H   UNL     1      -0.043  -0.276  26.922  0.00  0.00    +0.210 HD
ENDBRANCH   8   2
BRANCH   7   4
ATOM      4  N   UNL     1       0.492   0.979  24.461  0.00  0.00    -0.308 NA
ATOM     23  H   UNL     1       1.070   1.078  23.627  0.00  0.00    +0.122 HD
BRANCH   4  12
ATOM     12  C   UNL     1      -0.639   1.895  24.374  0.00  0.00    +0.087 C 
BRANCH  12  11
ATOM     11  C   UNL     1      -0.610   3.036  25.423  0.00  0.00    -0.025 C 
ATOM     14  C   UNL     1      -1.943   3.125  26.189  0.00  0.00    +0.012 C 
ATOM     15  C   UNL     1      -0.320   4.391  24.753  0.00  0.00    +0.012 C 
ATOM     16  C   UNL     1       0.515   2.736  26.432  0.00  0.00    +0.012 C 
ENDBRANCH  12  11
ENDBRANCH   4  12
ENDBRANCH   7   4
BRANCH   9  13
ATOM     13  C   UNL     1      -3.200  -2.128  25.085  0.00  0.00    +0.138 C 
BRANCH  13   5
ATOM      3  O   UNL     1      -3.775  -0.019  23.225  0.00  0.00    -0.270 OA
ATOM      5  N   UNL     1      -3.862  -0.889  25.373  0.00  0.00    -0.309 N 
ATOM     17  C   UNL     1      -4.099   0.082  24.405  0.00  0.00    +0.244 C 
ATOM     25  H   UNL     1      -4.097  -0.713  26.344  0.00  0.00    +0.149 HD
BRANCH  17  18
ATOM      6  N   UNL     1      -6.036   3.656  25.747  0.00  0.00    -0.263 NA
ATOM     18  C   UNL     1      -4.773   1.322  24.868  0.00  0.00    +0.040 A 
ATOM     19  C   UNL     1      -4.442   2.549  24.305  0.00  0.00    +0.033 A 
ATOM     20  C   UNL     1      -5.734   1.261  25.871  0.00  0.00    +0.033 A 
ATOM     21  C   UNL     1      -5.097   3.676  24.774  0.00  0.00    +0.111 A 
ATOM     22  C   UNL     1      -6.331   2.445  26.271  0.00  0.00    +0.111 A 
ENDBRANCH  17  18
ENDBRANCH  13   5
ENDBRANCH   9  13
TORSDOF 7
ENDMDL
MODEL 3
REMARK VINA RESULT:      -4.4      1.735      4.942
REMARK  Name = 75367111
REMARK  10 active torsions:
REMARK  status: ('A' for Active; 'I' for Inactive)
REMARK    1  A    between atoms: O_2  and  C_8
REMARK    2  A    between atoms: N_4  and  C_7
REMARK    3  A    between atoms: N_4  and  C_12
REMARK    4  A    between atoms: N_5  and  C_13
REMARK    5  A    between atoms: C_9  and  C_13
REMARK    6  A    between atoms: C_11  and  C_12
REMARK    7  A    between atoms: C_11  and  C_14
REMARK    8  A    between atoms: C_11  and  C_15
REMARK    9  A    between atoms: C_11  and  C_16
REMARK   10  A    between atoms: C_17  and  C_18
REMARK                            x       y       z     vdW  Elec       q    Type
REMARK                         _______ _______ _______ _____ _____    ______ ____
ROOT
ATOM      1  O   UNL     1      -0.248   1.180  25.795  0.00  0.00    -0.371 OA
ATOM      7  C   UNL     1      -0.064  -0.694  24.347  0.00  0.00    +0.111 C 
ATOM      8  C   UNL     1      -0.170   0.568  23.512  0.00  0.00    +0.164 C 
ATOM      9  C   UNL     1       0.251   1.626  24.523  0.00  0.00    +0.165 C 
ATOM     10  C   UNL     1      -0.592  -0.212  25.689  0.00  0.00    +0.181 C 
ENDROOT
BRANCH   8   2
ATOM      2  O   UNL     1       0.682   0.549  22.384  0.00  0.00    -0.388 OA
ATOM     24  H   UNL     1       0.130   0.490  21.585  0.00  0.00    +0.210 HD
ENDBRANCH   8   2
BRANCH   7   4
ATOM      4  N   UNL     1      -0.819  -1.815  23.810  0.00  0.00    -0.308 NA
ATOM     23  H   UNL     1      -0.168  -2.533  23.496  0.00  0.00    +0.122 HD
BRANCH   4  12
ATOM     12  C   UNL     1      -1.709  -2.379  24.818  0.00  0.00    +0.087 C 
BRANCH  12  11
ATOM     11  C   UNL     1      -3.195  -1.974  24.646  0.00  0.00    -0.025 C 
ATOM     14  C   UNL     1      -3.373  -0.980  23.484  0.00  0.00    +0.012 C 
ATOM     15  C   UNL     1      -3.747  -1.347  25.938  0.00  0.00    +0.012 C 
ATOM     16  C   UNL     1      -4.008  -3.245  24.330  0.00  0.00    +0.012 C 
ENDBRANCH  12  11
ENDBRANCH   4  12
ENDBRANCH   7   4
BRANCH   9  13
ATOM     13  C   UNL     1      -0.297   3.006  24.212  0.00  0.00    +0.138 C 
BRANCH  13   5
ATOM      3  O   UNL     1      -2.714   2.208  22.884  0.00  0.00    -0.270 OA
ATOM      5  N   UNL     1      -1.635   3.160  24.703  0.00  0.00    -0.309 N 
ATOM     17  C   UNL     1      -2.754   2.743  23.988  0.00  0.00    +0.244 C 
ATOM     25  H   UNL     1      -1.744   3.657  25.581  0.00  0.00    +0.149 HD
BRANCH  17  18
ATOM      6  N   UNL     1      -6.552   3.474  25.824  0.00  0.00    -0.263 NA
ATOM     18  C   UNL     1      -4.073   2.998  24.623  0.00  0.00    +0.040 A 
ATOM     19  C   UNL     1      -4.392   4.270  25.085  0.00  0.00    +0.033 A 
ATOM     20  C   UNL     1      -4.992   1.964  24.761  0.00  0.00    +0.033 A 
ATOM     21  C   UNL     1      -5.632   4.454  25.672  0.00  0.00    +0.111 A 
ATOM     22  C   UNL     1      -6.206   2.251  25.363  0.00  0.00    +0.111 A 
ENDBRANCH  17  18
ENDBRANCH  13   5
ENDBRANCH   9  13
TORSDOF 7
ENDMDL
MODEL 4
REMARK VINA RESULT:      -3.9      2.022      4.839
REMARK  Name = 75367111
REMARK  10 active torsions:
REMARK  status: ('A' for Active; 'I' for Inactive)
REMARK    1  A    between atoms: O_2  and  C_8
REMARK    2  A    between atoms: N_4  and  C_7
REMARK    3  A    between atoms: N_4  and  C_12
REMARK    4  A    between atoms: N_5  and  C_13
REMARK    5  A    between atoms: C_9  and  C_13
REMARK    6  A    between atoms: C_11  and  C_12
REMARK    7  A    between atoms: C_11  and  C_14
REMARK    8  A    between atoms: C_11  and  C_15
REMARK    9  A    between atoms: C_11  and  C_16
REMARK   10  A    between atoms: C_17  and  C_18
REMARK                            x       y       z     vdW  Elec       q    Type
REMARK                         _______ _______ _______ _____ _____    ______ ____
ROOT
ATOM      1  O   UNL     1      -3.899   3.844  24.820  0.00  0.00    -0.371 OA
ATOM      7  C   UNL     1      -4.221   1.520  25.191  0.00  0.00    +0.111 C 
ATOM      8  C   UNL     1      -2.739   1.793  25.019  0.00  0.00    +0.164 C 
ATOM      9  C   UNL     1      -2.677   3.283  25.327  0.00  0.00    +0.165 C 
ATOM     10  C   UNL     1      -4.830   2.774  24.584  0.00  0.00    +0.181 C 
ENDROOT
BRANCH   8   2
ATOM      2  O   UNL     1      -1.939   1.037  25.907  0.00  0.00    -0.388 OA
ATOM     24  H   UNL     1      -2.511   0.686  26.611  0.00  0.00    +0.210 HD
ENDBRANCH   8   2
BRANCH   7   4
ATOM      4  N   UNL     1      -4.669   0.300  24.539  0.00  0.00    -0.308 NA
ATOM     23  H   UNL     1      -5.358   0.539  23.827  0.00  0.00    +0.122 HD
BRANCH   4  12
ATOM     12  C   UNL     1      -3.554  -0.401  23.915  0.00  0.00    +0.087 C 
BRANCH  12  11
ATOM     11  C   UNL     1      -3.278  -1.805  24.509  0.00  0.00    -0.025 C 
ATOM     14  C   UNL     1      -1.816  -2.232  24.279  0.00  0.00    +0.012 C 
ATOM     15  C   UNL     1      -4.215  -2.858  23.891  0.00  0.00    +0.012 C 
ATOM     16  C   UNL     1      -3.536  -1.747  26.027  0.00  0.00    +0.012 C 
ENDBRANCH  12  11
ENDBRANCH   4  12
ENDBRANCH   7   4
BRANCH   9  13
ATOM     13  C   UNL     1      -1.489   3.979  24.689  0.00  0.00    +0.138 C 
BRANCH  13   5
ATOM      3  O   UNL     1       0.631   2.382  25.784  0.00  0.00    -0.270 OA
ATOM      5  N   UNL     1      -0.660   3.051  23.976  0.00  0.00    -0.309 N 
ATOM     17  C   UNL     1       0.350   2.316  24.590  0.00  0.00    +0.244 C 
ATOM     25  H   UNL     1      -0.794   2.998  22.972  0.00  0.00    +0.149 HD
BRANCH  17  18
ATOM      6  N   UNL     1       2.621  -0.281  22.055  0.00  0.00    -0.263 NA
ATOM     18  C   UNL     1       1.137   1.416  23.709  0.00  0.00    +0.040 A 
ATOM     19  C   UNL     1       0.531   0.315  23.113  0.00  0.00    +0.033 A 
ATOM     20  C   UNL     1       2.485   1.668  23.478  0.00  0.00    +0.033 A 
ATOM     21  C   UNL     1       1.309  -0.494  22.303  0.00  0.00    +0.111 A 
ATOM     22  C   UNL     1       3.176   0.798  22.651  0.00  0.00    +0.111 A 
ENDBRANCH  17  18
ENDBRANCH  13   5
ENDBRANCH   9  13
TORSDOF 7
ENDMDL
MODEL 5
REMARK VINA RESULT:      -3.9     14.508     17.196
REMARK  Name = 75367111
REMARK  10 active torsions:
REMARK  status: ('A' for Active; 'I' for Inactive)
REMARK    1  A    between atoms: O_2  and  C_8
REMARK    2  A    between atoms: N_4  and  C_7
REMARK    3  A    between atoms: N_4  and  C_12
REMARK    4  A    between atoms: N_5  and  C_13
REMARK    5  A    between atoms: C_9  and  C_13
REMARK    6  A    between atoms: C_11  and  C_12
REMARK    7  A    between atoms: C_11  and  C_14
REMARK    8  A    between atoms: C_11  and  C_15
REMARK    9  A    between atoms: C_11  and  C_16
REMARK   10  A    between atoms: C_17  and  C_18
REMARK                            x       y       z     vdW  Elec       q    Type
REMARK                         _______ _______ _______ _____ _____    ______ ____
ROOT
ATOM      1  O   UNL     1      -3.971 -10.574  15.257  0.00  0.00    -0.371 OA
ATOM      7  C   UNL     1      -6.131 -10.413  16.232  0.00  0.00    +0.111 C 
ATOM      8  C   UNL     1      -6.238 -10.136  14.745  0.00  0.00    +0.164 C 
ATOM      9  C   UNL     1      -4.958 -10.781  14.232  0.00  0.00    +0.165 C 
ATOM     10  C   UNL     1      -4.644 -10.201  16.471  0.00  0.00    +0.181 C 
ENDROOT
BRANCH   8   2
ATOM      2  O   UNL     1      -7.390 -10.715  14.163  0.00  0.00    -0.388 OA
ATOM     24  H   UNL     1      -8.097 -10.047  14.156  0.00  0.00    +0.210 HD
ENDBRANCH   8   2
BRANCH   7   4
ATOM      4  N   UNL     1      -6.965  -9.547  17.049  0.00  0.00    -0.308 NA
ATOM     23  H   UNL     1      -7.360  -8.815  16.459  0.00  0.00    +0.122 HD
BRANCH   4  12
ATOM     12  C   UNL     1      -8.047 -10.298  17.675  0.00  0.00    +0.087 C 
BRANCH  12  11
ATOM     11  C   UNL     1      -9.456  -9.704  17.424  0.00  0.00    -0.025 C 
ATOM     14  C   UNL     1     -10.341  -9.819  18.679  0.00  0.00    +0.012 C 
ATOM     15  C   UNL     1     -10.150 -10.414  16.248  0.00  0.00    +0.012 C 
ATOM     16  C   UNL     1      -9.297  -8.212  17.073  0.00  0.00    +0.012 C 
ENDBRANCH  12  11
ENDBRANCH   4  12
ENDBRANCH   7   4
BRANCH   9  13
ATOM     13  C   UNL     1      -4.470 -10.191  12.922  0.00  0.00    +0.138 C 
BRANCH  13   5
ATOM      3  O   UNL     1      -4.805  -8.382  10.717  0.00  0.00    -0.270 OA
ATOM      5  N   UNL     1      -5.485 -10.252  11.910  0.00  0.00    -0.309 N 
ATOM     17  C   UNL     1      -5.573  -9.328  10.874  0.00  0.00    +0.244 C 
ATOM     25  H   UNL     1      -6.193 -10.970  12.019  0.00  0.00    +0.149 HD
BRANCH  17  18
ATOM      6  N   UNL     1      -8.811  -9.859   8.124  0.00  0.00    -0.263 NA
ATOM     18  C   UNL     1      -6.698  -9.514   9.921  0.00  0.00    +0.040 A 
ATOM     19  C   UNL     1      -6.675 -10.564   9.011  0.00  0.00    +0.033 A 
ATOM     20  C   UNL     1      -7.776  -8.635   9.934  0.00  0.00    +0.033 A 
ATOM     21  C   UNL     1      -7.746 -10.692   8.142  0.00  0.00    +0.111 A 
ATOM     22  C   UNL     1      -8.798  -8.850   9.024  0.00  0.00    +0.111 A 
ENDBRANCH  17  18
ENDBRANCH  13   5
ENDBRANCH   9  13
TORSDOF 7
ENDMDL
MODEL 6
REMARK VINA RESULT:      -3.7      2.285      4.260
REMARK  Name = 75367111
REMARK  10 active torsions:
REMARK  status: ('A' for Active; 'I' for Inactive)
REMARK    1  A    between atoms: O_2  and  C_8
REMARK    2  A    between atoms: N_4  and  C_7
REMARK    3  A    between atoms: N_4  and  C_12
REMARK    4  A    between atoms: N_5  and  C_13
REMARK    5  A    between atoms: C_9  and  C_13
REMARK    6  A    between atoms: C_11  and  C_12
REMARK    7  A    between atoms: C_11  and  C_14
REMARK    8  A    between atoms: C_11  and  C_15
REMARK    9  A    between atoms: C_11  and  C_16
REMARK   10  A    between atoms: C_17  and  C_18
REMARK                            x       y       z     vdW  Elec       q    Type
REMARK                         _______ _______ _______ _____ _____    ______ ____
ROOT
ATOM      1  O   UNL     1      -5.948   2.894  26.163  0.00  0.00    -0.371 OA
ATOM      7  C   UNL     1      -4.355   4.117  24.896  0.00  0.00    +0.111 C 
ATOM      8  C   UNL     1      -4.351   2.673  24.433  0.00  0.00    +0.164 C 
ATOM      9  C   UNL     1      -5.713   2.203  24.925  0.00  0.00    +0.165 C 
ATOM     10  C   UNL     1      -5.030   3.997  26.253  0.00  0.00    +0.181 C 
ENDROOT
BRANCH   8   2
ATOM      2  O   UNL     1      -4.225   2.549  23.030  0.00  0.00    -0.388 OA
ATOM     24  H   UNL     1      -5.117   2.487  22.648  0.00  0.00    +0.210 HD
ENDBRANCH   8   2
BRANCH   7   4
ATOM      4  N   UNL     1      -3.029   4.709  24.974  0.00  0.00    -0.308 NA
ATOM     23  H   UNL     1      -3.107   5.646  25.366  0.00  0.00    +0.122 HD
BRANCH   4  12
ATOM     12  C   UNL     1      -2.145   3.908  25.813  0.00  0.00    +0.087 C 
BRANCH  12  11
ATOM     11  C   UNL     1      -0.811   3.514  25.131  0.00  0.00    -0.025 C 
ATOM     14  C   UNL     1      -1.052   2.582  23.930  0.00  0.00    +0.012 C 
ATOM     15  C   UNL     1       0.132   2.820  26.129  0.00  0.00    +0.012 C 
ATOM     16  C   UNL     1      -0.131   4.800  24.623  0.00  0.00    +0.012 C 
ENDBRANCH  12  11
ENDBRANCH   4  12
ENDBRANCH   7   4
BRANCH   9  13
ATOM     13  C   UNL     1      -5.786   0.704  25.151  0.00  0.00    +0.138 C 
BRANCH  13   5
ATOM      3  O   UNL     1      -4.586  -1.365  23.563  0.00  0.00    -0.270 OA
ATOM      5  N   UNL     1      -4.480   0.138  25.327  0.00  0.00    -0.309 N 
ATOM     17  C   UNL     1      -3.978  -0.868  24.507  0.00  0.00    +0.244 C 
ATOM     25  H   UNL     1      -3.950   0.456  26.131  0.00  0.00    +0.149 HD
BRANCH  17  18
ATOM      6  N   UNL     1      -0.056  -2.303  25.450  0.00  0.00    -0.263 NA
ATOM     18  C   UNL     1      -2.618  -1.367  24.836  0.00  0.00    +0.040 A 
ATOM     19  C   UNL     1      -1.757  -0.592  25.605  0.00  0.00    +0.033 A 
ATOM     20  C   UNL     1      -2.199  -2.610  24.374  0.00  0.00    +0.033 A 
ATOM     21  C   UNL     1      -0.499  -1.100  25.882  0.00  0.00    +0.111 A 
ATOM     22  C   UNL     1      -0.920  -3.028  24.706  0.00  0.00    +0.111 A 
ENDBRANCH  17  18
ENDBRANCH  13   5
ENDBRANCH   9  13
TORSDOF 7
ENDMDL
MODEL 7
REMARK VINA RESULT:      -3.4      2.872      4.896
REMARK  Name = 75367111
REMARK  10 active torsions:
REMARK  status: ('A' for Active; 'I' for Inactive)
REMARK    1  A    between atoms: O_2  and  C_8
REMARK    2  A    between atoms: N_4  and  C_7
REMARK    3  A    between atoms: N_4  and  C_12
REMARK    4  A    between atoms: N_5  and  C_13
REMARK    5  A    between atoms: C_9  and  C_13
REMARK    6  A    between atoms: C_11  and  C_12
REMARK    7  A    between atoms: C_11  and  C_14
REMARK    8  A    between atoms: C_11  and  C_15
REMARK    9  A    between atoms: C_11  and  C_16
REMARK   10  A    between atoms: C_17  and  C_18
REMARK                            x       y       z     vdW  Elec       q    Type
REMARK                         _______ _______ _______ _____ _____    ______ ____
ROOT
ATOM      1  O   UNL     1      -0.531   0.767  25.553  0.00  0.00    -0.371 OA
ATOM      7  C   UNL     1      -2.363   2.136  24.913  0.00  0.00    +0.111 C 
ATOM      8  C   UNL     1      -2.279   0.950  23.970  0.00  0.00    +0.164 C 
ATOM      9  C   UNL     1      -1.464  -0.030  24.803  0.00  0.00    +0.165 C 
ATOM     10  C   UNL     1      -0.970   2.136  25.522  0.00  0.00    +0.181 C 
ENDROOT
BRANCH   8   2
ATOM      2  O   UNL     1      -3.550   0.428  23.636  0.00  0.00    -0.388 OA
ATOM     24  H   UNL     1      -3.615   0.381  22.666  0.00  0.00    +0.210 HD
ENDBRANCH   8   2
BRANCH   7   4
ATOM      4  N   UNL     1      -2.690   3.388  24.248  0.00  0.00    -0.308 NA
ATOM     23  H   UNL     1      -2.275   3.386  23.317  0.00  0.00    +0.122 HD
BRANCH   4  12
ATOM     12  C   UNL     1      -4.134   3.558  24.131  0.00  0.00    +0.087 C 
BRANCH  12  11
ATOM     11  C   UNL     1      -4.872   3.645  25.491  0.00  0.00    -0.025 C 
ATOM     14  C   UNL     1      -3.901   4.001  26.632  0.00  0.00    +0.012 C 
ATOM     15  C   UNL     1      -5.575   2.317  25.820  0.00  0.00    +0.012 C 
ATOM     16  C   UNL     1      -5.937   4.754  25.392  0.00  0.00    +0.012 C 
ENDBRANCH  12  11
ENDBRANCH   4  12
ENDBRANCH   7   4
BRANCH   9  13
ATOM     13  C   UNL     1      -0.713  -1.049  23.967  0.00  0.00    +0.138 C 
BRANCH  13   5
ATOM      3  O   UNL     1       0.997  -0.249  21.804  0.00  0.00    -0.270 OA
ATOM      5  N   UNL     1       0.704  -0.835  24.030  0.00  0.00    -0.309 N 
ATOM     17  C   UNL     1       1.457  -0.447  22.925  0.00  0.00    +0.244 C 
ATOM     25  H   UNL     1       1.158  -1.046  24.912  0.00  0.00    +0.149 HD
BRANCH  17  18
ATOM      6  N   UNL     1       5.668  -0.003  23.560  0.00  0.00    -0.263 NA
ATOM     18  C   UNL     1       2.918  -0.292  23.148  0.00  0.00    +0.040 A 
ATOM     19  C   UNL     1       3.558   0.889  22.788  0.00  0.00    +0.033 A 
ATOM     20  C   UNL     1       3.652  -1.328  23.714  0.00  0.00    +0.033 A 
ATOM     21  C   UNL     1       4.921   0.983  23.013  0.00  0.00    +0.111 A 
ATOM     22  C   UNL     1       5.012  -1.136  23.897  0.00  0.00    +0.111 A 
ENDBRANCH  17  18
ENDBRANCH  13   5
ENDBRANCH   9  13
TORSDOF 7
ENDMDL
MODEL 8
REMARK VINA RESULT:      -3.3      2.139      4.587
REMARK  Name = 75367111
REMARK  10 active torsions:
REMARK  status: ('A' for Active; 'I' for Inactive)
REMARK    1  A    between atoms: O_2  and  C_8
REMARK    2  A    between atoms: N_4  and  C_7
REMARK    3  A    between atoms: N_4  and  C_12
REMARK    4  A    between atoms: N_5  and  C_13
REMARK    5  A    between atoms: C_9  and  C_13
REMARK    6  A    between atoms: C_11  and  C_12
REMARK    7  A    between atoms: C_11  and  C_14
REMARK    8  A    between atoms: C_11  and  C_15
REMARK    9  A    between atoms: C_11  and  C_16
REMARK   10  A    between atoms: C_17  and  C_18
REMARK                            x       y       z     vdW  Elec       q    Type
REMARK                         _______ _______ _______ _____ _____    ______ ____
ROOT
ATOM      1  O   UNL     1      -4.922   0.125  25.382  0.00  0.00    -0.371 OA
ATOM      7  C   UNL     1      -4.674   2.175  24.207  0.00  0.00    +0.111 C 
ATOM      8  C   UNL     1      -3.492   1.278  23.892  0.00  0.00    +0.164 C 
ATOM      9  C   UNL     1      -4.055  -0.089  24.255  0.00  0.00    +0.165 C 
ATOM     10  C   UNL     1      -5.211   1.530  25.475  0.00  0.00    +0.181 C 
ENDROOT
BRANCH   8   2
ATOM      2  O   UNL     1      -3.102   1.344  22.535  0.00  0.00    -0.388 OA
ATOM     24  H   UNL     1      -3.607   2.057  22.106  0.00  0.00    +0.210 HD
ENDBRANCH   8   2
BRANCH   7   4
ATOM      4  N   UNL     1      -4.315   3.572  24.390  0.00  0.00    -0.308 NA
ATOM     23  H   UNL     1      -4.539   3.849  25.344  0.00  0.00    +0.122 HD
BRANCH   4  12
ATOM     12  C   UNL     1      -2.893   3.784  24.148  0.00  0.00    +0.087 C 
BRANCH  12  11
ATOM     11  C   UNL     1      -2.103   4.257  25.395  0.00  0.00    -0.025 C 
ATOM     14  C   UNL     1      -0.975   3.272  25.749  0.00  0.00    +0.012 C 
ATOM     15  C   UNL     1      -3.036   4.416  26.608  0.00  0.00    +0.012 C 
ATOM     16  C   UNL     1      -1.473   5.627  25.075  0.00  0.00    +0.012 C 
ENDBRANCH  12  11
ENDBRANCH   4  12
ENDBRANCH   7   4
BRANCH   9  13
ATOM     13  C   UNL     1      -2.985  -1.103  24.617  0.00  0.00    +0.138 C 
BRANCH  13   5
ATOM      3  O   UNL     1      -0.646   0.193  25.662  0.00  0.00    -0.270 OA
ATOM      5  N   UNL     1      -1.762  -0.846  23.914  0.00  0.00    -0.309 N 
ATOM     17  C   UNL     1      -0.674  -0.207  24.502  0.00  0.00    +0.244 C 
ATOM     25  H   UNL     1      -1.742  -1.091  22.930  0.00  0.00    +0.149 HD
BRANCH  17  18
ATOM      6  N   UNL     1       2.743   0.410  21.998  0.00  0.00    -0.263 NA
ATOM     18  C   UNL     1       0.511   0.009  23.631  0.00  0.00    +0.040 A 
ATOM     19  C   UNL     1       0.665  -0.733  22.465  0.00  0.00    +0.033 A 
ATOM     20  C   UNL     1       1.472   0.951  23.982  0.00  0.00    +0.033 A 
ATOM     21  C   UNL     1       1.788  -0.496  21.690  0.00  0.00    +0.111 A 
ATOM     22  C   UNL     1       2.559   1.112  23.139  0.00  0.00    +0.111 A 
ENDBRANCH  17  18
ENDBRANCH  13   5
ENDBRANCH   9  13
TORSDOF 7
ENDMDL
MODEL 9
REMARK VINA RESULT:      -3.1      1.619      5.032
REMARK  Name = 75367111
REMARK  10 active torsions:
REMARK  status: ('A' for Active; 'I' for Inactive)
REMARK    1  A    between atoms: O_2  and  C_8
REMARK    2  A    between atoms: N_4  and  C_7
REMARK    3  A    between atoms: N_4  and  C_12
REMARK    4  A    between atoms: N_5  and  C_13
REMARK    5  A    between atoms: C_9  and  C_13
REMARK    6  A    between atoms: C_11  and  C_12
REMARK    7  A    between atoms: C_11  and  C_14
REMARK    8  A    between atoms: C_11  and  C_15
REMARK    9  A    between atoms: C_11  and  C_16
REMARK   10  A    between atoms: C_17  and  C_18
REMARK                            x       y       z     vdW  Elec       q    Type
REMARK                         _______ _______ _______ _____ _____    ______ ____
ROOT
ATOM      1  O   UNL     1      -1.798  -2.204  25.011  0.00  0.00    -0.371 OA
ATOM      7  C   UNL     1      -3.864  -1.318  24.244  0.00  0.00    +0.111 C 
ATOM      8  C   UNL     1      -2.736  -0.417  23.778  0.00  0.00    +0.164 C 
ATOM      9  C   UNL     1      -1.546  -1.362  23.873  0.00  0.00    +0.165 C 
ATOM     10  C   UNL     1      -3.187  -2.093  25.363  0.00  0.00    +0.181 C 
ENDROOT
BRANCH   8   2
ATOM      2  O   UNL     1      -2.926   0.060  22.461  0.00  0.00    -0.388 OA
ATOM     24  H   UNL     1      -2.692   1.004  22.440  0.00  0.00    +0.210 HD
ENDBRANCH   8   2
BRANCH   7   4
ATOM      4  N   UNL     1      -5.044  -0.594  24.688  0.00  0.00    -0.308 NA
ATOM     23  H   UNL     1      -5.605  -1.206  25.278  0.00  0.00    +0.122 HD
BRANCH   4  12
ATOM     12  C   UNL     1      -4.675   0.597  25.444  0.00  0.00    +0.087 C 
BRANCH  12  11
ATOM     11  C   UNL     1      -5.381   1.892  24.968  0.00  0.00    -0.025 C 
ATOM     14  C   UNL     1      -6.792   1.593  24.430  0.00  0.00    +0.012 C 
ATOM     15  C   UNL     1      -4.560   2.595  23.873  0.00  0.00    +0.012 C 
ATOM     16  C   UNL     1      -5.509   2.843  26.173  0.00  0.00    +0.012 C 
ENDBRANCH  12  11
ENDBRANCH   4  12
ENDBRANCH   7   4
BRANCH   9  13
ATOM     13  C   UNL     1      -0.221  -0.644  24.049  0.00  0.00    +0.138 C 
BRANCH  13   5
ATOM      3  O   UNL     1      -0.973   0.882  26.362  0.00  0.00    -0.270 OA
ATOM      5  N   UNL     1      -0.401   0.777  24.116  0.00  0.00    -0.309 N 
ATOM     17  C   UNL     1      -0.770   1.436  25.285  0.00  0.00    +0.244 C 
ATOM     25  H   UNL     1      -0.314   1.289  23.245  0.00  0.00    +0.149 HD
BRANCH  17  18
ATOM      6  N   UNL     1      -1.262   5.679  24.998  0.00  0.00    -0.263 NA
ATOM     18  C   UNL     1      -0.942   2.909  25.184  0.00  0.00    +0.040 A 
ATOM     19  C   UNL     1      -0.072   3.661  24.402  0.00  0.00    +0.033 A 
ATOM     20  C   UNL     1      -1.971   3.540  25.872  0.00  0.00    +0.033 A 
ATOM     21  C   UNL     1      -0.273   5.030  24.343  0.00  0.00    +0.111 A 
ATOM     22  C   UNL     1      -2.087   4.915  25.748  0.00  0.00    +0.111 A 
ENDBRANCH  17  18
ENDBRANCH  13   5
ENDBRANCH   9  13
TORSDOF 7
ENDMDL
MODEL 10
REMARK VINA RESULT:      -2.2      1.836      4.586
REMARK  Name = 75367111
REMARK  10 active torsions:
REMARK  status: ('A' for Active; 'I' for Inactive)
REMARK    1  A    between atoms: O_2  and  C_8
REMARK    2  A    between atoms: N_4  and  C_7
REMARK    3  A    between atoms: N_4  and  C_12
REMARK    4  A    between atoms: N_5  and  C_13
REMARK    5  A    between atoms: C_9  and  C_13
REMARK    6  A    between atoms: C_11  and  C_12
REMARK    7  A    between atoms: C_11  and  C_14
REMARK    8  A    between atoms: C_11  and  C_15
REMARK    9  A    between atoms: C_11  and  C_16
REMARK   10  A    between atoms: C_17  and  C_18
REMARK                            x       y       z     vdW  Elec       q    Type
REMARK                         _______ _______ _______ _____ _____    ______ ____
ROOT
ATOM      1  O   UNL     1       0.152   3.561  26.193  0.00  0.00    -0.371 OA
ATOM      7  C   UNL     1       0.397   1.590  24.892  0.00  0.00    +0.111 C 
ATOM      8  C   UNL     1      -0.569   2.527  24.192  0.00  0.00    +0.164 C 
ATOM      9  C   UNL     1      -0.201   3.859  24.832  0.00  0.00    +0.165 C 
ATOM     10  C   UNL     1       0.386   2.147  26.306  0.00  0.00    +0.181 C 
ENDROOT
BRANCH   8   2
ATOM      2  O   UNL     1      -0.390   2.549  22.789  0.00  0.00    -0.388 OA
ATOM     24  H   UNL     1      -1.158   2.993  22.390  0.00  0.00    +0.210 HD
ENDBRANCH   8   2
BRANCH   7   4
ATOM      4  N   UNL     1      -0.000   0.192  24.831  0.00  0.00    -0.308 NA
ATOM     23  H   UNL     1       0.768  -0.385  25.170  0.00  0.00    +0.122 HD
BRANCH   4  12
ATOM     12  C   UNL     1      -1.184  -0.053  25.645  0.00  0.00    +0.087 C 
BRANCH  12  11
ATOM     11  C   UNL     1      -2.202  -1.030  25.004  0.00  0.00    -0.025 C 
ATOM     14  C   UNL     1      -2.805  -0.440  23.715  0.00  0.00    +0.012 C 
ATOM     15  C   UNL     1      -3.338  -1.364  25.987  0.00  0.00    +0.012 C 
ATOM     16  C   UNL     1      -1.462  -2.333  24.646  0.00  0.00    +0.012 C 
ENDBRANCH  12  11
ENDBRANCH   4  12
ENDBRANCH   7   4
BRANCH   9  13
ATOM     13  C   UNL     1      -1.331   4.872  24.804  0.00  0.00    +0.138 C 
BRANCH  13   5
ATOM      3  O   UNL     1      -2.908   3.827  26.963  0.00  0.00    -0.270 OA
ATOM      5  N   UNL     1      -2.608   4.228  24.698  0.00  0.00    -0.309 N 
ATOM     17  C   UNL     1      -3.304   3.748  25.804  0.00  0.00    +0.244 C 
ATOM     25  H   UNL     1      -2.962   4.070  23.761  0.00  0.00    +0.149 HD
BRANCH  17  18
ATOM      6  N   UNL     1      -7.045   1.831  24.992  0.00  0.00    -0.263 NA
ATOM     18  C   UNL     1      -4.602   3.082  25.524  0.00  0.00    +0.040 A 
ATOM     19  C   UNL     1      -4.628   1.792  25.005  0.00  0.00    +0.033 A 
ATOM     20  C   UNL     1      -5.797   3.747  25.777  0.00  0.00    +0.033 A 
ATOM     21  C   UNL     1      -5.863   1.217  24.759  0.00  0.00    +0.111 A 
ATOM     22  C   UNL     1      -6.980   3.084  25.496  0.00  0.00    +0.111 A 
ENDBRANCH  17  18
ENDBRANCH  13   5
ENDBRANCH   9  13
TORSDOF 7
ENDMDL
