MODEL 1
REMARK VINA RESULT:       3.2      0.000      0.000
REMARK  Name = 45360647
REMARK  9 active torsions:
REMARK  status: ('A' for Active; 'I' for Inactive)
REMARK    1  A    between atoms: N_5  and  C_9
REMARK    2  A    between atoms: N_5  and  C_17
REMARK    3  A    between atoms: N_7  and  C_30
REMARK    4  A    between atoms: N_7  and  C_33
REMARK    5  A    between atoms: N_7  and  C_34
REMARK    6  A    between atoms: C_10  and  C_14
REMARK    7  A    between atoms: C_14  and  C_16
REMARK    8  A    between atoms: C_16  and  C_18
REMARK    9  A    between atoms: C_17  and  C_19
REMARK                            x       y       z     vdW  Elec       q    Type
REMARK                         _______ _______ _______ _____ _____    ______ ____
ROOT
ATOM      1  O   UNL     1       0.126   5.564  24.998  0.00  0.00    -0.274 OA
ATOM      3  N   UNL     1      -2.458   2.986  25.036  0.00  0.00    -0.286 NA
ATOM      4  N   UNL     1      -2.102   5.730  24.570  0.00  0.00    -0.313 N 
ATOM      8  C   UNL     1      -1.161   3.577  25.392  0.00  0.00    +0.145 C 
ATOM      9  C   UNL     1      -0.955   1.631  23.953  0.00  0.00    +0.070 C 
ATOM     10  C   UNL     1      -3.593   3.887  25.201  0.00  0.00    +0.075 C 
ATOM     11  C   UNL     1      -0.125   2.672  24.706  0.00  0.00    +0.048 C 
ATOM     12  C   UNL     1      -2.292   2.328  23.743  0.00  0.00    +0.104 C 
ATOM     13  C   UNL     1      -3.409   5.147  24.370  0.00  0.00    +0.123 C 
ATOM     15  C   UNL     1      -0.985   5.026  24.950  0.00  0.00    +0.230 C 
ATOM     35  H   UNL     1      -1.975   6.700  24.300  0.00  0.00    +0.149 HD
ENDROOT
BRANCH   9   5
ATOM      5  N   UNL     1      -0.331   1.190  22.716  0.00  0.00    -0.308 NA
ATOM     36  H   UNL     1      -1.036   1.161  21.979  0.00  0.00    +0.123 HD
BRANCH   5  17
ATOM     17  C   UNL     1       0.249  -0.139  22.868  0.00  0.00    +0.116 C 
BRANCH  17  19
ATOM     19  C   UNL     1       1.748  -0.083  23.008  0.00  0.00    -0.033 A 
ATOM     24  C   UNL     1       2.453  -1.215  23.416  0.00  0.00    +0.007 A 
ATOM     25  C   UNL     1       2.431   1.100  22.727  0.00  0.00    +0.007 A 
ATOM     28  C   UNL     1       3.841  -1.165  23.545  0.00  0.00    +0.023 A 
ATOM     29  C   UNL     1       3.819   1.151  22.857  0.00  0.00    +0.023 A 
ATOM     30  C   UNL     1       4.524   0.019  23.265  0.00  0.00    +0.029 A 
BRANCH  30   7
ATOM      7  N   UNL     1       5.926   0.071  23.396  0.00  0.00    -0.336 N 
ATOM     33  C   UNL     1       6.550   1.088  24.220  0.00  0.00    +0.129 C 
ATOM     34  C   UNL     1       6.764  -0.886  22.701  0.00  0.00    +0.129 C 
ENDBRANCH  30   7
ENDBRANCH  17  19
ENDBRANCH   5  17
ENDBRANCH   9   5
BRANCH  10  14
ATOM     14  C   UNL     1      -4.932   3.216  24.892  0.00  0.00    +0.029 C 
BRANCH  14  16
ATOM     16  C   UNL     1      -5.227   2.049  25.822  0.00  0.00    +0.098 C 
BRANCH  16  18
ATOM      2  O   UNL     1      -6.157   0.414  24.380  0.00  0.00    -0.275 OA
ATOM      6  N   UNL     1      -4.033  -0.005  25.253  0.00  0.00    -0.271 N 
ATOM     18  C   UNL     1      -5.193   0.736  25.076  0.00  0.00    +0.220 C 
ATOM     20  C   UNL     1      -2.878   0.385  26.088  0.00  0.00    +0.118 C 
ATOM     21  C   UNL     1      -3.756  -1.259  24.669  0.00  0.00    +0.039 A 
ATOM     22  C   UNL     1      -1.828  -0.727  25.983  0.00  0.00    +0.056 C 
ATOM     23  C   UNL     1      -2.494  -1.703  25.069  0.00  0.00    -0.024 A 
ATOM     26  C   UNL     1      -4.537  -2.024  23.815  0.00  0.00    +0.024 A 
ATOM     27  C   UNL     1      -1.984  -2.915  24.629  0.00  0.00    +0.005 A 
ATOM     31  C   UNL     1      -4.030  -3.249  23.368  0.00  0.00    +0.002 A 
ATOM     32  C   UNL     1      -2.763  -3.692  23.772  0.00  0.00    +0.000 A 
ENDBRANCH  16  18
ENDBRANCH  14  16
ENDBRANCH  10  14
TORSDOF 7
ENDMDL
MODEL 2
REMARK VINA RESULT:       3.8      1.879      6.811
REMARK  Name = 45360647
REMARK  9 active torsions:
REMARK  status: ('A' for Active; 'I' for Inactive)
REMARK    1  A    between atoms: N_5  and  C_9
REMARK    2  A    between atoms: N_5  and  C_17
REMARK    3  A    between atoms: N_7  and  C_30
REMARK    4  A    between atoms: N_7  and  C_33
REMARK    5  A    between atoms: N_7  and  C_34
REMARK    6  A    between atoms: C_10  and  C_14
REMARK    7  A    between atoms: C_14  and  C_16
REMARK    8  A    between atoms: C_16  and  C_18
REMARK    9  A    between atoms: C_17  and  C_19
REMARK                            x       y       z     vdW  Elec       q    Type
REMARK                         _______ _______ _______ _____ _____    ______ ____
ROOT
ATOM      1  O   UNL     1      -1.722   6.178  25.306  0.00  0.00    -0.274 OA
ATOM      3  N   UNL     1      -2.330   2.817  24.022  0.00  0.00    -0.286 NA
ATOM      4  N   UNL     1      -0.458   4.298  25.496  0.00  0.00    -0.313 N 
ATOM      8  C   UNL     1      -2.494   4.275  24.064  0.00  0.00    +0.145 C 
ATOM      9  C   UNL     1      -4.505   3.076  24.707  0.00  0.00    +0.070 C 
ATOM     10  C   UNL     1      -0.944   2.366  24.063  0.00  0.00    +0.075 C 
ATOM     11  C   UNL     1      -3.955   4.486  24.491  0.00  0.00    +0.048 C 
ATOM     12  C   UNL     1      -3.259   2.250  24.996  0.00  0.00    +0.104 C 
ATOM     13  C   UNL     1      -0.245   2.880  25.313  0.00  0.00    +0.123 C 
ATOM     15  C   UNL     1      -1.545   4.990  25.022  0.00  0.00    +0.230 C 
ATOM     35  H   UNL     1       0.178   4.790  26.115  0.00  0.00    +0.149 HD
ENDROOT
BRANCH   9   5
ATOM      5  N   UNL     1      -5.503   3.009  25.763  0.00  0.00    -0.308 NA
ATOM     36  H   UNL     1      -5.041   3.124  26.666  0.00  0.00    +0.123 HD
BRANCH   5  17
ATOM     17  C   UNL     1      -6.195   1.726  25.747  0.00  0.00    +0.116 C 
BRANCH  17  19
ATOM     19  C   UNL     1      -5.262   0.589  25.422  0.00  0.00    -0.033 A 
ATOM     24  C   UNL     1      -4.466   0.032  26.423  0.00  0.00    +0.007 A 
ATOM     25  C   UNL     1      -5.193   0.093  24.120  0.00  0.00    +0.007 A 
ATOM     28  C   UNL     1      -3.602  -1.021  26.123  0.00  0.00    +0.023 A 
ATOM     29  C   UNL     1      -4.328  -0.958  23.819  0.00  0.00    +0.023 A 
ATOM     30  C   UNL     1      -3.533  -1.516  24.820  0.00  0.00    +0.029 A 
BRANCH  30   7
ATOM      7  N   UNL     1      -2.659  -2.579  24.516  0.00  0.00    -0.336 N 
ATOM     33  C   UNL     1      -3.116  -3.702  23.721  0.00  0.00    +0.129 C 
ATOM     34  C   UNL     1      -1.293  -2.568  25.001  0.00  0.00    +0.129 C 
ENDBRANCH  30   7
ENDBRANCH  17  19
ENDBRANCH   5  17
ENDBRANCH   9   5
BRANCH  10  14
ATOM     14  C   UNL     1      -0.809   0.847  23.945  0.00  0.00    +0.029 C 
BRANCH  14  16
ATOM     16  C   UNL     1       0.020   0.429  22.740  0.00  0.00    +0.098 C 
BRANCH  16  18
ATOM      2  O   UNL     1       1.017  -1.563  23.550  0.00  0.00    -0.275 OA
ATOM      6  N   UNL     1       2.434   0.226  23.057  0.00  0.00    -0.271 N 
ATOM     18  C   UNL     1       1.204  -0.410  23.159  0.00  0.00    +0.220 C 
ATOM     20  C   UNL     1       2.654   1.610  22.588  0.00  0.00    +0.118 C 
ATOM     21  C   UNL     1       3.685  -0.337  23.386  0.00  0.00    +0.039 A 
ATOM     22  C   UNL     1       4.162   1.885  22.636  0.00  0.00    +0.056 C 
ATOM     23  C   UNL     1       4.701   0.593  23.155  0.00  0.00    -0.024 A 
ATOM     26  C   UNL     1       3.981  -1.603  23.869  0.00  0.00    +0.024 A 
ATOM     27  C   UNL     1       6.030   0.282  23.400  0.00  0.00    +0.005 A 
ATOM     31  C   UNL     1       5.320  -1.923  24.120  0.00  0.00    +0.002 A 
ATOM     32  C   UNL     1       6.337  -0.988  23.887  0.00  0.00    +0.000 A 
ENDBRANCH  16  18
ENDBRANCH  14  16
ENDBRANCH  10  14
TORSDOF 7
ENDMDL
MODEL 3
REMARK VINA RESULT:       5.3      0.897      1.895
REMARK  Name = 45360647
REMARK  9 active torsions:
REMARK  status: ('A' for Active; 'I' for Inactive)
REMARK    1  A    between atoms: N_5  and  C_9
REMARK    2  A    between atoms: N_5  and  C_17
REMARK    3  A    between atoms: N_7  and  C_30
REMARK    4  A    between atoms: N_7  and  C_33
REMARK    5  A    between atoms: N_7  and  C_34
REMARK    6  A    between atoms: C_10  and  C_14
REMARK    7  A    between atoms: C_14  and  C_16
REMARK    8  A    between atoms: C_16  and  C_18
REMARK    9  A    between atoms: C_17  and  C_19
REMARK                            x       y       z     vdW  Elec       q    Type
REMARK                         _______ _______ _______ _____ _____    ______ ____
ROOT
ATOM      1  O   UNL     1      -0.648   5.691  24.917  0.00  0.00    -0.274 OA
ATOM      3  N   UNL     1      -2.860   2.793  24.758  0.00  0.00    -0.286 NA
ATOM      4  N   UNL     1      -2.831   5.560  24.293  0.00  0.00    -0.313 N 
ATOM      8  C   UNL     1      -1.690   3.550  25.219  0.00  0.00    +0.145 C 
ATOM      9  C   UNL     1      -1.101   1.650  23.826  0.00  0.00    +0.070 C 
ATOM     10  C   UNL     1      -4.115   3.534  24.812  0.00  0.00    +0.075 C 
ATOM     11  C   UNL     1      -0.487   2.791  24.637  0.00  0.00    +0.048 C 
ATOM     12  C   UNL     1      -2.495   2.163  23.492  0.00  0.00    +0.104 C 
ATOM     13  C   UNL     1      -4.026   4.808  23.986  0.00  0.00    +0.123 C 
ATOM     15  C   UNL     1      -1.668   5.010  24.778  0.00  0.00    +0.230 C 
ATOM     35  H   UNL     1      -2.811   6.538  24.024  0.00  0.00    +0.149 HD
ENDROOT
BRANCH   9   5
ATOM      5  N   UNL     1      -0.317   1.296  22.654  0.00  0.00    -0.308 NA
ATOM     36  H   UNL     1      -0.919   1.324  21.830  0.00  0.00    +0.123 HD
BRANCH   5  17
ATOM     17  C   UNL     1       0.244  -0.044  22.785  0.00  0.00    +0.116 C 
BRANCH  17  19
ATOM     19  C   UNL     1       1.739  -0.010  22.959  0.00  0.00    -0.033 A 
ATOM     24  C   UNL     1       2.443   1.170  22.721  0.00  0.00    +0.007 A 
ATOM     25  C   UNL     1       2.421  -1.159  23.361  0.00  0.00    +0.007 A 
ATOM     28  C   UNL     1       3.828   1.202  22.882  0.00  0.00    +0.023 A 
ATOM     29  C   UNL     1       3.806  -1.128  23.521  0.00  0.00    +0.023 A 
ATOM     30  C   UNL     1       4.510   0.053  23.282  0.00  0.00    +0.029 A 
BRANCH  30   7
ATOM      7  N   UNL     1       5.910   0.083  23.445  0.00  0.00    -0.336 N 
ATOM     33  C   UNL     1       6.742  -0.942  22.846  0.00  0.00    +0.129 C 
ATOM     34  C   UNL     1       6.535   1.136  24.221  0.00  0.00    +0.129 C 
ENDBRANCH  30   7
ENDBRANCH  17  19
ENDBRANCH   5  17
ENDBRANCH   9   5
BRANCH  10  14
ATOM     14  C   UNL     1      -5.321   2.691  24.393  0.00  0.00    +0.029 C 
BRANCH  14  16
ATOM     16  C   UNL     1      -5.519   1.476  25.286  0.00  0.00    +0.098 C 
BRANCH  16  18
ATOM      2  O   UNL     1      -3.471   1.384  26.478  0.00  0.00    -0.275 OA
ATOM      6  N   UNL     1      -3.913  -0.338  24.965  0.00  0.00    -0.271 N 
ATOM     18  C   UNL     1      -4.194   0.841  25.642  0.00  0.00    +0.220 C 
ATOM     20  C   UNL     1      -4.783  -0.987  23.962  0.00  0.00    +0.118 C 
ATOM     21  C   UNL     1      -2.748  -1.119  25.116  0.00  0.00    +0.039 A 
ATOM     22  C   UNL     1      -4.077  -2.262  23.487  0.00  0.00    +0.056 C 
ATOM     23  C   UNL     1      -2.811  -2.235  24.278  0.00  0.00    -0.024 A 
ATOM     26  C   UNL     1      -1.650  -0.913  25.937  0.00  0.00    +0.024 A 
ATOM     27  C   UNL     1      -1.784  -3.166  24.240  0.00  0.00    +0.005 A 
ATOM     31  C   UNL     1      -0.608  -1.846  25.903  0.00  0.00    +0.002 A 
ATOM     32  C   UNL     1      -0.674  -2.965  25.062  0.00  0.00    +0.000 A 
ENDBRANCH  16  18
ENDBRANCH  14  16
ENDBRANCH  10  14
TORSDOF 7
ENDMDL
MODEL 4
REMARK VINA RESULT:       5.3      1.371      1.823
REMARK  Name = 45360647
REMARK  9 active torsions:
REMARK  status: ('A' for Active; 'I' for Inactive)
REMARK    1  A    between atoms: N_5  and  C_9
REMARK    2  A    between atoms: N_5  and  C_17
REMARK    3  A    between atoms: N_7  and  C_30
REMARK    4  A    between atoms: N_7  and  C_33
REMARK    5  A    between atoms: N_7  and  C_34
REMARK    6  A    between atoms: C_10  and  C_14
REMARK    7  A    between atoms: C_14  and  C_16
REMARK    8  A    between atoms: C_16  and  C_18
REMARK    9  A    between atoms: C_17  and  C_19
REMARK                            x       y       z     vdW  Elec       q    Type
REMARK                         _______ _______ _______ _____ _____    ______ ____
ROOT
ATOM      1  O   UNL     1       0.995   2.866  26.766  0.00  0.00    -0.274 OA
ATOM      3  N   UNL     1      -2.025   2.364  24.778  0.00  0.00    -0.286 NA
ATOM      4  N   UNL     1      -0.503   4.389  25.986  0.00  0.00    -0.313 N 
ATOM      8  C   UNL     1      -0.950   1.957  25.693  0.00  0.00    +0.145 C 
ATOM      9  C   UNL     1      -0.809   0.877  23.523  0.00  0.00    +0.070 C 
ATOM     10  C   UNL     1      -2.672   3.622  25.134  0.00  0.00    +0.075 C 
ATOM     11  C   UNL     1      -0.131   0.933  24.892  0.00  0.00    +0.048 C 
ATOM     12  C   UNL     1      -1.510   2.224  23.419  0.00  0.00    +0.104 C 
ATOM     13  C   UNL     1      -1.658   4.754  25.198  0.00  0.00    +0.123 C 
ATOM     15  C   UNL     1      -0.061   3.101  26.171  0.00  0.00    +0.230 C 
ATOM     35  H   UNL     1       0.086   5.141  26.329  0.00  0.00    +0.149 HD
ENDROOT
BRANCH   9   5
ATOM      5  N   UNL     1       0.123   0.623  22.435  0.00  0.00    -0.308 NA
ATOM     36  H   UNL     1      -0.396   0.567  21.558  0.00  0.00    +0.123 HD
BRANCH   5  17
ATOM     17  C   UNL     1       0.838  -0.631  22.642  0.00  0.00    +0.116 C 
BRANCH  17  19
ATOM     19  C   UNL     1       2.309  -0.405  22.873  0.00  0.00    -0.033 A 
ATOM     24  C   UNL     1       3.075  -1.386  23.503  0.00  0.00    +0.007 A 
ATOM     25  C   UNL     1       2.906   0.785  22.457  0.00  0.00    +0.007 A 
ATOM     28  C   UNL     1       4.437  -1.178  23.717  0.00  0.00    +0.023 A 
ATOM     29  C   UNL     1       4.268   0.994  22.672  0.00  0.00    +0.023 A 
ATOM     30  C   UNL     1       5.034   0.013  23.301  0.00  0.00    +0.029 A 
BRANCH  30   7
ATOM      7  N   UNL     1       6.411   0.225  23.518  0.00  0.00    -0.336 N 
ATOM     33  C   UNL     1       6.866   1.362  24.293  0.00  0.00    +0.129 C 
ATOM     34  C   UNL     1       7.390  -0.688  22.961  0.00  0.00    +0.129 C 
ENDBRANCH  30   7
ENDBRANCH  17  19
ENDBRANCH   5  17
ENDBRANCH   9   5
BRANCH  10  14
ATOM     14  C   UNL     1      -3.832   3.976  24.202  0.00  0.00    +0.029 C 
BRANCH  14  16
ATOM     16  C   UNL     1      -5.055   3.102  24.437  0.00  0.00    +0.098 C 
BRANCH  16  18
ATOM      2  O   UNL     1      -4.803   1.976  26.508  0.00  0.00    -0.275 OA
ATOM      6  N   UNL     1      -4.303   0.781  24.566  0.00  0.00    -0.271 N 
ATOM     18  C   UNL     1      -4.708   1.898  25.282  0.00  0.00    +0.220 C 
ATOM     20  C   UNL     1      -4.190   0.691  23.095  0.00  0.00    +0.118 C 
ATOM     21  C   UNL     1      -3.926  -0.462  25.117  0.00  0.00    +0.039 A 
ATOM     22  C   UNL     1      -3.715  -0.725  22.748  0.00  0.00    +0.056 C 
ATOM     23  C   UNL     1      -3.582  -1.352  24.097  0.00  0.00    -0.024 A 
ATOM     26  C   UNL     1      -3.870  -0.855  26.446  0.00  0.00    +0.024 A 
ATOM     27  C   UNL     1      -3.175  -2.647  24.378  0.00  0.00    +0.005 A 
ATOM     31  C   UNL     1      -3.459  -2.160  26.738  0.00  0.00    +0.002 A 
ATOM     32  C   UNL     1      -3.114  -3.050  25.712  0.00  0.00    +0.000 A 
ENDBRANCH  16  18
ENDBRANCH  14  16
ENDBRANCH  10  14
TORSDOF 7
ENDMDL
MODEL 5
REMARK VINA RESULT:       6.4      1.939      6.415
REMARK  Name = 45360647
REMARK  9 active torsions:
REMARK  status: ('A' for Active; 'I' for Inactive)
REMARK    1  A    between atoms: N_5  and  C_9
REMARK    2  A    between atoms: N_5  and  C_17
REMARK    3  A    between atoms: N_7  and  C_30
REMARK    4  A    between atoms: N_7  and  C_33
REMARK    5  A    between atoms: N_7  and  C_34
REMARK    6  A    between atoms: C_10  and  C_14
REMARK    7  A    between atoms: C_14  and  C_16
REMARK    8  A    between atoms: C_16  and  C_18
REMARK    9  A    between atoms: C_17  and  C_19
REMARK                            x       y       z     vdW  Elec       q    Type
REMARK                         _______ _______ _______ _____ _____    ______ ____
ROOT
ATOM      1  O   UNL     1      -3.769   4.599  27.640  0.00  0.00    -0.274 OA
ATOM      3  N   UNL     1      -3.166   3.508  24.210  0.00  0.00    -0.286 NA
ATOM      4  N   UNL     1      -1.954   3.567  26.740  0.00  0.00    -0.313 N 
ATOM      8  C   UNL     1      -3.812   4.309  25.258  0.00  0.00    +0.145 C 
ATOM      9  C   UNL     1      -5.325   2.729  24.203  0.00  0.00    +0.070 C 
ATOM     10  C   UNL     1      -1.711   3.461  24.301  0.00  0.00    +0.075 C 
ATOM     11  C   UNL     1      -5.273   3.833  25.259  0.00  0.00    +0.048 C 
ATOM     12  C   UNL     1      -3.885   2.240  24.132  0.00  0.00    +0.104 C 
ATOM     13  C   UNL     1      -1.271   2.911  25.649  0.00  0.00    +0.123 C 
ATOM     15  C   UNL     1      -3.194   4.151  26.644  0.00  0.00    +0.230 C 
ATOM     35  H   UNL     1      -1.543   3.487  27.665  0.00  0.00    +0.149 HD
ENDROOT
BRANCH   9   5
ATOM      5  N   UNL     1      -6.279   1.679  24.522  0.00  0.00    -0.308 NA
ATOM     36  H   UNL     1      -7.187   2.102  24.717  0.00  0.00    +0.123 HD
BRANCH   5  17
ATOM     17  C   UNL     1      -5.850   0.920  25.690  0.00  0.00    +0.116 C 
BRANCH  17  19
ATOM     19  C   UNL     1      -4.675   0.030  25.379  0.00  0.00    -0.033 A 
ATOM     24  C   UNL     1      -4.749  -0.881  24.325  0.00  0.00    +0.007 A 
ATOM     25  C   UNL     1      -3.512   0.117  26.145  0.00  0.00    +0.007 A 
ATOM     28  C   UNL     1      -3.662  -1.705  24.037  0.00  0.00    +0.023 A 
ATOM     29  C   UNL     1      -2.425  -0.708  25.857  0.00  0.00    +0.023 A 
ATOM     30  C   UNL     1      -2.499  -1.618  24.803  0.00  0.00    +0.029 A 
BRANCH  30   7
ATOM      7  N   UNL     1      -1.400  -2.451  24.513  0.00  0.00    -0.336 N 
ATOM     33  C   UNL     1      -0.154  -2.305  25.240  0.00  0.00    +0.129 C 
ATOM     34  C   UNL     1      -1.497  -3.461  23.476  0.00  0.00    +0.129 C 
ENDBRANCH  30   7
ENDBRANCH  17  19
ENDBRANCH   5  17
ENDBRANCH   9   5
BRANCH  10  14
ATOM     14  C   UNL     1      -1.070   2.680  23.153  0.00  0.00    +0.029 C 
BRANCH  14  16
ATOM     16  C   UNL     1      -0.604   1.296  23.580  0.00  0.00    +0.098 C 
BRANCH  16  18
ATOM      2  O   UNL     1       1.168   1.868  25.048  0.00  0.00    -0.275 OA
ATOM      6  N   UNL     1       1.714   0.683  23.112  0.00  0.00    -0.271 N 
ATOM     18  C   UNL     1       0.849   1.316  23.994  0.00  0.00    +0.220 C 
ATOM     20  C   UNL     1       1.329   0.022  21.849  0.00  0.00    +0.118 C 
ATOM     21  C   UNL     1       3.111   0.565  23.268  0.00  0.00    +0.039 A 
ATOM     22  C   UNL     1       2.603  -0.542  21.208  0.00  0.00    +0.056 C 
ATOM     23  C   UNL     1       3.654  -0.136  22.188  0.00  0.00    -0.024 A 
ATOM     26  C   UNL     1       3.926   1.028  24.290  0.00  0.00    +0.024 A 
ATOM     27  C   UNL     1       5.015  -0.388  22.104  0.00  0.00    +0.005 A 
ATOM     31  C   UNL     1       5.300   0.779  24.212  0.00  0.00    +0.002 A 
ATOM     32  C   UNL     1       5.841   0.076  23.127  0.00  0.00    +0.000 A 
ENDBRANCH  16  18
ENDBRANCH  14  16
ENDBRANCH  10  14
TORSDOF 7
ENDMDL
MODEL 6
REMARK VINA RESULT:       6.6      2.086      7.518
REMARK  Name = 45360647
REMARK  9 active torsions:
REMARK  status: ('A' for Active; 'I' for Inactive)
REMARK    1  A    between atoms: N_5  and  C_9
REMARK    2  A    between atoms: N_5  and  C_17
REMARK    3  A    between atoms: N_7  and  C_30
REMARK    4  A    between atoms: N_7  and  C_33
REMARK    5  A    between atoms: N_7  and  C_34
REMARK    6  A    between atoms: C_10  and  C_14
REMARK    7  A    between atoms: C_14  and  C_16
REMARK    8  A    between atoms: C_16  and  C_18
REMARK    9  A    between atoms: C_17  and  C_19
REMARK                            x       y       z     vdW  Elec       q    Type
REMARK                         _______ _______ _______ _____ _____    ______ ____
ROOT
ATOM      1  O   UNL     1      -3.798  -3.600  25.369  0.00  0.00    -0.274 OA
ATOM      3  N   UNL     1      -2.594  -0.155  25.323  0.00  0.00    -0.286 NA
ATOM      4  N   UNL     1      -2.266  -2.613  24.010  0.00  0.00    -0.313 N 
ATOM      8  C   UNL     1      -3.212  -1.341  25.930  0.00  0.00    +0.145 C 
ATOM      9  C   UNL     1      -4.778   0.488  25.615  0.00  0.00    +0.070 C 
ATOM     10  C   UNL     1      -1.345  -0.422  24.620  0.00  0.00    +0.075 C 
ATOM     11  C   UNL     1      -4.674  -0.933  26.169  0.00  0.00    +0.048 C 
ATOM     12  C   UNL     1      -3.644   0.557  24.600  0.00  0.00    +0.104 C 
ATOM     13  C   UNL     1      -1.552  -1.455  23.522  0.00  0.00    +0.123 C 
ATOM     15  C   UNL     1      -3.138  -2.600  25.072  0.00  0.00    +0.230 C 
ATOM     35  H   UNL     1      -2.209  -3.463  23.459  0.00  0.00    +0.149 HD
ENDROOT
BRANCH   9   5
ATOM      5  N   UNL     1      -6.083   0.785  25.047  0.00  0.00    -0.308 NA
ATOM     36  H   UNL     1      -6.160   0.334  24.134  0.00  0.00    +0.123 HD
BRANCH   5  17
ATOM     17  C   UNL     1      -6.266   2.222  24.882  0.00  0.00    +0.116 C 
BRANCH  17  19
ATOM     19  C   UNL     1      -4.953   2.960  24.905  0.00  0.00    -0.033 A 
ATOM     24  C   UNL     1      -4.460   3.468  26.107  0.00  0.00    +0.007 A 
ATOM     25  C   UNL     1      -4.229   3.135  23.726  0.00  0.00    +0.007 A 
ATOM     28  C   UNL     1      -3.244   4.152  26.130  0.00  0.00    +0.023 A 
ATOM     29  C   UNL     1      -3.015   3.819  23.748  0.00  0.00    +0.023 A 
ATOM     30  C   UNL     1      -2.521   4.327  24.950  0.00  0.00    +0.029 A 
BRANCH  30   7
ATOM      7  N   UNL     1      -1.293   5.018  24.972  0.00  0.00    -0.336 N 
ATOM     33  C   UNL     1      -1.266   6.468  24.988  0.00  0.00    +0.129 C 
ATOM     34  C   UNL     1      -0.040   4.288  24.969  0.00  0.00    +0.129 C 
ENDBRANCH  30   7
ENDBRANCH  17  19
ENDBRANCH   5  17
ENDBRANCH   9   5
BRANCH  10  14
ATOM     14  C   UNL     1      -0.694   0.846  24.064  0.00  0.00    +0.029 C 
BRANCH  14  16
ATOM     16  C   UNL     1       0.195   0.565  22.862  0.00  0.00    +0.098 C 
BRANCH  16  18
ATOM      2  O   UNL     1       1.162  -1.455  23.640  0.00  0.00    -0.275 OA
ATOM      6  N   UNL     1       2.611   0.296  23.109  0.00  0.00    -0.271 N 
ATOM     18  C   UNL     1       1.368  -0.307  23.246  0.00  0.00    +0.220 C 
ATOM     20  C   UNL     1       2.855   1.674  22.635  0.00  0.00    +0.118 C 
ATOM     21  C   UNL     1       3.855  -0.301  23.400  0.00  0.00    +0.039 A 
ATOM     22  C   UNL     1       4.370   1.909  22.639  0.00  0.00    +0.056 C 
ATOM     23  C   UNL     1       4.889   0.601  23.141  0.00  0.00    -0.024 A 
ATOM     26  C   UNL     1       4.131  -1.575  23.873  0.00  0.00    +0.024 A 
ATOM     27  C   UNL     1       6.216   0.255  23.346  0.00  0.00    +0.005 A 
ATOM     31  C   UNL     1       5.467  -1.932  24.084  0.00  0.00    +0.002 A 
ATOM     32  C   UNL     1       6.502  -1.025  23.822  0.00  0.00    +0.000 A 
ENDBRANCH  16  18
ENDBRANCH  14  16
ENDBRANCH  10  14
TORSDOF 7
ENDMDL
MODEL 7
REMARK VINA RESULT:       6.9      2.475      5.846
REMARK  Name = 45360647
REMARK  9 active torsions:
REMARK  status: ('A' for Active; 'I' for Inactive)
REMARK    1  A    between atoms: N_5  and  C_9
REMARK    2  A    between atoms: N_5  and  C_17
REMARK    3  A    between atoms: N_7  and  C_30
REMARK    4  A    between atoms: N_7  and  C_33
REMARK    5  A    between atoms: N_7  and  C_34
REMARK    6  A    between atoms: C_10  and  C_14
REMARK    7  A    between atoms: C_14  and  C_16
REMARK    8  A    between atoms: C_16  and  C_18
REMARK    9  A    between atoms: C_17  and  C_19
REMARK                            x       y       z     vdW  Elec       q    Type
REMARK                         _______ _______ _______ _____ _____    ______ ____
ROOT
ATOM      1  O   UNL     1      -0.263  -0.630  27.618  0.00  0.00    -0.274 OA
ATOM      3  N   UNL     1      -1.423  -2.334  24.606  0.00  0.00    -0.286 NA
ATOM      4  N   UNL     1      -2.382  -0.996  26.878  0.00  0.00    -0.313 N 
ATOM      8  C   UNL     1      -0.460  -2.016  25.668  0.00  0.00    +0.145 C 
ATOM      9  C   UNL     1       0.245  -1.231  23.481  0.00  0.00    +0.070 C 
ATOM     10  C   UNL     1      -2.771  -2.623  25.084  0.00  0.00    +0.075 C 
ATOM     11  C   UNL     1       0.690  -1.301  24.942  0.00  0.00    +0.048 C 
ATOM     12  C   UNL     1      -1.272  -1.318  23.568  0.00  0.00    +0.104 C 
ATOM     13  C   UNL     1      -3.324  -1.453  25.883  0.00  0.00    +0.123 C 
ATOM     15  C   UNL     1      -1.019  -1.139  26.785  0.00  0.00    +0.230 C 
ATOM     35  H   UNL     1      -2.743  -0.428  27.638  0.00  0.00    +0.149 HD
ENDROOT
BRANCH   9   5
ATOM      5  N   UNL     1       0.719  -0.038  22.797  0.00  0.00    -0.308 NA
ATOM     36  H   UNL     1       1.348  -0.315  22.042  0.00  0.00    +0.123 HD
BRANCH   5  17
ATOM     17  C   UNL     1       1.437   0.839  23.714  0.00  0.00    +0.116 C 
BRANCH  17  19
ATOM     19  C   UNL     1       0.549   1.925  24.261  0.00  0.00    -0.033 A 
ATOM     24  C   UNL     1      -0.132   1.730  25.463  0.00  0.00    +0.007 A 
ATOM     25  C   UNL     1       0.408   3.127  23.567  0.00  0.00    +0.007 A 
ATOM     28  C   UNL     1      -0.954   2.736  25.971  0.00  0.00    +0.023 A 
ATOM     29  C   UNL     1      -0.415   4.132  24.074  0.00  0.00    +0.023 A 
ATOM     30  C   UNL     1      -1.096   3.937  25.276  0.00  0.00    +0.029 A 
BRANCH  30   7
ATOM      7  N   UNL     1      -1.928   4.954  25.788  0.00  0.00    -0.336 N 
ATOM     33  C   UNL     1      -2.794   4.694  26.921  0.00  0.00    +0.129 C 
ATOM     34  C   UNL     1      -1.934   6.271  25.182  0.00  0.00    +0.129 C 
ENDBRANCH  30   7
ENDBRANCH  17  19
ENDBRANCH   5  17
ENDBRANCH   9   5
BRANCH  10  14
ATOM     14  C   UNL     1      -3.727  -3.021  23.958  0.00  0.00    +0.029 C 
BRANCH  14  16
ATOM     16  C   UNL     1      -4.109  -1.841  23.077  0.00  0.00    +0.098 C 
BRANCH  16  18
ATOM      2  O   UNL     1      -5.722  -1.086  24.642  0.00  0.00    -0.275 OA
ATOM      6  N   UNL     1      -4.334   0.519  23.668  0.00  0.00    -0.271 N 
ATOM     18  C   UNL     1      -4.809  -0.768  23.879  0.00  0.00    +0.220 C 
ATOM     20  C   UNL     1      -3.238   0.896  22.751  0.00  0.00    +0.118 C 
ATOM     21  C   UNL     1      -4.816   1.689  24.290  0.00  0.00    +0.039 A 
ATOM     22  C   UNL     1      -3.052   2.415  22.846  0.00  0.00    +0.056 C 
ATOM     23  C   UNL     1      -4.099   2.800  23.839  0.00  0.00    -0.024 A 
ATOM     26  C   UNL     1      -5.834   1.837  25.221  0.00  0.00    +0.024 A 
ATOM     27  C   UNL     1      -4.380   4.076  24.302  0.00  0.00    +0.005 A 
ATOM     31  C   UNL     1      -6.125   3.121  25.693  0.00  0.00    +0.002 A 
ATOM     32  C   UNL     1      -5.403   4.233  25.237  0.00  0.00    +0.000 A 
ENDBRANCH  16  18
ENDBRANCH  14  16
ENDBRANCH  10  14
TORSDOF 7
ENDMDL
MODEL 8
REMARK VINA RESULT:       6.9      2.241      4.031
REMARK  Name = 45360647
REMARK  9 active torsions:
REMARK  status: ('A' for Active; 'I' for Inactive)
REMARK    1  A    between atoms: N_5  and  C_9
REMARK    2  A    between atoms: N_5  and  C_17
REMARK    3  A    between atoms: N_7  and  C_30
REMARK    4  A    between atoms: N_7  and  C_33
REMARK    5  A    between atoms: N_7  and  C_34
REMARK    6  A    between atoms: C_10  and  C_14
REMARK    7  A    between atoms: C_14  and  C_16
REMARK    8  A    between atoms: C_16  and  C_18
REMARK    9  A    between atoms: C_17  and  C_19
REMARK                            x       y       z     vdW  Elec       q    Type
REMARK                         _______ _______ _______ _____ _____    ______ ____
ROOT
ATOM      1  O   UNL     1      -0.726  -0.773  26.792  0.00  0.00    -0.274 OA
ATOM      3  N   UNL     1      -1.039   2.178  24.668  0.00  0.00    -0.286 NA
ATOM      4  N   UNL     1       0.113   1.321  27.079  0.00  0.00    -0.313 N 
ATOM      8  C   UNL     1      -1.434   0.861  25.183  0.00  0.00    +0.145 C 
ATOM      9  C   UNL     1      -0.662   0.787  22.882  0.00  0.00    +0.070 C 
ATOM     10  C   UNL     1      -0.742   3.163  25.702  0.00  0.00    +0.075 C 
ATOM     11  C   UNL     1      -1.223  -0.094  23.998  0.00  0.00    +0.048 C 
ATOM     12  C   UNL     1      -0.034   1.953  23.633  0.00  0.00    +0.104 C 
ATOM     13  C   UNL     1       0.366   2.667  26.619  0.00  0.00    +0.123 C 
ATOM     15  C   UNL     1      -0.639   0.394  26.399  0.00  0.00    +0.230 C 
ATOM     35  H   UNL     1       0.620   1.003  27.898  0.00  0.00    +0.149 HD
ENDROOT
BRANCH   9   5
ATOM      5  N   UNL     1       0.271   0.086  22.015  0.00  0.00    -0.308 NA
ATOM     36  H   UNL     1      -0.245  -0.338  21.243  0.00  0.00    +0.123 HD
BRANCH   5  17
ATOM     17  C   UNL     1       0.976  -0.962  22.745  0.00  0.00    +0.116 C 
BRANCH  17  19
ATOM     19  C   UNL     1       2.426  -0.617  22.959  0.00  0.00    -0.033 A 
ATOM     24  C   UNL     1       3.257  -1.497  23.652  0.00  0.00    +0.007 A 
ATOM     25  C   UNL     1       2.939   0.582  22.464  0.00  0.00    +0.007 A 
ATOM     28  C   UNL     1       4.601  -1.179  23.851  0.00  0.00    +0.023 A 
ATOM     29  C   UNL     1       4.282   0.901  22.663  0.00  0.00    +0.023 A 
ATOM     30  C   UNL     1       5.113   0.021  23.356  0.00  0.00    +0.029 A 
BRANCH  30   7
ATOM      7  N   UNL     1       6.470   0.344  23.556  0.00  0.00    -0.336 N 
ATOM     33  C   UNL     1       7.515  -0.484  22.986  0.00  0.00    +0.129 C 
ATOM     34  C   UNL     1       6.840   1.504  24.343  0.00  0.00    +0.129 C 
ENDBRANCH  30   7
ENDBRANCH  17  19
ENDBRANCH   5  17
ENDBRANCH   9   5
BRANCH  10  14
ATOM     14  C   UNL     1      -0.405   4.541  25.130  0.00  0.00    +0.029 C 
BRANCH  14  16
ATOM     16  C   UNL     1      -1.616   5.460  25.077  0.00  0.00    +0.098 C 
BRANCH  16  18
ATOM      2  O   UNL     1      -3.149   5.092  26.848  0.00  0.00    -0.275 OA
ATOM      6  N   UNL     1      -3.483   3.898  24.870  0.00  0.00    -0.271 N 
ATOM     18  C   UNL     1      -2.827   4.801  25.695  0.00  0.00    +0.220 C 
ATOM     20  C   UNL     1      -3.094   3.551  23.487  0.00  0.00    +0.118 C 
ATOM     21  C   UNL     1      -4.632   3.153  25.208  0.00  0.00    +0.039 A 
ATOM     22  C   UNL     1      -4.102   2.522  22.962  0.00  0.00    +0.056 C 
ATOM     23  C   UNL     1      -5.015   2.351  24.131  0.00  0.00    -0.024 A 
ATOM     26  C   UNL     1      -5.356   3.140  26.391  0.00  0.00    +0.024 A 
ATOM     27  C   UNL     1      -6.122   1.520  24.210  0.00  0.00    +0.005 A 
ATOM     31  C   UNL     1      -6.474   2.304  26.479  0.00  0.00    +0.002 A 
ATOM     32  C   UNL     1      -6.855   1.499  25.397  0.00  0.00    +0.000 A 
ENDBRANCH  16  18
ENDBRANCH  14  16
ENDBRANCH  10  14
TORSDOF 7
ENDMDL
