MODEL 1
REMARK VINA RESULT:      -4.8      0.000      0.000
REMARK  Name = 25390218
REMARK  14 active torsions:
REMARK  status: ('A' for Active; 'I' for Inactive)
REMARK    1  A    between atoms: O_2  and  C_8
REMARK    2  A    between atoms: O_3  and  C_10
REMARK    3  A    between atoms: N_6  and  C_12
REMARK    4  A    between atoms: N_7  and  C_19
REMARK    5  A    between atoms: N_7  and  C_20
REMARK    6  A    between atoms: C_9  and  C_12
REMARK    7  A    between atoms: C_11  and  C_13
REMARK    8  A    between atoms: C_13  and  C_14
REMARK    9  A    between atoms: C_15  and  C_16
REMARK   10  A    between atoms: C_15  and  C_17
REMARK   11  A    between atoms: C_15  and  C_18
REMARK   12  A    between atoms: C_17  and  C_21
REMARK   13  A    between atoms: C_18  and  C_22
REMARK   14  A    between atoms: C_19  and  C_23
REMARK                            x       y       z     vdW  Elec       q    Type
REMARK                         _______ _______ _______ _____ _____    ______ ____
ROOT
ATOM      1  O   UNL     1      -0.240   3.643  24.459  0.00  0.00    -0.366 OA
ATOM      8  C   UNL     1      -0.908   1.628  25.486  0.00  0.00    +0.176 C 
ATOM      9  C   UNL     1       0.212   2.301  24.710  0.00  0.00    +0.167 C 
ATOM     10  C   UNL     1      -1.421   2.775  26.333  0.00  0.00    +0.175 C 
ATOM     11  C   UNL     1      -1.323   3.951  25.366  0.00  0.00    +0.159 C 
ENDROOT
BRANCH   8   2
ATOM      2  O   UNL     1      -0.443   0.535  26.249  0.00  0.00    -0.387 OA
ATOM     30  H   UNL     1       0.352   0.189  25.807  0.00  0.00    +0.210 HD
ENDBRANCH   8   2
BRANCH  10   3
ATOM      3  O   UNL     1      -0.534   3.022  27.422  0.00  0.00    -0.387 OA
ATOM     31  H   UNL     1      -0.749   2.382  28.122  0.00  0.00    +0.210 HD
ENDBRANCH  10   3
BRANCH   9  12
ATOM     12  C   UNL     1       0.528   1.613  23.393  0.00  0.00    +0.138 C 
BRANCH  12   6
ATOM      5  O   UNL     1       1.582  -0.324  21.550  0.00  0.00    -0.276 OA
ATOM      6  N   UNL     1       1.857   1.048  23.398  0.00  0.00    -0.313 N 
ATOM     16  C   UNL     1       2.278   0.115  22.463  0.00  0.00    +0.216 C 
ATOM     29  H   UNL     1       2.499   1.357  24.123  0.00  0.00    +0.149 HD
BRANCH  16  15
ATOM     15  C   UNL     1       3.724  -0.338  22.696  0.00  0.00    +0.074 C 
BRANCH  15  17
ATOM     17  C   UNL     1       3.834  -1.363  23.838  0.00  0.00    +0.009 C 
ATOM     21  C   UNL     1       5.173  -2.091  23.838  0.00  0.00    +0.004 C 
ENDBRANCH  15  17
BRANCH  15  18
ATOM     18  C   UNL     1       4.633   0.886  22.928  0.00  0.00    +0.009 C 
ATOM     22  C   UNL     1       5.704   0.692  23.994  0.00  0.00    +0.004 C 
ENDBRANCH  15  18
ENDBRANCH  16  15
ENDBRANCH  12   6
ENDBRANCH   9  12
BRANCH  11  13
ATOM     13  C   UNL     1      -2.584   4.148  24.537  0.00  0.00    +0.130 C 
BRANCH  13  14
ATOM      4  O   UNL     1      -4.390   3.433  25.940  0.00  0.00    -0.276 OA
ATOM      7  N   UNL     1      -3.899   2.086  24.118  0.00  0.00    -0.300 N 
ATOM     14  C   UNL     1      -3.707   3.201  24.940  0.00  0.00    +0.218 C 
ATOM     20  C   UNL     1      -3.079   1.832  22.939  0.00  0.00    +0.132 C 
BRANCH   7  19
ATOM     19  C   UNL     1      -4.938   1.091  24.378  0.00  0.00    +0.142 C 
BRANCH  19  23
ATOM     23  C   UNL     1      -4.360  -0.270  24.639  0.00  0.00    -0.030 A 
ATOM     24  C   UNL     1      -3.699  -0.527  25.841  0.00  0.00    +0.005 A 
ATOM     25  C   UNL     1      -4.485  -1.277  23.683  0.00  0.00    +0.005 A 
ATOM     26  C   UNL     1      -3.163  -1.791  26.085  0.00  0.00    +0.000 A 
ATOM     27  C   UNL     1      -3.948  -2.540  23.927  0.00  0.00    +0.000 A 
ATOM     28  C   UNL     1      -3.287  -2.798  25.128  0.00  0.00    +0.000 A 
ENDBRANCH  19  23
ENDBRANCH   7  19
ENDBRANCH  13  14
ENDBRANCH  11  13
TORSDOF 11
ENDMDL
MODEL 2
REMARK VINA RESULT:      -4.3      1.470      6.543
REMARK  Name = 25390218
REMARK  14 active torsions:
REMARK  status: ('A' for Active; 'I' for Inactive)
REMARK    1  A    between atoms: O_2  and  C_8
REMARK    2  A    between atoms: O_3  and  C_10
REMARK    3  A    between atoms: N_6  and  C_12
REMARK    4  A    between atoms: N_7  and  C_19
REMARK    5  A    between atoms: N_7  and  C_20
REMARK    6  A    between atoms: C_9  and  C_12
REMARK    7  A    between atoms: C_11  and  C_13
REMARK    8  A    between atoms: C_13  and  C_14
REMARK    9  A    between atoms: C_15  and  C_16
REMARK   10  A    between atoms: C_15  and  C_17
REMARK   11  A    between atoms: C_15  and  C_18
REMARK   12  A    between atoms: C_17  and  C_21
REMARK   13  A    between atoms: C_18  and  C_22
REMARK   14  A    between atoms: C_19  and  C_23
REMARK                            x       y       z     vdW  Elec       q    Type
REMARK                         _______ _______ _______ _____ _____    ______ ____
ROOT
ATOM      1  O   UNL     1      -2.353   3.100  26.475  0.00  0.00    -0.366 OA
ATOM      8  C   UNL     1      -2.705   3.898  24.284  0.00  0.00    +0.176 C 
ATOM      9  C   UNL     1      -3.309   3.818  25.676  0.00  0.00    +0.167 C 
ATOM     10  C   UNL     1      -1.230   4.042  24.602  0.00  0.00    +0.175 C 
ATOM     11  C   UNL     1      -1.073   3.117  25.804  0.00  0.00    +0.159 C 
ENDROOT
BRANCH   8   2
ATOM      2  O   UNL     1      -3.225   4.978  23.540  0.00  0.00    -0.387 OA
ATOM     30  H   UNL     1      -2.476   5.542  23.283  0.00  0.00    +0.210 HD
ENDBRANCH   8   2
BRANCH  10   3
ATOM      3  O   UNL     1      -0.944   5.374  25.027  0.00  0.00    -0.387 OA
ATOM     31  H   UNL     1      -1.377   5.978  24.400  0.00  0.00    +0.210 HD
ENDBRANCH  10   3
BRANCH   9  12
ATOM     12  C   UNL     1      -4.647   3.100  25.710  0.00  0.00    +0.138 C 
BRANCH  12   6
ATOM      5  O   UNL     1      -4.067   1.336  23.517  0.00  0.00    -0.276 OA
ATOM      6  N   UNL     1      -4.476   1.668  25.775  0.00  0.00    -0.313 N 
ATOM     16  C   UNL     1      -4.196   0.896  24.657  0.00  0.00    +0.216 C 
ATOM     29  H   UNL     1      -4.569   1.221  26.683  0.00  0.00    +0.149 HD
BRANCH  16  15
ATOM     15  C   UNL     1      -4.079  -0.596  24.989  0.00  0.00    +0.074 C 
BRANCH  15  17
ATOM     17  C   UNL     1      -2.841  -0.904  25.851  0.00  0.00    +0.009 C 
ATOM     21  C   UNL     1      -3.176  -1.768  27.060  0.00  0.00    +0.004 C 
ENDBRANCH  15  17
BRANCH  15  18
ATOM     18  C   UNL     1      -4.102  -1.432  23.693  0.00  0.00    +0.009 C 
ATOM     22  C   UNL     1      -4.086  -2.940  23.907  0.00  0.00    +0.004 C 
ENDBRANCH  15  18
ENDBRANCH  16  15
ENDBRANCH  12   6
ENDBRANCH   9  12
BRANCH  11  13
ATOM     13  C   UNL     1      -0.731   1.686  25.414  0.00  0.00    +0.130 C 
BRANCH  13  14
ATOM      4  O   UNL     1       0.785   2.628  23.816  0.00  0.00    -0.276 OA
ATOM      7  N   UNL     1       0.417   0.344  23.670  0.00  0.00    -0.300 N 
ATOM     14  C   UNL     1       0.227   1.611  24.231  0.00  0.00    +0.218 C 
ATOM     20  C   UNL     1      -0.255  -0.846  24.178  0.00  0.00    +0.132 C 
BRANCH   7  19
ATOM     19  C   UNL     1       1.305   0.116  22.532  0.00  0.00    +0.142 C 
BRANCH  19  23
ATOM     23  C   UNL     1       2.737  -0.036  22.958  0.00  0.00    -0.030 A 
ATOM     24  C   UNL     1       3.176  -1.242  23.505  0.00  0.00    +0.005 A 
ATOM     25  C   UNL     1       3.627   1.026  22.804  0.00  0.00    +0.005 A 
ATOM     26  C   UNL     1       4.506  -1.385  23.900  0.00  0.00    +0.000 A 
ATOM     27  C   UNL     1       4.957   0.883  23.199  0.00  0.00    +0.000 A 
ATOM     28  C   UNL     1       5.397  -0.322  23.748  0.00  0.00    +0.000 A 
ENDBRANCH  19  23
ENDBRANCH   7  19
ENDBRANCH  13  14
ENDBRANCH  11  13
TORSDOF 11
ENDMDL
MODEL 3
REMARK VINA RESULT:      -4.2      1.889      4.425
REMARK  Name = 25390218
REMARK  14 active torsions:
REMARK  status: ('A' for Active; 'I' for Inactive)
REMARK    1  A    between atoms: O_2  and  C_8
REMARK    2  A    between atoms: O_3  and  C_10
REMARK    3  A    between atoms: N_6  and  C_12
REMARK    4  A    between atoms: N_7  and  C_19
REMARK    5  A    between atoms: N_7  and  C_20
REMARK    6  A    between atoms: C_9  and  C_12
REMARK    7  A    between atoms: C_11  and  C_13
REMARK    8  A    between atoms: C_13  and  C_14
REMARK    9  A    between atoms: C_15  and  C_16
REMARK   10  A    between atoms: C_15  and  C_17
REMARK   11  A    between atoms: C_15  and  C_18
REMARK   12  A    between atoms: C_17  and  C_21
REMARK   13  A    between atoms: C_18  and  C_22
REMARK   14  A    between atoms: C_19  and  C_23
REMARK                            x       y       z     vdW  Elec       q    Type
REMARK                         _______ _______ _______ _____ _____    ______ ____
ROOT
ATOM      1  O   UNL     1      -2.896  -0.101  25.704  0.00  0.00    -0.366 OA
ATOM      8  C   UNL     1      -2.049  -1.537  24.036  0.00  0.00    +0.176 C 
ATOM      9  C   UNL     1      -1.664  -0.658  25.215  0.00  0.00    +0.167 C 
ATOM     10  C   UNL     1      -3.384  -2.090  24.494  0.00  0.00    +0.175 C 
ATOM     11  C   UNL     1      -4.000  -0.887  25.200  0.00  0.00    +0.159 C 
ENDROOT
BRANCH   8   2
ATOM      2  O   UNL     1      -1.087  -2.537  23.782  0.00  0.00    -0.387 OA
ATOM     30  H   UNL     1      -0.905  -2.987  24.625  0.00  0.00    +0.210 HD
ENDBRANCH   8   2
BRANCH  10   3
ATOM      3  O   UNL     1      -3.187  -3.119  25.462  0.00  0.00    -0.387 OA
ATOM     31  H   UNL     1      -3.297  -2.717  26.340  0.00  0.00    +0.210 HD
ENDBRANCH  10   3
BRANCH   9  12
ATOM     12  C   UNL     1      -0.707   0.461  24.843  0.00  0.00    +0.138 C 
BRANCH  12   6
ATOM      5  O   UNL     1       1.434   2.008  23.713  0.00  0.00    -0.276 OA
ATOM      6  N   UNL     1       0.464  -0.047  24.168  0.00  0.00    -0.313 N 
ATOM     16  C   UNL     1       1.450   0.781  23.653  0.00  0.00    +0.216 C 
ATOM     29  H   UNL     1       0.555  -1.055  24.073  0.00  0.00    +0.149 HD
BRANCH  16  15
ATOM     15  C   UNL     1       2.577  -0.003  22.971  0.00  0.00    +0.074 C 
BRANCH  15  17
ATOM     17  C   UNL     1       3.932   0.719  23.075  0.00  0.00    +0.009 C 
ATOM     21  C   UNL     1       5.055  -0.214  23.514  0.00  0.00    +0.004 C 
ENDBRANCH  15  17
BRANCH  15  18
ATOM     18  C   UNL     1       2.198  -0.312  21.508  0.00  0.00    +0.009 C 
ATOM     22  C   UNL     1       0.728  -0.645  21.287  0.00  0.00    +0.004 C 
ENDBRANCH  15  18
ENDBRANCH  16  15
ENDBRANCH  12   6
ENDBRANCH   9  12
BRANCH  11  13
ATOM     13  C   UNL     1      -4.816  -0.002  24.269  0.00  0.00    +0.130 C 
BRANCH  13  14
ATOM      4  O   UNL     1      -3.469   1.815  23.478  0.00  0.00    -0.276 OA
ATOM      7  N   UNL     1      -4.949   2.296  25.197  0.00  0.00    -0.300 N 
ATOM     14  C   UNL     1      -4.342   1.446  24.267  0.00  0.00    +0.218 C 
ATOM     20  C   UNL     1      -5.979   1.837  26.121  0.00  0.00    +0.132 C 
BRANCH   7  19
ATOM     19  C   UNL     1      -4.598   3.710  25.312  0.00  0.00    +0.142 C 
BRANCH  19  23
ATOM     23  C   UNL     1      -3.111   3.918  25.355  0.00  0.00    -0.030 A 
ATOM     24  C   UNL     1      -2.322   3.136  26.199  0.00  0.00    +0.005 A 
ATOM     25  C   UNL     1      -2.519   4.892  24.552  0.00  0.00    +0.005 A 
ATOM     26  C   UNL     1      -0.942   3.328  26.240  0.00  0.00    +0.000 A 
ATOM     27  C   UNL     1      -1.139   5.084  24.592  0.00  0.00    +0.000 A 
ATOM     28  C   UNL     1      -0.349   4.303  25.436  0.00  0.00    +0.000 A 
ENDBRANCH  19  23
ENDBRANCH   7  19
ENDBRANCH  13  14
ENDBRANCH  11  13
TORSDOF 11
ENDMDL
MODEL 4
REMARK VINA RESULT:      -4.1      1.455      2.358
REMARK  Name = 25390218
REMARK  14 active torsions:
REMARK  status: ('A' for Active; 'I' for Inactive)
REMARK    1  A    between atoms: O_2  and  C_8
REMARK    2  A    between atoms: O_3  and  C_10
REMARK    3  A    between atoms: N_6  and  C_12
REMARK    4  A    between atoms: N_7  and  C_19
REMARK    5  A    between atoms: N_7  and  C_20
REMARK    6  A    between atoms: C_9  and  C_12
REMARK    7  A    between atoms: C_11  and  C_13
REMARK    8  A    between atoms: C_13  and  C_14
REMARK    9  A    between atoms: C_15  and  C_16
REMARK   10  A    between atoms: C_15  and  C_17
REMARK   11  A    between atoms: C_15  and  C_18
REMARK   12  A    between atoms: C_17  and  C_21
REMARK   13  A    between atoms: C_18  and  C_22
REMARK   14  A    between atoms: C_19  and  C_23
REMARK                            x       y       z     vdW  Elec       q    Type
REMARK                         _______ _______ _______ _____ _____    ______ ____
ROOT
ATOM      1  O   UNL     1      -1.638   2.815  23.527  0.00  0.00    -0.366 OA
ATOM      8  C   UNL     1      -0.811   2.915  25.734  0.00  0.00    +0.176 C 
ATOM      9  C   UNL     1      -0.589   2.296  24.363  0.00  0.00    +0.167 C 
ATOM     10  C   UNL     1      -1.322   4.293  25.364  0.00  0.00    +0.175 C 
ATOM     11  C   UNL     1      -2.198   3.992  24.153  0.00  0.00    +0.159 C 
ENDROOT
BRANCH   8   2
ATOM      2  O   UNL     1       0.373   2.945  26.500  0.00  0.00    -0.387 OA
ATOM     30  H   UNL     1       0.205   2.442  27.315  0.00  0.00    +0.210 HD
ENDBRANCH   8   2
BRANCH  10   3
ATOM      3  O   UNL     1      -0.244   5.122  24.936  0.00  0.00    -0.387 OA
ATOM     31  H   UNL     1      -0.512   5.539  24.099  0.00  0.00    +0.210 HD
ENDBRANCH  10   3
BRANCH   9  12
ATOM     12  C   UNL     1      -0.645   0.779  24.373  0.00  0.00    +0.138 C 
BRANCH  12   6
ATOM      5  O   UNL     1       1.797   2.157  23.746  0.00  0.00    -0.276 OA
ATOM      6  N   UNL     1       0.553   0.202  23.810  0.00  0.00    -0.313 N 
ATOM     16  C   UNL     1       1.689   0.950  23.541  0.00  0.00    +0.216 C 
ATOM     29  H   UNL     1       0.549  -0.794  23.608  0.00  0.00    +0.149 HD
BRANCH  16  15
ATOM     15  C   UNL     1       2.816   0.108  22.933  0.00  0.00    +0.074 C 
BRANCH  15  17
ATOM     17  C   UNL     1       4.189   0.787  23.071  0.00  0.00    +0.009 C 
ATOM     21  C   UNL     1       5.268  -0.176  23.551  0.00  0.00    +0.004 C 
ENDBRANCH  15  17
BRANCH  15  18
ATOM     18  C   UNL     1       2.487  -0.237  21.465  0.00  0.00    +0.009 C 
ATOM     22  C   UNL     1       1.049  -0.675  21.220  0.00  0.00    +0.004 C 
ENDBRANCH  15  18
ENDBRANCH  16  15
ENDBRANCH  12   6
ENDBRANCH   9  12
BRANCH  11  13
ATOM     13  C   UNL     1      -3.642   3.681  24.524  0.00  0.00    +0.130 C 
BRANCH  13  14
ATOM      4  O   UNL     1      -3.611   1.804  23.034  0.00  0.00    -0.276 OA
ATOM      7  N   UNL     1      -5.036   1.655  24.857  0.00  0.00    -0.300 N 
ATOM     14  C   UNL     1      -4.084   2.298  24.060  0.00  0.00    +0.218 C 
ATOM     20  C   UNL     1      -5.582   2.259  26.066  0.00  0.00    +0.132 C 
BRANCH   7  19
ATOM     19  C   UNL     1      -5.555   0.326  24.539  0.00  0.00    +0.142 C 
BRANCH  19  23
ATOM     23  C   UNL     1      -4.513  -0.741  24.713  0.00  0.00    -0.030 A 
ATOM     24  C   UNL     1      -4.425  -1.786  23.792  0.00  0.00    +0.005 A 
ATOM     25  C   UNL     1      -3.634  -0.688  25.794  0.00  0.00    +0.005 A 
ATOM     26  C   UNL     1      -3.458  -2.777  23.953  0.00  0.00    +0.000 A 
ATOM     27  C   UNL     1      -2.667  -1.680  25.955  0.00  0.00    +0.000 A 
ATOM     28  C   UNL     1      -2.579  -2.725  25.035  0.00  0.00    +0.000 A 
ENDBRANCH  19  23
ENDBRANCH   7  19
ENDBRANCH  13  14
ENDBRANCH  11  13
TORSDOF 11
ENDMDL
MODEL 5
REMARK VINA RESULT:      -3.0      1.779      6.005
REMARK  Name = 25390218
REMARK  14 active torsions:
REMARK  status: ('A' for Active; 'I' for Inactive)
REMARK    1  A    between atoms: O_2  and  C_8
REMARK    2  A    between atoms: O_3  and  C_10
REMARK    3  A    between atoms: N_6  and  C_12
REMARK    4  A    between atoms: N_7  and  C_19
REMARK    5  A    between atoms: N_7  and  C_20
REMARK    6  A    between atoms: C_9  and  C_12
REMARK    7  A    between atoms: C_11  and  C_13
REMARK    8  A    between atoms: C_13  and  C_14
REMARK    9  A    between atoms: C_15  and  C_16
REMARK   10  A    between atoms: C_15  and  C_17
REMARK   11  A    between atoms: C_15  and  C_18
REMARK   12  A    between atoms: C_17  and  C_21
REMARK   13  A    between atoms: C_18  and  C_22
REMARK   14  A    between atoms: C_19  and  C_23
REMARK                            x       y       z     vdW  Elec       q    Type
REMARK                         _______ _______ _______ _____ _____    ______ ____
ROOT
ATOM      1  O   UNL     1      -2.799   1.972  25.448  0.00  0.00    -0.366 OA
ATOM      8  C   UNL     1      -4.533   3.538  25.130  0.00  0.00    +0.176 C 
ATOM      9  C   UNL     1      -4.229   2.104  25.530  0.00  0.00    +0.167 C 
ATOM     10  C   UNL     1      -3.341   4.274  25.708  0.00  0.00    +0.175 C 
ATOM     11  C   UNL     1      -2.205   3.290  25.448  0.00  0.00    +0.159 C 
ENDROOT
BRANCH   8   2
ATOM      2  O   UNL     1      -5.768   3.983  25.646  0.00  0.00    -0.387 OA
ATOM     30  H   UNL     1      -6.471   3.519  25.160  0.00  0.00    +0.210 HD
ENDBRANCH   8   2
BRANCH  10   3
ATOM      3  O   UNL     1      -3.486   4.419  27.119  0.00  0.00    -0.387 OA
ATOM     31  H   UNL     1      -4.021   3.670  27.435  0.00  0.00    +0.210 HD
ENDBRANCH  10   3
BRANCH   9  12
ATOM     12  C   UNL     1      -4.890   1.075  24.631  0.00  0.00    +0.138 C 
BRANCH  12   6
ATOM      5  O   UNL     1      -3.881  -1.088  26.231  0.00  0.00    -0.276 OA
ATOM      6  N   UNL     1      -3.954   0.056  24.217  0.00  0.00    -0.313 N 
ATOM     16  C   UNL     1      -3.523  -0.954  25.063  0.00  0.00    +0.216 C 
ATOM     29  H   UNL     1      -3.606   0.094  23.263  0.00  0.00    +0.149 HD
BRANCH  16  15
ATOM     15  C   UNL     1      -2.520  -1.896  24.389  0.00  0.00    +0.074 C 
BRANCH  15  17
ATOM     17  C   UNL     1      -3.104  -3.302  24.165  0.00  0.00    +0.009 C 
ATOM     21  C   UNL     1      -4.500  -3.261  23.555  0.00  0.00    +0.004 C 
ENDBRANCH  15  17
BRANCH  15  18
ATOM     18  C   UNL     1      -1.206  -1.939  25.196  0.00  0.00    +0.009 C 
ATOM     22  C   UNL     1      -1.041  -0.810  26.205  0.00  0.00    +0.004 C 
ENDBRANCH  15  18
ENDBRANCH  16  15
ENDBRANCH  12   6
ENDBRANCH   9  12
BRANCH  11  13
ATOM     13  C   UNL     1      -1.534   3.499  24.097  0.00  0.00    +0.130 C 
BRANCH  13  14
ATOM      4  O   UNL     1      -1.962   1.745  22.522  0.00  0.00    -0.276 OA
ATOM      7  N   UNL     1      -0.033   1.545  23.794  0.00  0.00    -0.300 N 
ATOM     14  C   UNL     1      -1.209   2.187  23.393  0.00  0.00    +0.218 C 
ATOM     20  C   UNL     1       0.842   2.088  24.826  0.00  0.00    +0.132 C 
BRANCH   7  19
ATOM     19  C   UNL     1       0.408   0.281  23.208  0.00  0.00    +0.142 C 
BRANCH  19  23
ATOM     23  C   UNL     1       1.905   0.161  23.190  0.00  0.00    -0.030 A 
ATOM     24  C   UNL     1       2.684   1.238  22.766  0.00  0.00    +0.005 A 
ATOM     25  C   UNL     1       2.515  -1.025  23.596  0.00  0.00    +0.005 A 
ATOM     26  C   UNL     1       4.074   1.128  22.749  0.00  0.00    +0.000 A 
ATOM     27  C   UNL     1       3.905  -1.134  23.579  0.00  0.00    +0.000 A 
ATOM     28  C   UNL     1       4.685  -0.058  23.155  0.00  0.00    +0.000 A 
ENDBRANCH  19  23
ENDBRANCH   7  19
ENDBRANCH  13  14
ENDBRANCH  11  13
TORSDOF 11
ENDMDL
MODEL 6
REMARK VINA RESULT:      -2.9      1.580      6.954
REMARK  Name = 25390218
REMARK  14 active torsions:
REMARK  status: ('A' for Active; 'I' for Inactive)
REMARK    1  A    between atoms: O_2  and  C_8
REMARK    2  A    between atoms: O_3  and  C_10
REMARK    3  A    between atoms: N_6  and  C_12
REMARK    4  A    between atoms: N_7  and  C_19
REMARK    5  A    between atoms: N_7  and  C_20
REMARK    6  A    between atoms: C_9  and  C_12
REMARK    7  A    between atoms: C_11  and  C_13
REMARK    8  A    between atoms: C_13  and  C_14
REMARK    9  A    between atoms: C_15  and  C_16
REMARK   10  A    between atoms: C_15  and  C_17
REMARK   11  A    between atoms: C_15  and  C_18
REMARK   12  A    between atoms: C_17  and  C_21
REMARK   13  A    between atoms: C_18  and  C_22
REMARK   14  A    between atoms: C_19  and  C_23
REMARK                            x       y       z     vdW  Elec       q    Type
REMARK                         _______ _______ _______ _____ _____    ______ ____
ROOT
ATOM      1  O   UNL     1      -1.811   2.133  26.507  0.00  0.00    -0.366 OA
ATOM      8  C   UNL     1      -0.599   3.422  24.947  0.00  0.00    +0.176 C 
ATOM      9  C   UNL     1      -1.618   3.491  26.072  0.00  0.00    +0.167 C 
ATOM     10  C   UNL     1       0.299   2.297  25.420  0.00  0.00    +0.175 C 
ATOM     11  C   UNL     1      -0.704   1.329  26.039  0.00  0.00    +0.159 C 
ENDROOT
BRANCH   8   2
ATOM      2  O   UNL     1       0.082   4.645  24.772  0.00  0.00    -0.387 OA
ATOM     30  H   UNL     1      -0.522   5.252  24.311  0.00  0.00    +0.210 HD
ENDBRANCH   8   2
BRANCH  10   3
ATOM      3  O   UNL     1       1.166   2.758  26.455  0.00  0.00    -0.387 OA
ATOM     31  H   UNL     1       0.644   2.798  27.275  0.00  0.00    +0.210 HD
ENDBRANCH  10   3
BRANCH   9  12
ATOM     12  C   UNL     1      -2.948   4.084  25.644  0.00  0.00    +0.138 C 
BRANCH  12   6
ATOM      5  O   UNL     1      -3.497   2.569  23.264  0.00  0.00    -0.276 OA
ATOM      6  N   UNL     1      -3.955   3.062  25.483  0.00  0.00    -0.313 N 
ATOM     16  C   UNL     1      -4.147   2.381  24.290  0.00  0.00    +0.216 C 
ATOM     29  H   UNL     1      -4.540   2.844  26.284  0.00  0.00    +0.149 HD
BRANCH  16  15
ATOM     15  C   UNL     1      -5.287   1.360  24.375  0.00  0.00    +0.074 C 
BRANCH  15  17
ATOM     17  C   UNL     1      -6.520   1.924  25.101  0.00  0.00    +0.009 C 
ATOM     21  C   UNL     1      -6.520   1.594  26.589  0.00  0.00    +0.004 C 
ENDBRANCH  15  17
BRANCH  15  18
ATOM     18  C   UNL     1      -4.783   0.054  25.023  0.00  0.00    +0.009 C 
ATOM     22  C   UNL     1      -4.337  -1.017  24.036  0.00  0.00    +0.004 C 
ENDBRANCH  15  18
ENDBRANCH  16  15
ENDBRANCH  12   6
ENDBRANCH   9  12
BRANCH  11  13
ATOM     13  C   UNL     1      -1.251   0.319  25.040  0.00  0.00    +0.130 C 
BRANCH  13  14
ATOM      4  O   UNL     1       0.284  -1.518  24.955  0.00  0.00    -0.276 OA
ATOM      7  N   UNL     1       0.295  -0.076  23.139  0.00  0.00    -0.300 N 
ATOM     14  C   UNL     1      -0.157  -0.516  24.387  0.00  0.00    +0.218 C 
ATOM     20  C   UNL     1      -0.242   1.112  22.487  0.00  0.00    +0.132 C 
BRANCH   7  19
ATOM     19  C   UNL     1       1.340  -0.775  22.394  0.00  0.00    +0.142 C 
BRANCH  19  23
ATOM     23  C   UNL     1       2.715  -0.379  22.847  0.00  0.00    -0.030 A 
ATOM     24  C   UNL     1       3.506  -1.289  23.549  0.00  0.00    +0.005 A 
ATOM     25  C   UNL     1       3.203   0.897  22.566  0.00  0.00    +0.005 A 
ATOM     26  C   UNL     1       4.784  -0.923  23.970  0.00  0.00    +0.000 A 
ATOM     27  C   UNL     1       4.481   1.263  22.987  0.00  0.00    +0.000 A 
ATOM     28  C   UNL     1       5.272   0.353  23.690  0.00  0.00    +0.000 A 
ENDBRANCH  19  23
ENDBRANCH   7  19
ENDBRANCH  13  14
ENDBRANCH  11  13
TORSDOF 11
ENDMDL
MODEL 7
REMARK VINA RESULT:      -2.8      2.107      5.225
REMARK  Name = 25390218
REMARK  14 active torsions:
REMARK  status: ('A' for Active; 'I' for Inactive)
REMARK    1  A    between atoms: O_2  and  C_8
REMARK    2  A    between atoms: O_3  and  C_10
REMARK    3  A    between atoms: N_6  and  C_12
REMARK    4  A    between atoms: N_7  and  C_19
REMARK    5  A    between atoms: N_7  and  C_20
REMARK    6  A    between atoms: C_9  and  C_12
REMARK    7  A    between atoms: C_11  and  C_13
REMARK    8  A    between atoms: C_13  and  C_14
REMARK    9  A    between atoms: C_15  and  C_16
REMARK   10  A    between atoms: C_15  and  C_17
REMARK   11  A    between atoms: C_15  and  C_18
REMARK   12  A    between atoms: C_17  and  C_21
REMARK   13  A    between atoms: C_18  and  C_22
REMARK   14  A    between atoms: C_19  and  C_23
REMARK                            x       y       z     vdW  Elec       q    Type
REMARK                         _______ _______ _______ _____ _____    ______ ____
ROOT
ATOM      1  O   UNL     1      -3.557  -1.155  25.939  0.00  0.00    -0.366 OA
ATOM      8  C   UNL     1      -2.110  -2.096  24.331  0.00  0.00    +0.176 C 
ATOM      9  C   UNL     1      -2.261  -1.765  25.807  0.00  0.00    +0.167 C 
ATOM     10  C   UNL     1      -3.530  -2.474  23.959  0.00  0.00    +0.175 C 
ATOM     11  C   UNL     1      -4.347  -1.475  24.771  0.00  0.00    +0.159 C 
ENDROOT
BRANCH   8   2
ATOM      2  O   UNL     1      -1.179  -3.134  24.113  0.00  0.00    -0.387 OA
ATOM     30  H   UNL     1      -1.518  -3.928  24.561  0.00  0.00    +0.210 HD
ENDBRANCH   8   2
BRANCH  10   3
ATOM      3  O   UNL     1      -3.833  -3.785  24.434  0.00  0.00    -0.387 OA
ATOM     31  H   UNL     1      -4.121  -3.699  25.359  0.00  0.00    +0.210 HD
ENDBRANCH  10   3
BRANCH   9  12
ATOM     12  C   UNL     1      -1.195  -0.815  26.322  0.00  0.00    +0.138 C 
BRANCH  12   6
ATOM      5  O   UNL     1      -0.198   1.880  26.348  0.00  0.00    -0.276 OA
ATOM      6  N   UNL     1      -0.531  -0.129  25.239  0.00  0.00    -0.313 N 
ATOM     16  C   UNL     1      -0.082   1.179  25.345  0.00  0.00    +0.216 C 
ATOM     29  H   UNL     1      -0.394  -0.637  24.370  0.00  0.00    +0.149 HD
BRANCH  16  15
ATOM     15  C   UNL     1       0.573   1.681  24.053  0.00  0.00    +0.074 C 
BRANCH  15  17
ATOM     17  C   UNL     1      -0.300   2.717  23.323  0.00  0.00    +0.009 C 
ATOM     21  C   UNL     1      -1.551   2.096  22.712  0.00  0.00    +0.004 C 
ENDBRANCH  15  17
BRANCH  15  18
ATOM     18  C   UNL     1       0.934   0.488  23.144  0.00  0.00    +0.009 C 
ATOM     22  C   UNL     1       2.412   0.380  22.791  0.00  0.00    +0.004 C 
ENDBRANCH  15  18
ENDBRANCH  16  15
ENDBRANCH  12   6
ENDBRANCH   9  12
BRANCH  11  13
ATOM     13  C   UNL     1      -4.618  -0.178  24.021  0.00  0.00    +0.130 C 
BRANCH  13  14
ATOM      4  O   UNL     1      -3.128   1.297  25.180  0.00  0.00    -0.276 OA
ATOM      7  N   UNL     1      -5.373   1.876  25.192  0.00  0.00    -0.300 N 
ATOM     14  C   UNL     1      -4.291   1.059  24.848  0.00  0.00    +0.218 C 
ATOM     20  C   UNL     1      -6.741   1.574  24.788  0.00  0.00    +0.132 C 
BRANCH   7  19
ATOM     19  C   UNL     1      -5.214   3.095  25.981  0.00  0.00    +0.142 C 
BRANCH  19  23
ATOM     23  C   UNL     1      -4.029   3.903  25.536  0.00  0.00    -0.030 A 
ATOM     24  C   UNL     1      -2.929   4.049  26.382  0.00  0.00    +0.005 A 
ATOM     25  C   UNL     1      -4.027   4.505  24.279  0.00  0.00    +0.005 A 
ATOM     26  C   UNL     1      -1.827   4.798  25.970  0.00  0.00    +0.000 A 
ATOM     27  C   UNL     1      -2.925   5.254  23.867  0.00  0.00    +0.000 A 
ATOM     28  C   UNL     1      -1.825   5.401  24.712  0.00  0.00    +0.000 A 
ENDBRANCH  19  23
ENDBRANCH   7  19
ENDBRANCH  13  14
ENDBRANCH  11  13
TORSDOF 11
ENDMDL
MODEL 8
REMARK VINA RESULT:      -2.4      2.082      5.564
REMARK  Name = 25390218
REMARK  14 active torsions:
REMARK  status: ('A' for Active; 'I' for Inactive)
REMARK    1  A    between atoms: O_2  and  C_8
REMARK    2  A    between atoms: O_3  and  C_10
REMARK    3  A    between atoms: N_6  and  C_12
REMARK    4  A    between atoms: N_7  and  C_19
REMARK    5  A    between atoms: N_7  and  C_20
REMARK    6  A    between atoms: C_9  and  C_12
REMARK    7  A    between atoms: C_11  and  C_13
REMARK    8  A    between atoms: C_13  and  C_14
REMARK    9  A    between atoms: C_15  and  C_16
REMARK   10  A    between atoms: C_15  and  C_17
REMARK   11  A    between atoms: C_15  and  C_18
REMARK   12  A    between atoms: C_17  and  C_21
REMARK   13  A    between atoms: C_18  and  C_22
REMARK   14  A    between atoms: C_19  and  C_23
REMARK                            x       y       z     vdW  Elec       q    Type
REMARK                         _______ _______ _______ _____ _____    ______ ____
ROOT
ATOM      1  O   UNL     1      -0.198   0.256  23.849  0.00  0.00    -0.366 OA
ATOM      8  C   UNL     1       2.044  -0.475  23.834  0.00  0.00    +0.176 C 
ATOM      9  C   UNL     1       0.599  -0.939  23.923  0.00  0.00    +0.167 C 
ATOM     10  C   UNL     1       1.929   0.695  22.878  0.00  0.00    +0.175 C 
ATOM     11  C   UNL     1       0.609   1.327  23.308  0.00  0.00    +0.159 C 
ENDROOT
BRANCH   8   2
ATOM      2  O   UNL     1       2.901  -1.495  23.369  0.00  0.00    -0.387 OA
ATOM     30  H   UNL     1       2.361  -2.294  23.244  0.00  0.00    +0.210 HD
ENDBRANCH   8   2
BRANCH  10   3
ATOM      3  O   UNL     1       1.780   0.226  21.539  0.00  0.00    -0.387 OA
ATOM     31  H   UNL     1       2.650  -0.094  21.245  0.00  0.00    +0.210 HD
ENDBRANCH  10   3
BRANCH   9  12
ATOM     12  C   UNL     1       0.285  -1.685  25.207  0.00  0.00    +0.138 C 
BRANCH  12   6
ATOM      5  O   UNL     1      -1.557  -3.199  23.603  0.00  0.00    -0.276 OA
ATOM      6  N   UNL     1      -1.139  -1.809  25.411  0.00  0.00    -0.313 N 
ATOM     16  C   UNL     1      -1.952  -2.567  24.580  0.00  0.00    +0.216 C 
ATOM     29  H   UNL     1      -1.549  -1.316  26.199  0.00  0.00    +0.149 HD
BRANCH  16  15
ATOM     15  C   UNL     1      -3.425  -2.522  25.001  0.00  0.00    +0.074 C 
BRANCH  15  17
ATOM     17  C   UNL     1      -4.342  -2.059  23.856  0.00  0.00    +0.009 C 
ATOM     21  C   UNL     1      -3.835  -0.790  23.182  0.00  0.00    +0.004 C 
ENDBRANCH  15  17
BRANCH  15  18
ATOM     18  C   UNL     1      -3.590  -1.649  26.262  0.00  0.00    +0.009 C 
ATOM     22  C   UNL     1      -4.030  -0.216  25.992  0.00  0.00    +0.004 C 
ENDBRANCH  15  18
ENDBRANCH  16  15
ENDBRANCH  12   6
ENDBRANCH   9  12
BRANCH  11  13
ATOM     13  C   UNL     1       0.778   2.379  24.394  0.00  0.00    +0.130 C 
BRANCH  13  14
ATOM      4  O   UNL     1      -0.860   1.532  25.924  0.00  0.00    -0.276 OA
ATOM      7  N   UNL     1      -1.056   3.765  25.331  0.00  0.00    -0.300 N 
ATOM     14  C   UNL     1      -0.450   2.505  25.288  0.00  0.00    +0.218 C 
ATOM     20  C   UNL     1      -0.552   4.902  24.570  0.00  0.00    +0.132 C 
BRANCH   7  19
ATOM     19  C   UNL     1      -2.240   4.037  26.143  0.00  0.00    +0.142 C 
BRANCH  19  23
ATOM     23  C   UNL     1      -3.484   3.453  25.537  0.00  0.00    -0.030 A 
ATOM     24  C   UNL     1      -4.646   3.344  26.302  0.00  0.00    +0.005 A 
ATOM     25  C   UNL     1      -3.478   3.021  24.211  0.00  0.00    +0.005 A 
ATOM     26  C   UNL     1      -5.802   2.803  25.740  0.00  0.00    +0.000 A 
ATOM     27  C   UNL     1      -4.634   2.480  23.650  0.00  0.00    +0.000 A 
ATOM     28  C   UNL     1      -5.796   2.370  24.414  0.00  0.00    +0.000 A 
ENDBRANCH  19  23
ENDBRANCH   7  19
ENDBRANCH  13  14
ENDBRANCH  11  13
TORSDOF 11
ENDMDL
MODEL 9
REMARK VINA RESULT:      -1.2      2.203      5.832
REMARK  Name = 25390218
REMARK  14 active torsions:
REMARK  status: ('A' for Active; 'I' for Inactive)
REMARK    1  A    between atoms: O_2  and  C_8
REMARK    2  A    between atoms: O_3  and  C_10
REMARK    3  A    between atoms: N_6  and  C_12
REMARK    4  A    between atoms: N_7  and  C_19
REMARK    5  A    between atoms: N_7  and  C_20
REMARK    6  A    between atoms: C_9  and  C_12
REMARK    7  A    between atoms: C_11  and  C_13
REMARK    8  A    between atoms: C_13  and  C_14
REMARK    9  A    between atoms: C_15  and  C_16
REMARK   10  A    between atoms: C_15  and  C_17
REMARK   11  A    between atoms: C_15  and  C_18
REMARK   12  A    between atoms: C_17  and  C_21
REMARK   13  A    between atoms: C_18  and  C_22
REMARK   14  A    between atoms: C_19  and  C_23
REMARK                            x       y       z     vdW  Elec       q    Type
REMARK                         _______ _______ _______ _____ _____    ______ ____
ROOT
ATOM      1  O   UNL     1      -4.186   2.324  26.124  0.00  0.00    -0.366 OA
ATOM      8  C   UNL     1      -6.025   2.318  24.646  0.00  0.00    +0.176 C 
ATOM      9  C   UNL     1      -5.469   1.706  25.922  0.00  0.00    +0.167 C 
ATOM     10  C   UNL     1      -5.509   3.739  24.743  0.00  0.00    +0.175 C 
ATOM     11  C   UNL     1      -4.118   3.533  25.333  0.00  0.00    +0.159 C 
ENDROOT
BRANCH   8   2
ATOM      2  O   UNL     1      -7.432   2.236  24.588  0.00  0.00    -0.387 OA
ATOM     30  H   UNL     1      -7.657   1.459  24.049  0.00  0.00    +0.210 HD
ENDBRANCH   8   2
BRANCH  10   3
ATOM      3  O   UNL     1      -6.283   4.484  25.683  0.00  0.00    -0.387 OA
ATOM     31  H   UNL     1      -5.712   4.668  26.448  0.00  0.00    +0.210 HD
ENDBRANCH  10   3
BRANCH   9  12
ATOM     12  C   UNL     1      -5.304   0.198  25.843  0.00  0.00    +0.138 C 
BRANCH  12   6
ATOM      5  O   UNL     1      -3.288  -1.571  26.873  0.00  0.00    -0.276 OA
ATOM      6  N   UNL     1      -4.063  -0.164  25.201  0.00  0.00    -0.313 N 
ATOM     16  C   UNL     1      -3.147  -1.031  25.778  0.00  0.00    +0.216 C 
ATOM     29  H   UNL     1      -3.866   0.240  24.290  0.00  0.00    +0.149 HD
BRANCH  16  15
ATOM     15  C   UNL     1      -1.906  -1.239  24.903  0.00  0.00    +0.074 C 
BRANCH  15  17
ATOM     17  C   UNL     1      -2.042  -2.465  23.983  0.00  0.00    +0.009 C 
ATOM     21  C   UNL     1      -3.434  -3.083  24.041  0.00  0.00    +0.004 C 
ENDBRANCH  15  17
BRANCH  15  18
ATOM     18  C   UNL     1      -0.642  -1.317  25.784  0.00  0.00    +0.009 C 
ATOM     22  C   UNL     1       0.287  -2.482  25.465  0.00  0.00    +0.004 C 
ENDBRANCH  15  18
ENDBRANCH  16  15
ENDBRANCH  12   6
ENDBRANCH   9  12
BRANCH  11  13
ATOM     13  C   UNL     1      -3.044   3.336  24.273  0.00  0.00    +0.130 C 
BRANCH  13  14
ATOM      4  O   UNL     1      -1.288   3.790  25.839  0.00  0.00    -0.276 OA
ATOM      7  N   UNL     1      -0.865   2.148  24.258  0.00  0.00    -0.300 N 
ATOM     14  C   UNL     1      -1.658   3.123  24.870  0.00  0.00    +0.218 C 
ATOM     20  C   UNL     1      -1.325   1.371  23.113  0.00  0.00    +0.132 C 
BRANCH   7  19
ATOM     19  C   UNL     1       0.485   1.833  24.720  0.00  0.00    +0.142 C 
BRANCH  19  23
ATOM     23  C   UNL     1       1.292   1.133  23.665  0.00  0.00    -0.030 A 
ATOM     24  C   UNL     1       0.707   0.131  22.891  0.00  0.00    +0.005 A 
ATOM     25  C   UNL     1       2.626   1.484  23.459  0.00  0.00    +0.005 A 
ATOM     26  C   UNL     1       1.455  -0.519  21.910  0.00  0.00    +0.000 A 
ATOM     27  C   UNL     1       3.374   0.834  22.478  0.00  0.00    +0.000 A 
ATOM     28  C   UNL     1       2.789  -0.169  21.704  0.00  0.00    +0.000 A 
ENDBRANCH  19  23
ENDBRANCH   7  19
ENDBRANCH  13  14
ENDBRANCH  11  13
TORSDOF 11
ENDMDL
