MODEL 1
REMARK VINA RESULT:      -4.4      0.000      0.000
REMARK  Name = 75536742
REMARK  4 active torsions:
REMARK  status: ('A' for Active; 'I' for Inactive)
REMARK    1  A    between atoms: O_2  and  C_9
REMARK    2  A    between atoms: N_5  and  C_12
REMARK    3  A    between atoms: N_6  and  C_10
REMARK    4  A    between atoms: C_8  and  C_12
REMARK                            x       y       z     vdW  Elec       q    Type
REMARK                         _______ _______ _______ _____ _____    ______ ____
ROOT
ATOM     12  C   UNL     1      -6.978  -9.790  15.283  0.00  0.00    +0.140 C 
ENDROOT
BRANCH  12   5
ATOM      3  O   UNL     1      -2.836  -9.884  10.381  0.00  0.00    -0.377 OA
ATOM      4  O   UNL     1      -7.219  -9.141  12.556  0.00  0.00    -0.253 OA
ATOM      5  N   UNL     1      -5.970 -10.014  14.271  0.00  0.00    -0.297 N 
ATOM      7  N   UNL     1      -5.098  -9.950  12.075  0.00  0.00    -0.281 N 
ATOM     13  C   UNL     1      -3.883 -10.701  12.418  0.00  0.00    +0.137 C 
ATOM     14  C   UNL     1      -5.223  -9.619  10.654  0.00  0.00    +0.137 C 
ATOM     15  C   UNL     1      -6.168  -9.663  12.941  0.00  0.00    +0.302 C 
ATOM     16  C   UNL     1      -2.651 -10.059  11.786  0.00  0.00    +0.179 C 
ATOM     17  C   UNL     1      -3.936  -9.009  10.120  0.00  0.00    +0.179 C 
ATOM     18  H   UNL     1      -5.118 -10.457  14.584  0.00  0.00    +0.150 HD
ENDBRANCH  12   5
BRANCH  12   8
ATOM      1  O   UNL     1      -5.347 -10.776  16.770  0.00  0.00    -0.371 OA
ATOM      8  C   UNL     1      -6.754 -10.675  16.496  0.00  0.00    +0.165 C 
ATOM      9  C   UNL     1      -7.392 -10.130  17.766  0.00  0.00    +0.164 C 
ATOM     10  C   UNL     1      -6.529 -10.781  18.830  0.00  0.00    +0.108 C 
ATOM     11  C   UNL     1      -5.151 -10.697  18.193  0.00  0.00    +0.181 C 
BRANCH  10   6
ATOM      6  N   UNL     1      -6.597 -10.119  20.123  0.00  0.00    -0.323 NA
ATOM     19  H   UNL     1      -5.714 -10.237  20.616  0.00  0.00    +0.119 HD
ATOM     20  H   UNL     1      -6.725  -9.117  19.990  0.00  0.00    +0.119 HD
ENDBRANCH  10   6
BRANCH   9   2
ATOM      2  O   UNL     1      -8.755 -10.494  17.869  0.00  0.00    -0.388 OA
ATOM     21  H   UNL     1      -8.876 -11.353  17.429  0.00  0.00    +0.210 HD
ENDBRANCH   9   2
ENDBRANCH  12   8
TORSDOF 4
ENDMDL
MODEL 2
REMARK VINA RESULT:      -4.2      2.271      6.689
REMARK  Name = 75536742
REMARK  4 active torsions:
REMARK  status: ('A' for Active; 'I' for Inactive)
REMARK    1  A    between atoms: O_2  and  C_9
REMARK    2  A    between atoms: N_5  and  C_12
REMARK    3  A    between atoms: N_6  and  C_10
REMARK    4  A    between atoms: C_8  and  C_12
REMARK                            x       y       z     vdW  Elec       q    Type
REMARK                         _______ _______ _______ _____ _____    ______ ____
ROOT
ATOM     12  C   UNL     1      -8.367  -9.644  12.991  0.00  0.00    +0.140 C 
ENDROOT
BRANCH  12   5
ATOM      3  O   UNL     1      -5.139 -10.488  18.474  0.00  0.00    -0.377 OA
ATOM      4  O   UNL     1      -9.155  -9.699  15.692  0.00  0.00    -0.253 OA
ATOM      5  N   UNL     1      -7.476  -9.698  14.129  0.00  0.00    -0.297 N 
ATOM      7  N   UNL     1      -6.958  -9.767  16.434  0.00  0.00    -0.281 N 
ATOM     13  C   UNL     1      -5.508  -9.646  16.224  0.00  0.00    +0.137 C 
ATOM     14  C   UNL     1      -7.364  -9.789  17.841  0.00  0.00    +0.137 C 
ATOM     15  C   UNL     1      -7.947  -9.722  15.436  0.00  0.00    +0.302 C 
ATOM     16  C   UNL     1      -4.747 -10.628  17.108  0.00  0.00    +0.179 C 
ATOM     17  C   UNL     1      -6.528 -10.781  18.635  0.00  0.00    +0.179 C 
ATOM     18  H   UNL     1      -6.488  -9.699  13.918  0.00  0.00    +0.150 HD
ENDBRANCH  12   5
BRANCH  12   8
ATOM      1  O   UNL     1      -8.478  -9.594  10.577  0.00  0.00    -0.371 OA
ATOM      8  C   UNL     1      -7.626  -9.903  11.691  0.00  0.00    +0.165 C 
ATOM      9  C   UNL     1      -6.384  -9.039  11.524  0.00  0.00    +0.164 C 
ATOM     10  C   UNL     1      -6.244  -9.017  10.014  0.00  0.00    +0.108 C 
ATOM     11  C   UNL     1      -7.697  -8.914   9.578  0.00  0.00    +0.181 C 
BRANCH  10   6
ATOM      6  N   UNL     1      -5.425  -7.922   9.519  0.00  0.00    -0.323 NA
ATOM     19  H   UNL     1      -4.883  -8.235   8.715  0.00  0.00    +0.119 HD
ATOM     20  H   UNL     1      -6.024  -7.166   9.190  0.00  0.00    +0.119 HD
ENDBRANCH  10   6
BRANCH   9   2
ATOM      2  O   UNL     1      -5.259  -9.602  12.170  0.00  0.00    -0.388 OA
ATOM     21  H   UNL     1      -5.574 -10.244  12.828  0.00  0.00    +0.210 HD
ENDBRANCH   9   2
ENDBRANCH  12   8
TORSDOF 4
ENDMDL
MODEL 3
REMARK VINA RESULT:      -4.0      1.910      2.585
REMARK  Name = 75536742
REMARK  4 active torsions:
REMARK  status: ('A' for Active; 'I' for Inactive)
REMARK    1  A    between atoms: O_2  and  C_9
REMARK    2  A    between atoms: N_5  and  C_12
REMARK    3  A    between atoms: N_6  and  C_10
REMARK    4  A    between atoms: C_8  and  C_12
REMARK                            x       y       z     vdW  Elec       q    Type
REMARK                         _______ _______ _______ _____ _____    ______ ____
ROOT
ATOM     12  C   UNL     1      -5.504 -10.362  15.364  0.00  0.00    +0.140 C 
ENDROOT
BRANCH  12   5
ATOM      3  O   UNL     1      -5.885  -9.334   9.041  0.00  0.00    -0.377 OA
ATOM      4  O   UNL     1      -3.633 -10.562  13.272  0.00  0.00    -0.253 OA
ATOM      5  N   UNL     1      -5.720  -9.943  13.997  0.00  0.00    -0.297 N 
ATOM      7  N   UNL     1      -5.098  -9.618  11.740  0.00  0.00    -0.281 N 
ATOM     13  C   UNL     1      -6.328  -8.896  11.390  0.00  0.00    +0.137 C 
ATOM     14  C   UNL     1      -4.124  -9.715  10.650  0.00  0.00    +0.137 C 
ATOM     15  C   UNL     1      -4.741 -10.077  13.019  0.00  0.00    +0.302 C 
ATOM     16  C   UNL     1      -6.886  -9.386  10.057  0.00  0.00    +0.179 C 
ATOM     17  C   UNL     1      -4.787 -10.188   9.366  0.00  0.00    +0.179 C 
ATOM     18  H   UNL     1      -6.620  -9.531  13.797  0.00  0.00    +0.150 HD
ENDBRANCH  12   5
BRANCH  12   8
ATOM      1  O   UNL     1      -6.560 -10.780  17.498  0.00  0.00    -0.371 OA
ATOM      8  C   UNL     1      -6.817 -10.536  16.106  0.00  0.00    +0.165 C 
ATOM      9  C   UNL     1      -7.708  -9.303  16.052  0.00  0.00    +0.164 C 
ATOM     10  C   UNL     1      -8.546  -9.493  17.302  0.00  0.00    +0.108 C 
ATOM     11  C   UNL     1      -7.514 -10.037  18.277  0.00  0.00    +0.181 C 
BRANCH  10   6
ATOM      6  N   UNL     1      -9.180  -8.271  17.772  0.00  0.00    -0.323 NA
ATOM     19  H   UNL     1     -10.170  -8.441  17.942  0.00  0.00    +0.119 HD
ATOM     20  H   UNL     1      -8.773  -7.994  18.664  0.00  0.00    +0.119 HD
ENDBRANCH  10   6
BRANCH   9   2
ATOM      2  O   UNL     1      -8.487  -9.266  14.872  0.00  0.00    -0.388 OA
ATOM     21  H   UNL     1      -7.885  -9.282  14.108  0.00  0.00    +0.210 HD
ENDBRANCH   9   2
ENDBRANCH  12   8
TORSDOF 4
ENDMDL
MODEL 4
REMARK VINA RESULT:      -3.9      2.018      7.007
REMARK  Name = 75536742
REMARK  4 active torsions:
REMARK  status: ('A' for Active; 'I' for Inactive)
REMARK    1  A    between atoms: O_2  and  C_9
REMARK    2  A    between atoms: N_5  and  C_12
REMARK    3  A    between atoms: N_6  and  C_10
REMARK    4  A    between atoms: C_8  and  C_12
REMARK                            x       y       z     vdW  Elec       q    Type
REMARK                         _______ _______ _______ _____ _____    ______ ____
ROOT
ATOM     12  C   UNL     1      -4.447 -10.434  13.343  0.00  0.00    +0.140 C 
ENDROOT
BRANCH  12   5
ATOM      3  O   UNL     1      -9.958  -8.888  16.249  0.00  0.00    -0.377 OA
ATOM      4  O   UNL     1      -5.124  -9.924  16.027  0.00  0.00    -0.253 OA
ATOM      5  N   UNL     1      -5.787 -10.242  13.854  0.00  0.00    -0.297 N 
ATOM      7  N   UNL     1      -7.391  -9.838  15.542  0.00  0.00    -0.281 N 
ATOM     13  C   UNL     1      -8.542 -10.054  14.653  0.00  0.00    +0.137 C 
ATOM     14  C   UNL     1      -7.748  -9.579  16.939  0.00  0.00    +0.137 C 
ATOM     15  C   UNL     1      -6.038  -9.994  15.198  0.00  0.00    +0.302 C 
ATOM     16  C   UNL     1      -9.604  -8.980  14.869  0.00  0.00    +0.179 C 
ATOM     17  C   UNL     1      -8.828  -8.513  17.039  0.00  0.00    +0.179 C 
ATOM     18  H   UNL     1      -6.533 -10.317  13.178  0.00  0.00    +0.150 HD
ENDBRANCH  12   5
BRANCH  12   8
ATOM      1  O   UNL     1      -5.811 -10.779  11.378  0.00  0.00    -0.371 OA
ATOM      8  C   UNL     1      -4.456 -10.720  11.853  0.00  0.00    +0.165 C 
ATOM      9  C   UNL     1      -3.768  -9.642  11.028  0.00  0.00    +0.164 C 
ATOM     10  C   UNL     1      -4.448  -9.822   9.684  0.00  0.00    +0.108 C 
ATOM     11  C   UNL     1      -5.880 -10.107  10.108  0.00  0.00    +0.181 C 
BRANCH  10   6
ATOM      6  N   UNL     1      -4.335  -8.664   8.812  0.00  0.00    -0.323 NA
ATOM     19  H   UNL     1      -4.934  -8.788   7.997  0.00  0.00    +0.119 HD
ATOM     20  H   UNL     1      -4.672  -7.834   9.298  0.00  0.00    +0.119 HD
ENDBRANCH  10   6
BRANCH   9   2
ATOM      2  O   UNL     1      -2.369  -9.841  10.963  0.00  0.00    -0.388 OA
ATOM     21  H   UNL     1      -2.166 -10.316  10.139  0.00  0.00    +0.210 HD
ENDBRANCH   9   2
ENDBRANCH  12   8
TORSDOF 4
ENDMDL
MODEL 5
REMARK VINA RESULT:      -3.9      2.656      6.514
REMARK  Name = 75536742
REMARK  4 active torsions:
REMARK  status: ('A' for Active; 'I' for Inactive)
REMARK    1  A    between atoms: O_2  and  C_9
REMARK    2  A    between atoms: N_5  and  C_12
REMARK    3  A    between atoms: N_6  and  C_10
REMARK    4  A    between atoms: C_8  and  C_12
REMARK                            x       y       z     vdW  Elec       q    Type
REMARK                         _______ _______ _______ _____ _____    ______ ____
ROOT
ATOM     12  C   UNL     1      -4.305 -10.043  16.504  0.00  0.00    +0.140 C 
ENDROOT
BRANCH  12   5
ATOM      3  O   UNL     1     -10.609  -8.862  16.258  0.00  0.00    -0.377 OA
ATOM      4  O   UNL     1      -6.376 -10.279  18.395  0.00  0.00    -0.253 OA
ATOM      5  N   UNL     1      -5.716  -9.874  16.235  0.00  0.00    -0.297 N 
ATOM      7  N   UNL     1      -8.008  -9.821  16.810  0.00  0.00    -0.281 N 
ATOM     13  C   UNL     1      -8.465  -9.646  15.424  0.00  0.00    +0.137 C 
ATOM     14  C   UNL     1      -9.089  -9.949  17.790  0.00  0.00    +0.137 C 
ATOM     15  C   UNL     1      -6.679 -10.007  17.228  0.00  0.00    +0.302 C 
ATOM     16  C   UNL     1      -9.552  -8.580  15.340  0.00  0.00    +0.179 C 
ATOM     17  C   UNL     1     -10.128  -8.854  17.603  0.00  0.00    +0.179 C 
ATOM     18  H   UNL     1      -5.963  -9.670  15.277  0.00  0.00    +0.150 HD
ENDBRANCH  12   5
BRANCH  12   8
ATOM      1  O   UNL     1      -4.384 -10.669  14.170  0.00  0.00    -0.371 OA
ATOM      8  C   UNL     1      -3.609 -10.781  15.374  0.00  0.00    +0.165 C 
ATOM      9  C   UNL     1      -2.234 -10.217  15.044  0.00  0.00    +0.164 C 
ATOM     10  C   UNL     1      -2.080 -10.652  13.599  0.00  0.00    +0.108 C 
ATOM     11  C   UNL     1      -3.488 -10.441  13.068  0.00  0.00    +0.181 C 
BRANCH  10   6
ATOM      6  N   UNL     1      -1.079  -9.894  12.865  0.00  0.00    -0.323 NA
ATOM     19  H   UNL     1      -0.148 -10.224  13.113  0.00  0.00    +0.119 HD
ATOM     20  H   UNL     1      -1.189 -10.057  11.865  0.00  0.00    +0.119 HD
ENDBRANCH  10   6
BRANCH   9   2
ATOM      2  O   UNL     1      -1.229 -10.748  15.885  0.00  0.00    -0.388 OA
ATOM     21  H   UNL     1      -0.856 -11.536  15.455  0.00  0.00    +0.210 HD
ENDBRANCH   9   2
ENDBRANCH  12   8
TORSDOF 4
ENDMDL
MODEL 6
REMARK VINA RESULT:      -3.9      1.960      2.346
REMARK  Name = 75536742
REMARK  4 active torsions:
REMARK  status: ('A' for Active; 'I' for Inactive)
REMARK    1  A    between atoms: O_2  and  C_9
REMARK    2  A    between atoms: N_5  and  C_12
REMARK    3  A    between atoms: N_6  and  C_10
REMARK    4  A    between atoms: C_8  and  C_12
REMARK                            x       y       z     vdW  Elec       q    Type
REMARK                         _______ _______ _______ _____ _____    ______ ____
ROOT
ATOM     12  C   UNL     1      -7.619  -9.346  13.548  0.00  0.00    +0.140 C 
ENDROOT
BRANCH  12   5
ATOM      3  O   UNL     1      -1.496 -10.291  11.873  0.00  0.00    -0.377 OA
ATOM      4  O   UNL     1      -6.225  -9.042  11.122  0.00  0.00    -0.253 OA
ATOM      5  N   UNL     1      -6.252  -9.751  13.305  0.00  0.00    -0.297 N 
ATOM      7  N   UNL     1      -4.307 -10.018  11.989  0.00  0.00    -0.281 N 
ATOM     13  C   UNL     1      -3.584 -10.781  13.016  0.00  0.00    +0.137 C 
ATOM     14  C   UNL     1      -3.580  -9.867  10.727  0.00  0.00    +0.137 C 
ATOM     15  C   UNL     1      -5.634  -9.565  12.073  0.00  0.00    +0.302 C 
ATOM     16  C   UNL     1      -2.145 -10.292  13.145  0.00  0.00    +0.179 C 
ATOM     17  C   UNL     1      -2.153  -9.401  10.970  0.00  0.00    +0.179 C 
ATOM     18  H   UNL     1      -5.778 -10.194  14.078  0.00  0.00    +0.150 HD
ENDBRANCH  12   5
BRANCH  12   8
ATOM      1  O   UNL     1      -7.020  -9.816  15.842  0.00  0.00    -0.371 OA
ATOM      8  C   UNL     1      -8.107  -9.824  14.904  0.00  0.00    +0.165 C 
ATOM      9  C   UNL     1      -9.187  -8.934  15.503  0.00  0.00    +0.164 C 
ATOM     10  C   UNL     1      -9.017  -9.224  16.983  0.00  0.00    +0.108 C 
ATOM     11  C   UNL     1      -7.504  -9.313  17.100  0.00  0.00    +0.181 C 
BRANCH  10   6
ATOM      6  N   UNL     1      -9.593  -8.207  17.847  0.00  0.00    -0.323 NA
ATOM     19  H   UNL     1      -9.088  -8.181  18.731  0.00  0.00    +0.119 HD
ATOM     20  H   UNL     1      -9.481  -7.289  17.420  0.00  0.00    +0.119 HD
ENDBRANCH  10   6
BRANCH   9   2
ATOM      2  O   UNL     1     -10.475  -9.272  15.025  0.00  0.00    -0.388 OA
ATOM     21  H   UNL     1     -11.128  -9.013  15.697  0.00  0.00    +0.210 HD
ENDBRANCH   9   2
ENDBRANCH  12   8
TORSDOF 4
ENDMDL
MODEL 7
REMARK VINA RESULT:      -3.9     14.223     16.312
REMARK  Name = 75536742
REMARK  4 active torsions:
REMARK  status: ('A' for Active; 'I' for Inactive)
REMARK    1  A    between atoms: O_2  and  C_9
REMARK    2  A    between atoms: N_5  and  C_12
REMARK    3  A    between atoms: N_6  and  C_10
REMARK    4  A    between atoms: C_8  and  C_12
REMARK                            x       y       z     vdW  Elec       q    Type
REMARK                         _______ _______ _______ _____ _____    ______ ____
ROOT
ATOM     12  C   UNL     1      -1.876  -0.939  24.163  0.00  0.00    +0.140 C 
ENDROOT
BRANCH  12   5
ATOM      3  O   UNL     1      -5.689   3.994  25.687  0.00  0.00    -0.377 OA
ATOM      4  O   UNL     1      -4.646  -0.722  24.610  0.00  0.00    -0.253 OA
ATOM      5  N   UNL     1      -2.605   0.295  24.354  0.00  0.00    -0.297 N 
ATOM      7  N   UNL     1      -4.545   1.593  24.731  0.00  0.00    -0.281 N 
ATOM     13  C   UNL     1      -3.854   2.877  24.549  0.00  0.00    +0.137 C 
ATOM     14  C   UNL     1      -5.987   1.710  24.957  0.00  0.00    +0.137 C 
ATOM     15  C   UNL     1      -3.978   0.316  24.570  0.00  0.00    +0.302 C 
ATOM     16  C   UNL     1      -4.267   3.874  25.627  0.00  0.00    +0.179 C 
ATOM     17  C   UNL     1      -6.289   2.744  26.030  0.00  0.00    +0.179 C 
ATOM     18  H   UNL     1      -2.060   1.144  24.303  0.00  0.00    +0.150 HD
ENDBRANCH  12   5
BRANCH  12   8
ATOM      1  O   UNL     1       0.252  -1.149  23.036  0.00  0.00    -0.371 OA
ATOM      8  C   UNL     1      -0.377  -0.718  24.253  0.00  0.00    +0.165 C 
ATOM      9  C   UNL     1       0.007   0.744  24.430  0.00  0.00    +0.164 C 
ATOM     10  C   UNL     1       1.415   0.748  23.866  0.00  0.00    +0.108 C 
ATOM     11  C   UNL     1       1.266  -0.193  22.681  0.00  0.00    +0.181 C 
BRANCH  10   6
ATOM      6  N   UNL     1       1.888   2.069  23.484  0.00  0.00    -0.323 NA
ATOM     19  H   UNL     1       1.597   2.275  22.530  0.00  0.00    +0.119 HD
ATOM     20  H   UNL     1       1.457   2.774  24.080  0.00  0.00    +0.119 HD
ENDBRANCH  10   6
BRANCH   9   2
ATOM      2  O   UNL     1      -0.039   1.141  25.787  0.00  0.00    -0.388 OA
ATOM     21  H   UNL     1       0.804   1.572  26.008  0.00  0.00    +0.210 HD
ENDBRANCH   9   2
ENDBRANCH  12   8
TORSDOF 4
ENDMDL
MODEL 8
REMARK VINA RESULT:      -3.8     13.960     16.042
REMARK  Name = 75536742
REMARK  4 active torsions:
REMARK  status: ('A' for Active; 'I' for Inactive)
REMARK    1  A    between atoms: O_2  and  C_9
REMARK    2  A    between atoms: N_5  and  C_12
REMARK    3  A    between atoms: N_6  and  C_10
REMARK    4  A    between atoms: C_8  and  C_12
REMARK                            x       y       z     vdW  Elec       q    Type
REMARK                         _______ _______ _______ _____ _____    ______ ____
ROOT
ATOM     12  C   UNL     1      -5.045   1.804  25.131  0.00  0.00    +0.140 C 
ENDROOT
BRANCH  12   5
ATOM      3  O   UNL     1      -0.640  -2.863  25.063  0.00  0.00    -0.377 OA
ATOM      4  O   UNL     1      -5.017  -0.791  24.043  0.00  0.00    -0.253 OA
ATOM      5  N   UNL     1      -4.011   0.814  25.339  0.00  0.00    -0.297 N 
ATOM      7  N   UNL     1      -2.997  -1.303  25.064  0.00  0.00    -0.281 N 
ATOM     13  C   UNL     1      -1.919  -1.033  26.025  0.00  0.00    +0.137 C 
ATOM     14  C   UNL     1      -2.982  -2.656  24.505  0.00  0.00    +0.137 C 
ATOM     15  C   UNL     1      -4.072  -0.450  24.763  0.00  0.00    +0.302 C 
ATOM     16  C   UNL     1      -0.573  -1.498  25.477  0.00  0.00    +0.179 C 
ATOM     17  C   UNL     1      -1.592  -3.028  24.011  0.00  0.00    +0.179 C 
ATOM     18  H   UNL     1      -3.250   1.089  25.942  0.00  0.00    +0.150 HD
ENDBRANCH  12   5
BRANCH  12   8
ATOM      1  O   UNL     1      -4.431   3.903  26.161  0.00  0.00    -0.371 OA
ATOM      8  C   UNL     1      -4.455   3.187  24.916  0.00  0.00    +0.165 C 
ATOM      9  C   UNL     1      -3.017   3.157  24.419  0.00  0.00    +0.164 C 
ATOM     10  C   UNL     1      -2.515   4.508  24.893  0.00  0.00    +0.108 C 
ATOM     11  C   UNL     1      -3.185   4.616  26.254  0.00  0.00    +0.181 C 
BRANCH  10   6
ATOM      6  N   UNL     1      -1.066   4.600  24.966  0.00  0.00    -0.323 NA
ATOM     19  H   UNL     1      -0.705   5.015  24.109  0.00  0.00    +0.119 HD
ATOM     20  H   UNL     1      -0.799   5.222  25.728  0.00  0.00    +0.119 HD
ENDBRANCH  10   6
BRANCH   9   2
ATOM      2  O   UNL     1      -2.947   3.010  23.014  0.00  0.00    -0.388 OA
ATOM     21  H   UNL     1      -2.541   3.813  22.643  0.00  0.00    +0.210 HD
ENDBRANCH   9   2
ENDBRANCH  12   8
TORSDOF 4
ENDMDL
MODEL 9
REMARK VINA RESULT:      -3.8      3.073      4.097
REMARK  Name = 75536742
REMARK  4 active torsions:
REMARK  status: ('A' for Active; 'I' for Inactive)
REMARK    1  A    between atoms: O_2  and  C_9
REMARK    2  A    between atoms: N_5  and  C_12
REMARK    3  A    between atoms: N_6  and  C_10
REMARK    4  A    between atoms: C_8  and  C_12
REMARK                            x       y       z     vdW  Elec       q    Type
REMARK                         _______ _______ _______ _____ _____    ______ ____
ROOT
ATOM     12  C   UNL     1      -5.483  -9.923  14.281  0.00  0.00    +0.140 C 
ENDROOT
BRANCH  12   5
ATOM      3  O   UNL     1      -7.416  -8.641   8.297  0.00  0.00    -0.377 OA
ATOM      4  O   UNL     1      -8.023  -9.598  13.114  0.00  0.00    -0.253 OA
ATOM      5  N   UNL     1      -5.749  -9.783  12.867  0.00  0.00    -0.297 N 
ATOM      7  N   UNL     1      -7.135  -9.510  10.972  0.00  0.00    -0.281 N 
ATOM     13  C   UNL     1      -6.039  -9.682  10.009  0.00  0.00    +0.137 C 
ATOM     14  C   UNL     1      -8.456  -9.347  10.360  0.00  0.00    +0.137 C 
ATOM     15  C   UNL     1      -7.038  -9.625  12.369  0.00  0.00    +0.302 C 
ATOM     16  C   UNL     1      -6.121  -8.639   8.899  0.00  0.00    +0.179 C 
ATOM     17  C   UNL     1      -8.421  -8.304   9.254  0.00  0.00    +0.179 C 
ATOM     18  H   UNL     1      -4.944  -9.824  12.259  0.00  0.00    +0.150 HD
ENDBRANCH  12   5
BRANCH  12   8
ATOM      1  O   UNL     1      -3.365 -10.676  13.391  0.00  0.00    -0.371 OA
ATOM      8  C   UNL     1      -4.235 -10.750  14.533  0.00  0.00    +0.165 C 
ATOM      9  C   UNL     1      -3.416 -10.259  15.718  0.00  0.00    +0.164 C 
ATOM     10  C   UNL     1      -2.038 -10.780  15.358  0.00  0.00    +0.108 C 
ATOM     11  C   UNL     1      -2.010 -10.545  13.856  0.00  0.00    +0.181 C 
BRANCH  10   6
ATOM      6  N   UNL     1      -0.956 -10.105  16.057  0.00  0.00    -0.323 NA
ATOM     19  H   UNL     1      -1.311  -9.686  16.915  0.00  0.00    +0.119 HD
ATOM     20  H   UNL     1      -0.249 -10.783  16.334  0.00  0.00    +0.119 HD
ENDBRANCH  10   6
BRANCH   9   2
ATOM      2  O   UNL     1      -3.895 -10.781  16.942  0.00  0.00    -0.388 OA
ATOM     21  H   UNL     1      -3.260 -11.446  17.260  0.00  0.00    +0.210 HD
ENDBRANCH   9   2
ENDBRANCH  12   8
TORSDOF 4
ENDMDL
MODEL 10
REMARK VINA RESULT:      -3.6     14.102     15.970
REMARK  Name = 75536742
REMARK  4 active torsions:
REMARK  status: ('A' for Active; 'I' for Inactive)
REMARK    1  A    between atoms: O_2  and  C_9
REMARK    2  A    between atoms: N_5  and  C_12
REMARK    3  A    between atoms: N_6  and  C_10
REMARK    4  A    between atoms: C_8  and  C_12
REMARK                            x       y       z     vdW  Elec       q    Type
REMARK                         _______ _______ _______ _____ _____    ______ ____
ROOT
ATOM     12  C   UNL     1      -4.663   0.254  24.968  0.00  0.00    +0.140 C 
ENDROOT
BRANCH  12   5
ATOM      3  O   UNL     1      -0.426   5.050  24.482  0.00  0.00    -0.377 OA
ATOM      4  O   UNL     1      -4.872   3.041  25.303  0.00  0.00    -0.253 OA
ATOM      5  N   UNL     1      -3.628   1.220  24.671  0.00  0.00    -0.297 N 
ATOM      7  N   UNL     1      -2.717   3.396  24.522  0.00  0.00    -0.281 N 
ATOM     13  C   UNL     1      -1.483   2.952  23.858  0.00  0.00    +0.137 C 
ATOM     14  C   UNL     1      -2.824   4.847  24.689  0.00  0.00    +0.137 C 
ATOM     15  C   UNL     1      -3.812   2.584  24.865  0.00  0.00    +0.302 C 
ATOM     16  C   UNL     1      -0.262   3.632  24.470  0.00  0.00    +0.179 C 
ATOM     17  C   UNL     1      -1.549   5.425  25.282  0.00  0.00    +0.179 C 
ATOM     18  H   UNL     1      -2.768   0.846  24.296  0.00  0.00    +0.150 HD
ENDBRANCH  12   5
BRANCH  12   8
ATOM      1  O   UNL     1      -4.604  -2.032  24.186  0.00  0.00    -0.371 OA
ATOM      8  C   UNL     1      -4.085  -1.133  25.179  0.00  0.00    +0.165 C 
ATOM      9  C   UNL     1      -2.570  -1.182  25.040  0.00  0.00    +0.164 C 
ATOM     10  C   UNL     1      -2.357  -2.635  24.662  0.00  0.00    +0.108 C 
ATOM     11  C   UNL     1      -3.534  -2.880  23.732  0.00  0.00    +0.181 C 
BRANCH  10   6
ATOM      6  N   UNL     1      -1.073  -2.893  24.029  0.00  0.00    -0.323 NA
ATOM     19  H   UNL     1      -0.982  -2.321  23.191  0.00  0.00    +0.119 HD
ATOM     20  H   UNL     1      -0.319  -2.613  24.655  0.00  0.00    +0.119 HD
ENDBRANCH  10   6
BRANCH   9   2
ATOM      2  O   UNL     1      -1.917  -0.829  26.244  0.00  0.00    -0.388 OA
ATOM     21  H   UNL     1      -2.510  -1.040  26.985  0.00  0.00    +0.210 HD
ENDBRANCH   9   2
ENDBRANCH  12   8
TORSDOF 4
ENDMDL
