MODEL 1
REMARK VINA RESULT:       5.4      0.000      0.000
REMARK  Name = 11884447
REMARK  6 active torsions:
REMARK  status: ('A' for Active; 'I' for Inactive)
REMARK    1  A    between atoms: S_2  and  N_8
REMARK    2  A    between atoms: S_2  and  C_22
REMARK    3  A    between atoms: O_7  and  C_34
REMARK    4  A    between atoms: O_7  and  C_35
REMARK    5  A    between atoms: N_10  and  C_20
REMARK    6  A    between atoms: C_27  and  C_29
REMARK                            x       y       z     vdW  Elec       q    Type
REMARK                         _______ _______ _______ _____ _____    ______ ____
ROOT
ATOM      5  O   UNL     1       0.130   2.596  26.281  0.00  0.00    -0.266 OA
ATOM      8  N   UNL     1      -4.760   2.387  25.353  0.00  0.00    -0.176 NA
ATOM      9  N   UNL     1      -1.771   3.400  25.186  0.00  0.00    -0.310 N 
ATOM     11  C   UNL     1      -3.768   4.408  26.431  0.00  0.00    +0.025 C 
ATOM     12  C   UNL     1      -3.820   4.237  23.982  0.00  0.00    +0.052 C 
ATOM     13  C   UNL     1      -3.984   5.204  25.151  0.00  0.00    +0.017 C 
ATOM     14  C   UNL     1      -4.804   3.278  26.547  0.00  0.00    +0.114 C 
ATOM     15  C   UNL     1      -4.894   3.138  24.068  0.00  0.00    +0.119 C 
ATOM     16  C   UNL     1      -2.326   3.886  26.456  0.00  0.00    +0.130 C 
ATOM     17  C   UNL     1      -2.434   3.621  23.974  0.00  0.00    +0.026 A 
ATOM     18  C   UNL     1      -1.854   3.271  22.813  0.00  0.00    +0.024 A 
ATOM     19  C   UNL     1      -0.498   2.796  25.240  0.00  0.00    +0.273 A 
ATOM     20  C   UNL     1       0.103   2.399  23.927  0.00  0.00    +0.099 A 
ATOM     21  C   UNL     1      -0.561   2.646  22.793  0.00  0.00    +0.030 A 
ENDROOT
BRANCH  20  10
ATOM      6  O   UNL     1       0.802  -0.031  22.604  0.00  0.00    -0.270 OA
ATOM     10  N   UNL     1       1.327   1.799  23.938  0.00  0.00    -0.277 N 
ATOM     27  C   UNL     1       1.606   0.614  23.273  0.00  0.00    +0.248 C 
ATOM     36  H   UNL     1       1.995   2.197  24.590  0.00  0.00    +0.155 HD
BRANCH  27  29
ATOM     29  C   UNL     1       3.005   0.127  23.381  0.00  0.00    +0.037 A 
ATOM     30  C   UNL     1       4.037   1.012  23.148  0.00  0.00    +0.016 A 
ATOM     31  C   UNL     1       3.228  -1.194  23.710  0.00  0.00    +0.016 A 
ATOM     32  C   UNL     1       5.352   0.556  23.250  0.00  0.00    +0.046 A 
ATOM     33  C   UNL     1       4.542  -1.650  23.812  0.00  0.00    +0.046 A 
ATOM     34  C   UNL     1       5.604  -0.776  23.582  0.00  0.00    +0.120 A 
BRANCH  34   7
ATOM      7  O   UNL     1       6.886  -1.221  23.684  0.00  0.00    -0.495 OA
ATOM     35  C   UNL     1       7.875  -0.531  22.921  0.00  0.00    +0.277 C 
ENDBRANCH  34   7
ENDBRANCH  27  29
ENDBRANCH  20  10
BRANCH   8   2
ATOM      2  S   UNL     1      -5.681   0.949  25.468  0.00  0.00    +0.061 S 
ATOM      3  O   UNL     1      -6.665   0.930  24.407  0.00  0.00    -0.153 OA
ATOM      4  O   UNL     1      -6.070   0.748  26.848  0.00  0.00    -0.153 OA
BRANCH   2  22
ATOM      1 CL   UNL     1      -1.288  -3.282  24.072  0.00  0.00    -0.084 Cl
ATOM     22  C   UNL     1      -4.441  -0.245  25.074  0.00  0.00    +0.106 A 
ATOM     23  C   UNL     1      -3.153  -0.069  25.553  0.00  0.00    +0.030 A 
ATOM     24  C   UNL     1      -4.777  -1.337  24.292  0.00  0.00    +0.030 A 
ATOM     25  C   UNL     1      -2.174  -1.012  25.242  0.00  0.00    +0.022 A 
ATOM     26  C   UNL     1      -3.797  -2.281  23.980  0.00  0.00    +0.022 A 
ATOM     28  C   UNL     1      -2.496  -2.118  24.456  0.00  0.00    +0.041 A 
ENDBRANCH   2  22
ENDBRANCH   8   2
TORSDOF 5
ENDMDL
