MODEL 1
REMARK VINA RESULT:      -3.3      0.000      0.000
REMARK  Name = 45783552
REMARK  9 active torsions:
REMARK  status: ('A' for Active; 'I' for Inactive)
REMARK    1  A    between atoms: O_3  and  C_24
REMARK    2  A    between atoms: O_3  and  C_25
REMARK    3  A    between atoms: O_4  and  C_26
REMARK    4  A    between atoms: O_4  and  C_27
REMARK    5  A    between atoms: N_5  and  C_13
REMARK    6  A    between atoms: C_9  and  C_14
REMARK    7  A    between atoms: C_13  and  C_15
REMARK    8  A    between atoms: C_17  and  C_19
REMARK    9  A    between atoms: C_25  and  C_26
REMARK                            x       y       z     vdW  Elec       q    Type
REMARK                         _______ _______ _______ _____ _____    ______ ____
ROOT
ATOM      1  O   UNL     1      -2.955  -0.707  25.045  0.00  0.00    -0.336 OA
ATOM      6  N   UNL     1      -1.947   1.254  24.654  0.00  0.00    -0.190 NA
ATOM      7  N   UNL     1      -1.712  -1.015  24.478  0.00  0.00    -0.056 NA
ATOM     14  C   UNL     1      -3.013   0.649  25.113  0.00  0.00    +0.245 A 
ATOM     17  C   UNL     1      -1.177   0.193  24.276  0.00  0.00    +0.204 A 
ENDROOT
BRANCH  17  19
ATOM      8  N   UNL     1       2.158   1.670  23.556  0.00  0.00    -0.221 NA
ATOM     19  C   UNL     1       0.123   0.374  23.697  0.00  0.00    +0.041 A 
ATOM     21  C   UNL     1       0.615  -0.516  22.749  0.00  0.00    +0.018 A 
ATOM     22  C   UNL     1       0.927   1.441  24.063  0.00  0.00    +0.126 A 
ATOM     23  C   UNL     1       1.878  -0.314  22.203  0.00  0.00    +0.068 A 
ATOM     24  C   UNL     1       2.603   0.785  22.637  0.00  0.00    +0.215 A 
BRANCH  24   3
ATOM      3  O   UNL     1       3.851   1.006  22.114  0.00  0.00    -0.474 OA
BRANCH   3  25
ATOM     25  C   UNL     1       4.864   0.068  22.460  0.00  0.00    +0.258 C 
BRANCH  25  26
ATOM     26  C   UNL     1       5.436   0.436  23.815  0.00  0.00    +0.200 C 
BRANCH  26   4
ATOM      4  O   UNL     1       5.441  -0.719  24.646  0.00  0.00    -0.380 OA
ATOM     27  C   UNL     1       4.747  -1.800  24.038  0.00  0.00    +0.194 C 
ENDBRANCH  26   4
ENDBRANCH  25  26
ENDBRANCH   3  25
ENDBRANCH  24   3
ENDBRANCH  17  19
BRANCH  14   9
ATOM      5  N   UNL     1      -4.414   2.683  25.413  0.00  0.00    -0.284 NA
ATOM      9  C   UNL     1      -4.277   1.242  25.700  0.00  0.00    +0.146 C 
ATOM     10  C   UNL     1      -5.556   0.604  25.124  0.00  0.00    +0.030 C 
ATOM     11  C   UNL     1      -6.375   1.771  24.591  0.00  0.00    +0.017 C 
ATOM     12  C   UNL     1      -5.849   2.960  25.368  0.00  0.00    +0.085 C 
BRANCH   5  13
ATOM     13  C   UNL     1      -3.723   3.529  26.377  0.00  0.00    +0.159 C 
BRANCH  13  15
ATOM      2  O   UNL     1      -1.324   3.497  25.956  0.00  0.00    -0.467 OA
ATOM     15  C   UNL     1      -2.494   4.167  25.783  0.00  0.00    +0.119 A 
ATOM     16  C   UNL     1      -2.286   5.326  25.073  0.00  0.00    +0.046 A 
ATOM     18  C   UNL     1      -0.899   5.372  24.792  0.00  0.00    +0.041 A 
ATOM     20  C   UNL     1      -0.360   4.237  25.351  0.00  0.00    +0.195 A 
ENDBRANCH  13  15
ENDBRANCH   5  13
ENDBRANCH  14   9
TORSDOF 8
ENDMDL
MODEL 2
REMARK VINA RESULT:      -3.2      1.619      3.463
REMARK  Name = 45783552
REMARK  9 active torsions:
REMARK  status: ('A' for Active; 'I' for Inactive)
REMARK    1  A    between atoms: O_3  and  C_24
REMARK    2  A    between atoms: O_3  and  C_25
REMARK    3  A    between atoms: O_4  and  C_26
REMARK    4  A    between atoms: O_4  and  C_27
REMARK    5  A    between atoms: N_5  and  C_13
REMARK    6  A    between atoms: C_9  and  C_14
REMARK    7  A    between atoms: C_13  and  C_15
REMARK    8  A    between atoms: C_17  and  C_19
REMARK    9  A    between atoms: C_25  and  C_26
REMARK                            x       y       z     vdW  Elec       q    Type
REMARK                         _______ _______ _______ _____ _____    ______ ____
ROOT
ATOM      1  O   UNL     1      -2.152   2.760  25.599  0.00  0.00    -0.336 OA
ATOM      6  N   UNL     1      -1.956   1.670  23.652  0.00  0.00    -0.190 NA
ATOM      7  N   UNL     1      -0.790   2.470  25.451  0.00  0.00    -0.056 NA
ATOM     14  C   UNL     1      -2.767   2.255  24.498  0.00  0.00    +0.245 A 
ATOM     17  C   UNL     1      -0.754   1.828  24.279  0.00  0.00    +0.204 A 
ENDROOT
BRANCH  17  19
ATOM      8  N   UNL     1       2.794   1.691  23.176  0.00  0.00    -0.221 NA
ATOM     19  C   UNL     1       0.464   1.330  23.709  0.00  0.00    +0.041 A 
ATOM     21  C   UNL     1       0.525   0.059  23.148  0.00  0.00    +0.018 A 
ATOM     22  C   UNL     1       1.616   2.099  23.698  0.00  0.00    +0.126 A 
ATOM     23  C   UNL     1       1.719  -0.397  22.600  0.00  0.00    +0.068 A 
ATOM     24  C   UNL     1       2.815   0.450  22.639  0.00  0.00    +0.215 A 
BRANCH  24   3
ATOM      3  O   UNL     1       4.003   0.024  22.106  0.00  0.00    -0.474 OA
BRANCH   3  25
ATOM     25  C   UNL     1       5.191   0.506  22.724  0.00  0.00    +0.258 C 
BRANCH  25  26
ATOM     26  C   UNL     1       5.175   0.125  24.191  0.00  0.00    +0.200 C 
BRANCH  26   4
ATOM      4  O   UNL     1       5.620  -1.219  24.327  0.00  0.00    -0.380 OA
ATOM     27  C   UNL     1       4.593  -2.143  23.992  0.00  0.00    +0.194 C 
ENDBRANCH  26   4
ENDBRANCH  25  26
ENDBRANCH   3  25
ENDBRANCH  24   3
ENDBRANCH  17  19
BRANCH  14   9
ATOM      5  N   UNL     1      -5.011   1.362  25.096  0.00  0.00    -0.284 NA
ATOM      9  C   UNL     1      -4.268   2.441  24.417  0.00  0.00    +0.146 C 
ATOM     10  C   UNL     1      -4.743   3.736  25.102  0.00  0.00    +0.030 C 
ATOM     11  C   UNL     1      -5.796   3.291  26.107  0.00  0.00    +0.017 C 
ATOM     12  C   UNL     1      -6.264   1.956  25.564  0.00  0.00    +0.085 C 
BRANCH   5  13
ATOM     13  C   UNL     1      -5.239   0.200  24.249  0.00  0.00    +0.159 C 
BRANCH  13  15
ATOM      2  O   UNL     1      -4.370  -2.027  23.784  0.00  0.00    -0.467 OA
ATOM     15  C   UNL     1      -4.307  -0.933  24.588  0.00  0.00    +0.119 A 
ATOM     16  C   UNL     1      -3.364  -1.112  25.574  0.00  0.00    +0.046 A 
ATOM     18  C   UNL     1      -2.813  -2.399  25.362  0.00  0.00    +0.041 A 
ATOM     20  C   UNL     1      -3.459  -2.913  24.262  0.00  0.00    +0.195 A 
ENDBRANCH  13  15
ENDBRANCH   5  13
ENDBRANCH  14   9
TORSDOF 8
ENDMDL
MODEL 3
REMARK VINA RESULT:      -2.8     15.233     16.966
REMARK  Name = 45783552
REMARK  9 active torsions:
REMARK  status: ('A' for Active; 'I' for Inactive)
REMARK    1  A    between atoms: O_3  and  C_24
REMARK    2  A    between atoms: O_3  and  C_25
REMARK    3  A    between atoms: O_4  and  C_26
REMARK    4  A    between atoms: O_4  and  C_27
REMARK    5  A    between atoms: N_5  and  C_13
REMARK    6  A    between atoms: C_9  and  C_14
REMARK    7  A    between atoms: C_13  and  C_15
REMARK    8  A    between atoms: C_17  and  C_19
REMARK    9  A    between atoms: C_25  and  C_26
REMARK                            x       y       z     vdW  Elec       q    Type
REMARK                         _______ _______ _______ _____ _____    ______ ____
ROOT
ATOM      1  O   UNL     1      -6.857 -10.563  13.556  0.00  0.00    -0.336 OA
ATOM      6  N   UNL     1      -6.101 -10.339  11.460  0.00  0.00    -0.190 NA
ATOM      7  N   UNL     1      -5.471 -10.389  13.659  0.00  0.00    -0.056 NA
ATOM     14  C   UNL     1      -7.145 -10.521  12.229  0.00  0.00    +0.245 A 
ATOM     17  C   UNL     1      -5.098 -10.263  12.382  0.00  0.00    +0.204 A 
ENDROOT
BRANCH  17  19
ATOM      8  N   UNL     1      -1.383 -10.386  12.461  0.00  0.00    -0.221 NA
ATOM     19  C   UNL     1      -3.732 -10.063  11.993  0.00  0.00    +0.041 A 
ATOM     21  C   UNL     1      -3.412  -9.381  10.823  0.00  0.00    +0.018 A 
ATOM     22  C   UNL     1      -2.690 -10.541  12.770  0.00  0.00    +0.126 A 
ATOM     23  C   UNL     1      -2.079  -9.201  10.473  0.00  0.00    +0.068 A 
ATOM     24  C   UNL     1      -1.110  -9.718  11.318  0.00  0.00    +0.215 A 
BRANCH  24   3
ATOM      3  O   UNL     1       0.211  -9.554  10.994  0.00  0.00    -0.474 OA
BRANCH   3  25
ATOM     25  C   UNL     1       0.722  -8.226  11.045  0.00  0.00    +0.258 C 
BRANCH  25  26
ATOM     26  C   UNL     1       0.342  -7.601  12.373  0.00  0.00    +0.200 C 
BRANCH  26   4
ATOM      4  O   UNL     1       1.196  -6.492  12.625  0.00  0.00    -0.380 OA
ATOM     27  C   UNL     1       2.467  -6.665  12.014  0.00  0.00    +0.194 C 
ENDBRANCH  26   4
ENDBRANCH  25  26
ENDBRANCH   3  25
ENDBRANCH  24   3
ENDBRANCH  17  19
BRANCH  14   9
ATOM      5  N   UNL     1      -9.498  -9.828  12.648  0.00  0.00    -0.284 NA
ATOM      9  C   UNL     1      -8.602 -10.687  11.849  0.00  0.00    +0.146 C 
ATOM     10  C   UNL     1      -8.882 -10.292  10.386  0.00  0.00    +0.030 C 
ATOM     11  C   UNL     1      -9.991  -9.253  10.461  0.00  0.00    +0.017 C 
ATOM     12  C   UNL     1     -10.650  -9.530  11.797  0.00  0.00    +0.085 C 
BRANCH   5  13
ATOM     13  C   UNL     1      -9.893 -10.431  13.914  0.00  0.00    +0.159 C 
BRANCH  13  15
ATOM      2  O   UNL     1      -9.298  -9.916  16.218  0.00  0.00    -0.467 OA
ATOM     15  C   UNL     1      -9.814  -9.447  15.051  0.00  0.00    +0.119 A 
ATOM     16  C   UNL     1     -10.162  -8.122  15.175  0.00  0.00    +0.046 A 
ATOM     18  C   UNL     1      -9.840  -7.754  16.504  0.00  0.00    +0.041 A 
ATOM     20  C   UNL     1      -9.318  -8.880  17.096  0.00  0.00    +0.195 A 
ENDBRANCH  13  15
ENDBRANCH   5  13
ENDBRANCH  14   9
TORSDOF 8
ENDMDL
MODEL 4
REMARK VINA RESULT:       0.1      1.787      2.636
REMARK  Name = 45783552
REMARK  9 active torsions:
REMARK  status: ('A' for Active; 'I' for Inactive)
REMARK    1  A    between atoms: O_3  and  C_24
REMARK    2  A    between atoms: O_3  and  C_25
REMARK    3  A    between atoms: O_4  and  C_26
REMARK    4  A    between atoms: O_4  and  C_27
REMARK    5  A    between atoms: N_5  and  C_13
REMARK    6  A    between atoms: C_9  and  C_14
REMARK    7  A    between atoms: C_13  and  C_15
REMARK    8  A    between atoms: C_17  and  C_19
REMARK    9  A    between atoms: C_25  and  C_26
REMARK                            x       y       z     vdW  Elec       q    Type
REMARK                         _______ _______ _______ _____ _____    ______ ____
ROOT
ATOM      1  O   UNL     1      -1.975   0.854  25.769  0.00  0.00    -0.336 OA
ATOM      6  N   UNL     1      -1.221  -0.538  24.184  0.00  0.00    -0.190 NA
ATOM      7  N   UNL     1      -0.708   1.328  25.405  0.00  0.00    -0.056 NA
ATOM     14  C   UNL     1      -2.200  -0.246  25.003  0.00  0.00    +0.245 A 
ATOM     17  C   UNL     1      -0.329   0.455  24.467  0.00  0.00    +0.204 A 
ENDROOT
BRANCH  17  19
ATOM      8  N   UNL     1       2.603  -0.491  22.386  0.00  0.00    -0.221 NA
ATOM     19  C   UNL     1       0.934   0.546  23.794  0.00  0.00    +0.041 A 
ATOM     21  C   UNL     1       1.710   1.697  23.878  0.00  0.00    +0.018 A 
ATOM     22  C   UNL     1       1.422  -0.511  23.042  0.00  0.00    +0.126 A 
ATOM     23  C   UNL     1       2.932   1.755  23.217  0.00  0.00    +0.068 A 
ATOM     24  C   UNL     1       3.329   0.644  22.490  0.00  0.00    +0.215 A 
BRANCH  24   3
ATOM      3  O   UNL     1       4.530   0.677  21.829  0.00  0.00    -0.474 OA
BRANCH   3  25
ATOM     25  C   UNL     1       5.640   0.082  22.491  0.00  0.00    +0.258 C 
BRANCH  25  26
ATOM     26  C   UNL     1       5.628   0.496  23.949  0.00  0.00    +0.200 C 
BRANCH  26   4
ATOM      4  O   UNL     1       5.628  -0.670  24.763  0.00  0.00    -0.380 OA
ATOM     27  C   UNL     1       5.126  -1.797  24.058  0.00  0.00    +0.194 C 
ENDBRANCH  26   4
ENDBRANCH  25  26
ENDBRANCH   3  25
ENDBRANCH  24   3
ENDBRANCH  17  19
BRANCH  14   9
ATOM      5  N   UNL     1      -4.605  -0.384  24.380  0.00  0.00    -0.284 NA
ATOM      9  C   UNL     1      -3.524  -0.952  25.209  0.00  0.00    +0.146 C 
ATOM     10  C   UNL     1      -3.471  -2.441  24.816  0.00  0.00    +0.030 C 
ATOM     11  C   UNL     1      -4.597  -2.626  23.809  0.00  0.00    +0.017 C 
ATOM     12  C   UNL     1      -5.538  -1.478  24.111  0.00  0.00    +0.085 C 
BRANCH   5  13
ATOM     13  C   UNL     1      -5.264   0.758  24.999  0.00  0.00    +0.159 C 
BRANCH  13  15
ATOM      2  O   UNL     1      -4.522   2.981  25.659  0.00  0.00    -0.467 OA
ATOM     15  C   UNL     1      -4.572   2.053  24.667  0.00  0.00    +0.119 A 
ATOM     16  C   UNL     1      -3.952   2.524  23.533  0.00  0.00    +0.046 A 
ATOM     18  C   UNL     1      -3.491   3.825  23.848  0.00  0.00    +0.041 A 
ATOM     20  C   UNL     1      -3.863   4.056  25.152  0.00  0.00    +0.195 A 
ENDBRANCH  13  15
ENDBRANCH   5  13
ENDBRANCH  14   9
TORSDOF 8
ENDMDL
MODEL 5
REMARK VINA RESULT:       0.7      1.965      3.625
REMARK  Name = 45783552
REMARK  9 active torsions:
REMARK  status: ('A' for Active; 'I' for Inactive)
REMARK    1  A    between atoms: O_3  and  C_24
REMARK    2  A    between atoms: O_3  and  C_25
REMARK    3  A    between atoms: O_4  and  C_26
REMARK    4  A    between atoms: O_4  and  C_27
REMARK    5  A    between atoms: N_5  and  C_13
REMARK    6  A    between atoms: C_9  and  C_14
REMARK    7  A    between atoms: C_13  and  C_15
REMARK    8  A    between atoms: C_17  and  C_19
REMARK    9  A    between atoms: C_25  and  C_26
REMARK                            x       y       z     vdW  Elec       q    Type
REMARK                         _______ _______ _______ _____ _____    ______ ____
ROOT
ATOM      1  O   UNL     1      -2.717   2.278  22.213  0.00  0.00    -0.336 OA
ATOM      6  N   UNL     1      -1.989   1.289  24.087  0.00  0.00    -0.190 NA
ATOM      7  N   UNL     1      -1.493   1.677  21.887  0.00  0.00    -0.056 NA
ATOM     14  C   UNL     1      -2.934   2.001  23.525  0.00  0.00    +0.245 A 
ATOM     17  C   UNL     1      -1.128   1.115  23.043  0.00  0.00    +0.204 A 
ENDROOT
BRANCH  17  19
ATOM      8  N   UNL     1       1.301  -1.422  24.264  0.00  0.00    -0.221 NA
ATOM     19  C   UNL     1       0.091   0.374  23.189  0.00  0.00    +0.041 A 
ATOM     21  C   UNL     1       1.220   0.698  22.444  0.00  0.00    +0.018 A 
ATOM     22  C   UNL     1       0.183  -0.685  24.077  0.00  0.00    +0.126 A 
ATOM     23  C   UNL     1       2.389  -0.036  22.609  0.00  0.00    +0.068 A 
ATOM     24  C   UNL     1       2.378  -1.078  23.523  0.00  0.00    +0.215 A 
BRANCH  24   3
ATOM      3  O   UNL     1       3.518  -1.817  23.703  0.00  0.00    -0.474 OA
BRANCH   3  25
ATOM     25  C   UNL     1       4.582  -1.189  24.409  0.00  0.00    +0.258 C 
BRANCH  25  26
ATOM     26  C   UNL     1       5.837  -1.241  23.560  0.00  0.00    +0.200 C 
BRANCH  26   4
ATOM      4  O   UNL     1       6.016   0.017  22.920  0.00  0.00    -0.380 OA
ATOM     27  C   UNL     1       5.485   1.079  23.700  0.00  0.00    +0.194 C 
ENDBRANCH  26   4
ENDBRANCH  25  26
ENDBRANCH   3  25
ENDBRANCH  24   3
ENDBRANCH  17  19
BRANCH  14   9
ATOM      5  N   UNL     1      -4.616   1.827  25.351  0.00  0.00    -0.284 NA
ATOM      9  C   UNL     1      -4.212   2.547  24.127  0.00  0.00    +0.146 C 
ATOM     10  C   UNL     1      -4.082   4.019  24.564  0.00  0.00    +0.030 C 
ATOM     11  C   UNL     1      -4.491   4.036  26.029  0.00  0.00    +0.017 C 
ATOM     12  C   UNL     1      -5.343   2.791  26.176  0.00  0.00    +0.085 C 
BRANCH   5  13
ATOM     13  C   UNL     1      -5.405   0.633  25.080  0.00  0.00    +0.159 C 
BRANCH  13  15
ATOM      2  O   UNL     1      -3.739  -0.921  25.940  0.00  0.00    -0.467 OA
ATOM     15  C   UNL     1      -4.536  -0.583  24.892  0.00  0.00    +0.119 A 
ATOM     16  C   UNL     1      -4.364  -1.464  23.851  0.00  0.00    +0.046 A 
ATOM     18  C   UNL     1      -3.399  -2.405  24.286  0.00  0.00    +0.041 A 
ATOM     20  C   UNL     1      -3.051  -2.029  25.563  0.00  0.00    +0.195 A 
ENDBRANCH  13  15
ENDBRANCH   5  13
ENDBRANCH  14   9
TORSDOF 8
ENDMDL
