MODEL 1
REMARK VINA RESULT:      -3.7      0.000      0.000
REMARK  Name = 26743127
REMARK  9 active torsions:
REMARK  status: ('A' for Active; 'I' for Inactive)
REMARK    1  A    between atoms: S_1  and  C_20
REMARK    2  A    between atoms: S_1  and  C_24
REMARK    3  A    between atoms: N_6  and  C_19
REMARK    4  A    between atoms: C_8  and  C_14
REMARK    5  A    between atoms: C_9  and  C_13
REMARK    6  A    between atoms: C_13  and  C_15
REMARK    7  A    between atoms: C_14  and  C_16
REMARK    8  A    between atoms: C_18  and  C_20
REMARK    9  A    between atoms: C_19  and  C_21
REMARK                            x       y       z     vdW  Elec       q    Type
REMARK                         _______ _______ _______ _____ _____    ______ ____
ROOT
ATOM      5  N   UNL     1      -3.477  -3.425  23.817  0.00  0.00    -0.316 NA
ATOM      8  C   UNL     1      -1.819  -1.407  25.142  0.00  0.00    +0.004 C 
ATOM      9  C   UNL     1      -3.362  -1.294  25.109  0.00  0.00    +0.012 C 
ATOM     10  C   UNL     1      -1.303  -2.246  23.964  0.00  0.00    +0.019 C 
ATOM     11  C   UNL     1      -3.976  -2.702  24.990  0.00  0.00    +0.085 C 
ATOM     12  C   UNL     1      -2.025  -3.590  23.876  0.00  0.00    +0.081 C 
ATOM     31  H   UNL     1      -3.730  -2.926  22.966  0.00  0.00    +0.122 HD
ENDROOT
BRANCH   9  13
ATOM     13  C   UNL     1      -3.894  -0.373  24.003  0.00  0.00    +0.064 C 
BRANCH  13  15
ATOM      4  O   UNL     1      -5.754   2.151  25.771  0.00  0.00    -0.359 OA
ATOM      7  N   UNL     1      -5.473   0.829  25.452  0.00  0.00    -0.083 NA
ATOM     15  C   UNL     1      -4.468   0.890  24.573  0.00  0.00    +0.084 A 
ATOM     17  C   UNL     1      -4.076   2.214  24.302  0.00  0.00    +0.071 A 
ATOM     18  C   UNL     1      -4.915   2.967  25.081  0.00  0.00    +0.148 A 
BRANCH  18  20
ATOM     20  C   UNL     1      -5.076   4.409  25.300  0.00  0.00    +0.151 C 
BRANCH  20   1
ATOM      1  S   UNL     1      -3.939   5.077  26.566  0.00  0.00    -0.117 S 
BRANCH   1  24
ATOM     24  C   UNL     1      -2.363   4.512  25.943  0.00  0.00    +0.008 A 
ATOM     26  C   UNL     1      -1.713   5.227  24.937  0.00  0.00    +0.015 A 
ATOM     27  C   UNL     1      -1.783   3.354  26.461  0.00  0.00    +0.015 A 
ATOM     28  C   UNL     1      -0.482   4.785  24.450  0.00  0.00    +0.001 A 
ATOM     29  C   UNL     1      -0.553   2.912  25.975  0.00  0.00    +0.001 A 
ATOM     30  C   UNL     1       0.097   3.628  24.968  0.00  0.00    +0.000 A 
ENDBRANCH   1  24
ENDBRANCH  20   1
ENDBRANCH  18  20
ENDBRANCH  13  15
ENDBRANCH   9  13
BRANCH   8  14
ATOM     14  C   UNL     1      -1.112  -0.054  25.197  0.00  0.00    +0.099 C 
BRANCH  14  16
ATOM      3  O   UNL     1      -1.017   0.988  23.015  0.00  0.00    -0.276 OA
ATOM      6  N   UNL     1       0.812  -0.224  23.781  0.00  0.00    -0.311 N 
ATOM     16  C   UNL     1      -0.466   0.309  23.878  0.00  0.00    +0.214 C 
ATOM     32  H   UNL     1       1.171  -0.812  24.526  0.00  0.00    +0.149 HD
BRANCH   6  19
ATOM     19  C   UNL     1       1.660  -0.037  22.627  0.00  0.00    +0.146 C 
BRANCH  19  21
ATOM      2  S   UNL     1       3.814  -1.396  23.736  0.00  0.00    -0.100 S 
ATOM     21  C   UNL     1       3.115  -0.018  22.996  0.00  0.00    +0.007 A 
ATOM     22  C   UNL     1       4.031   0.996  22.822  0.00  0.00    +0.013 A 
ATOM     23  C   UNL     1       5.323   0.637  23.302  0.00  0.00    +0.008 A 
ATOM     25  C   UNL     1       5.346  -0.637  23.825  0.00  0.00    +0.045 A 
ENDBRANCH  19  21
ENDBRANCH   6  19
ENDBRANCH  14  16
ENDBRANCH   8  14
TORSDOF 9
ENDMDL
MODEL 2
REMARK VINA RESULT:      -2.6      2.002      6.889
REMARK  Name = 26743127
REMARK  9 active torsions:
REMARK  status: ('A' for Active; 'I' for Inactive)
REMARK    1  A    between atoms: S_1  and  C_20
REMARK    2  A    between atoms: S_1  and  C_24
REMARK    3  A    between atoms: N_6  and  C_19
REMARK    4  A    between atoms: C_8  and  C_14
REMARK    5  A    between atoms: C_9  and  C_13
REMARK    6  A    between atoms: C_13  and  C_15
REMARK    7  A    between atoms: C_14  and  C_16
REMARK    8  A    between atoms: C_18  and  C_20
REMARK    9  A    between atoms: C_19  and  C_21
REMARK                            x       y       z     vdW  Elec       q    Type
REMARK                         _______ _______ _______ _____ _____    ______ ____
ROOT
ATOM      5  N   UNL     1      -1.055   3.693  23.585  0.00  0.00    -0.316 NA
ATOM      8  C   UNL     1      -3.605   3.931  25.005  0.00  0.00    +0.004 C 
ATOM      9  C   UNL     1      -2.258   4.255  25.696  0.00  0.00    +0.012 C 
ATOM     10  C   UNL     1      -3.404   2.951  23.841  0.00  0.00    +0.019 C 
ATOM     11  C   UNL     1      -1.233   4.698  24.636  0.00  0.00    +0.085 C 
ATOM     12  C   UNL     1      -2.312   3.431  22.886  0.00  0.00    +0.081 C 
ATOM     31  H   UNL     1      -0.700   2.827  23.986  0.00  0.00    +0.122 HD
ENDROOT
BRANCH   9  13
ATOM     13  C   UNL     1      -1.702   3.102  26.543  0.00  0.00    +0.064 C 
BRANCH  13  15
ATOM      4  O   UNL     1       0.985   1.531  24.736  0.00  0.00    -0.359 OA
ATOM      7  N   UNL     1       0.455   2.565  25.498  0.00  0.00    -0.083 NA
ATOM     15  C   UNL     1      -0.811   2.208  25.732  0.00  0.00    +0.084 A 
ATOM     17  C   UNL     1      -1.134   0.970  25.148  0.00  0.00    +0.071 A 
ATOM     18  C   UNL     1       0.030   0.588  24.534  0.00  0.00    +0.148 A 
BRANCH  18  20
ATOM     20  C   UNL     1       0.422  -0.583  23.741  0.00  0.00    +0.151 C 
BRANCH  20   1
ATOM      1  S   UNL     1       1.394  -0.154  22.253  0.00  0.00    -0.117 S 
BRANCH   1  24
ATOM     24  C   UNL     1       3.057  -0.209  22.905  0.00  0.00    +0.008 A 
ATOM     26  C   UNL     1       3.535  -1.376  23.502  0.00  0.00    +0.015 A 
ATOM     27  C   UNL     1       3.878   0.916  22.817  0.00  0.00    +0.015 A 
ATOM     28  C   UNL     1       4.834  -1.418  24.011  0.00  0.00    +0.001 A 
ATOM     29  C   UNL     1       5.175   0.874  23.326  0.00  0.00    +0.001 A 
ATOM     30  C   UNL     1       5.653  -0.293  23.923  0.00  0.00    +0.000 A 
ENDBRANCH   1  24
ENDBRANCH  20   1
ENDBRANCH  18  20
ENDBRANCH  13  15
ENDBRANCH   9  13
BRANCH   8  14
ATOM     14  C   UNL     1      -4.674   3.420  25.969  0.00  0.00    +0.099 C 
BRANCH  14  16
ATOM      3  O   UNL     1      -6.687   2.402  25.094  0.00  0.00    -0.276 OA
ATOM      6  N   UNL     1      -4.727   1.157  25.188  0.00  0.00    -0.311 N 
ATOM     16  C   UNL     1      -5.495   2.298  25.372  0.00  0.00    +0.214 C 
ATOM     32  H   UNL     1      -3.758   1.147  25.489  0.00  0.00    +0.149 HD
BRANCH   6  19
ATOM     19  C   UNL     1      -5.254  -0.069  24.635  0.00  0.00    +0.146 C 
BRANCH  19  21
ATOM      2  S   UNL     1      -3.097  -1.264  25.913  0.00  0.00    -0.100 S 
ATOM     21  C   UNL     1      -4.233  -1.169  24.635  0.00  0.00    +0.007 A 
ATOM     22  C   UNL     1      -4.058  -2.177  23.711  0.00  0.00    +0.013 A 
ATOM     23  C   UNL     1      -2.976  -3.037  24.057  0.00  0.00    +0.008 A 
ATOM     25  C   UNL     1      -2.366  -2.655  25.231  0.00  0.00    +0.045 A 
ENDBRANCH  19  21
ENDBRANCH   6  19
ENDBRANCH  14  16
ENDBRANCH   8  14
TORSDOF 9
ENDMDL
MODEL 3
REMARK VINA RESULT:      -2.0     14.305     16.898
REMARK  Name = 26743127
REMARK  9 active torsions:
REMARK  status: ('A' for Active; 'I' for Inactive)
REMARK    1  A    between atoms: S_1  and  C_20
REMARK    2  A    between atoms: S_1  and  C_24
REMARK    3  A    between atoms: N_6  and  C_19
REMARK    4  A    between atoms: C_8  and  C_14
REMARK    5  A    between atoms: C_9  and  C_13
REMARK    6  A    between atoms: C_13  and  C_15
REMARK    7  A    between atoms: C_14  and  C_16
REMARK    8  A    between atoms: C_18  and  C_20
REMARK    9  A    between atoms: C_19  and  C_21
REMARK                            x       y       z     vdW  Elec       q    Type
REMARK                         _______ _______ _______ _____ _____    ______ ____
ROOT
ATOM      5  N   UNL     1       0.942  -7.843  12.842  0.00  0.00    -0.316 NA
ATOM      8  C   UNL     1      -1.339  -9.046  11.455  0.00  0.00    +0.004 C 
ATOM      9  C   UNL     1      -1.382  -8.740  12.972  0.00  0.00    +0.012 C 
ATOM     10  C   UNL     1       0.106  -9.235  10.971  0.00  0.00    +0.019 C 
ATOM     11  C   UNL     1      -0.428  -7.572  13.285  0.00  0.00    +0.085 C 
ATOM     12  C   UNL     1       0.996  -8.068  11.398  0.00  0.00    +0.081 C 
ATOM     31  H   UNL     1       1.312  -8.656  13.329  0.00  0.00    +0.122 HD
ENDROOT
BRANCH   9  13
ATOM     13  C   UNL     1      -1.067  -9.952  13.858  0.00  0.00    +0.064 C 
BRANCH  13  15
ATOM      4  O   UNL     1      -3.187 -10.761  16.652  0.00  0.00    -0.359 OA
ATOM      7  N   UNL     1      -1.942 -10.546  16.075  0.00  0.00    -0.083 NA
ATOM     15  C   UNL     1      -2.198 -10.251  14.798  0.00  0.00    +0.084 A 
ATOM     17  C   UNL     1      -3.575 -10.265  14.512  0.00  0.00    +0.071 A 
ATOM     18  C   UNL     1      -4.152 -10.590  15.712  0.00  0.00    +0.148 A 
BRANCH  18  20
ATOM     20  C   UNL     1      -5.539 -10.781  16.153  0.00  0.00    +0.151 C 
BRANCH  20   1
ATOM      1  S   UNL     1      -5.751 -10.609  17.960  0.00  0.00    -0.117 S 
BRANCH   1  24
ATOM     24  C   UNL     1      -7.488 -10.204  18.062  0.00  0.00    +0.008 A 
ATOM     26  C   UNL     1      -8.236 -10.607  19.169  0.00  0.00    +0.015 A 
ATOM     27  C   UNL     1      -8.098  -9.484  17.034  0.00  0.00    +0.015 A 
ATOM     28  C   UNL     1      -9.592 -10.290  19.248  0.00  0.00    +0.001 A 
ATOM     29  C   UNL     1      -9.454  -9.167  17.113  0.00  0.00    +0.001 A 
ATOM     30  C   UNL     1     -10.201  -9.571  18.220  0.00  0.00    +0.000 A 
ENDBRANCH   1  24
ENDBRANCH  20   1
ENDBRANCH  18  20
ENDBRANCH  13  15
ENDBRANCH   9  13
BRANCH   8  14
ATOM     14  C   UNL     1      -2.208 -10.236  11.051  0.00  0.00    +0.099 C 
BRANCH  14  16
ATOM      3  O   UNL     1      -3.450  -8.870   9.487  0.00  0.00    -0.276 OA
ATOM      6  N   UNL     1      -4.525 -10.616  10.579  0.00  0.00    -0.311 N 
ATOM     16  C   UNL     1      -3.437  -9.811  10.276  0.00  0.00    +0.214 C 
ATOM     32  H   UNL     1      -4.435 -11.344  11.280  0.00  0.00    +0.149 HD
BRANCH   6  19
ATOM     19  C   UNL     1      -5.830 -10.436   9.986  0.00  0.00    +0.146 C 
BRANCH  19  21
ATOM      2  S   UNL     1      -6.481 -10.307  12.683  0.00  0.00    -0.100 S 
ATOM     21  C   UNL     1      -6.892 -10.212  11.023  0.00  0.00    +0.007 A 
ATOM     22  C   UNL     1      -8.226  -9.924  10.836  0.00  0.00    +0.013 A 
ATOM     23  C   UNL     1      -8.920  -9.780  12.072  0.00  0.00    +0.008 A 
ATOM     25  C   UNL     1      -8.090  -9.963  13.156  0.00  0.00    +0.045 A 
ENDBRANCH  19  21
ENDBRANCH   6  19
ENDBRANCH  14  16
ENDBRANCH   8  14
TORSDOF 9
ENDMDL
MODEL 4
REMARK VINA RESULT:      -1.7      2.091      7.142
REMARK  Name = 26743127
REMARK  9 active torsions:
REMARK  status: ('A' for Active; 'I' for Inactive)
REMARK    1  A    between atoms: S_1  and  C_20
REMARK    2  A    between atoms: S_1  and  C_24
REMARK    3  A    between atoms: N_6  and  C_19
REMARK    4  A    between atoms: C_8  and  C_14
REMARK    5  A    between atoms: C_9  and  C_13
REMARK    6  A    between atoms: C_13  and  C_15
REMARK    7  A    between atoms: C_14  and  C_16
REMARK    8  A    between atoms: C_18  and  C_20
REMARK    9  A    between atoms: C_19  and  C_21
REMARK                            x       y       z     vdW  Elec       q    Type
REMARK                         _______ _______ _______ _____ _____    ______ ____
ROOT
ATOM      5  N   UNL     1      -0.549   4.465  25.015  0.00  0.00    -0.316 NA
ATOM      8  C   UNL     1      -3.428   4.375  25.540  0.00  0.00    +0.004 C 
ATOM      9  C   UNL     1      -2.566   3.089  25.526  0.00  0.00    +0.012 C 
ATOM     10  C   UNL     1      -2.785   5.479  24.689  0.00  0.00    +0.019 C 
ATOM     11  C   UNL     1      -1.114   3.443  25.899  0.00  0.00    +0.085 C 
ATOM     12  C   UNL     1      -1.324   5.703  25.074  0.00  0.00    +0.081 C 
ATOM     31  H   UNL     1      -0.525   4.122  24.057  0.00  0.00    +0.122 HD
ENDROOT
BRANCH   9  13
ATOM     13  C   UNL     1      -2.614   2.324  24.197  0.00  0.00    +0.064 C 
BRANCH  13  15
ATOM      4  O   UNL     1      -0.046  -0.123  24.807  0.00  0.00    -0.359 OA
ATOM      7  N   UNL     1      -1.016   0.775  25.235  0.00  0.00    -0.083 NA
ATOM     15  C   UNL     1      -1.522   1.299  24.115  0.00  0.00    +0.084 A 
ATOM     17  C   UNL     1      -0.916   0.775  22.959  0.00  0.00    +0.071 A 
ATOM     18  C   UNL     1       0.004  -0.114  23.450  0.00  0.00    +0.148 A 
BRANCH  18  20
ATOM     20  C   UNL     1       0.983  -1.012  22.824  0.00  0.00    +0.151 C 
BRANCH  20   1
ATOM      1  S   UNL     1       2.185  -0.138  21.760  0.00  0.00    -0.117 S 
BRANCH   1  24
ATOM     24  C   UNL     1       3.652  -0.202  22.779  0.00  0.00    +0.008 A 
ATOM     26  C   UNL     1       4.465   0.925  22.905  0.00  0.00    +0.015 A 
ATOM     27  C   UNL     1       3.985  -1.380  23.449  0.00  0.00    +0.015 A 
ATOM     28  C   UNL     1       5.609   0.874  23.700  0.00  0.00    +0.001 A 
ATOM     29  C   UNL     1       5.129  -1.431  24.244  0.00  0.00    +0.001 A 
ATOM     30  C   UNL     1       5.942  -0.303  24.369  0.00  0.00    +0.000 A 
ENDBRANCH   1  24
ENDBRANCH  20   1
ENDBRANCH  18  20
ENDBRANCH  13  15
ENDBRANCH   9  13
BRANCH   8  14
ATOM     14  C   UNL     1      -4.878   4.137  25.120  0.00  0.00    +0.099 C 
BRANCH  14  16
ATOM      3  O   UNL     1      -5.812   2.632  26.767  0.00  0.00    -0.276 OA
ATOM      6  N   UNL     1      -5.380   1.849  24.623  0.00  0.00    -0.311 N 
ATOM     16  C   UNL     1      -5.410   2.812  25.620  0.00  0.00    +0.214 C 
ATOM     32  H   UNL     1      -4.987   2.075  23.715  0.00  0.00    +0.149 HD
BRANCH   6  19
ATOM     19  C   UNL     1      -5.827   0.490  24.823  0.00  0.00    +0.146 C 
BRANCH  19  21
ATOM      2  S   UNL     1      -4.221  -1.458  23.666  0.00  0.00    -0.100 S 
ATOM     21  C   UNL     1      -4.678  -0.462  24.982  0.00  0.00    +0.007 A 
ATOM     22  C   UNL     1      -3.884  -0.671  26.089  0.00  0.00    +0.013 A 
ATOM     23  C   UNL     1      -2.889  -1.663  25.853  0.00  0.00    +0.008 A 
ATOM     25  C   UNL     1      -2.959  -2.173  24.576  0.00  0.00    +0.045 A 
ENDBRANCH  19  21
ENDBRANCH   6  19
ENDBRANCH  14  16
ENDBRANCH   8  14
TORSDOF 9
ENDMDL
MODEL 5
REMARK VINA RESULT:      -0.9      2.194      4.651
REMARK  Name = 26743127
REMARK  9 active torsions:
REMARK  status: ('A' for Active; 'I' for Inactive)
REMARK    1  A    between atoms: S_1  and  C_20
REMARK    2  A    between atoms: S_1  and  C_24
REMARK    3  A    between atoms: N_6  and  C_19
REMARK    4  A    between atoms: C_8  and  C_14
REMARK    5  A    between atoms: C_9  and  C_13
REMARK    6  A    between atoms: C_13  and  C_15
REMARK    7  A    between atoms: C_14  and  C_16
REMARK    8  A    between atoms: C_18  and  C_20
REMARK    9  A    between atoms: C_19  and  C_21
REMARK                            x       y       z     vdW  Elec       q    Type
REMARK                         _______ _______ _______ _____ _____    ______ ____
ROOT
ATOM      5  N   UNL     1      -2.395   4.958  25.620  0.00  0.00    -0.316 NA
ATOM      8  C   UNL     1      -0.622   2.651  25.291  0.00  0.00    +0.004 C 
ATOM      9  C   UNL     1      -0.740   3.745  24.202  0.00  0.00    +0.012 C 
ATOM     10  C   UNL     1      -1.892   2.591  26.152  0.00  0.00    +0.019 C 
ATOM     11  C   UNL     1      -1.150   5.077  24.858  0.00  0.00    +0.085 C 
ATOM     12  C   UNL     1      -2.267   3.971  26.691  0.00  0.00    +0.081 C 
ATOM     31  H   UNL     1      -3.159   4.693  25.002  0.00  0.00    +0.122 HD
ENDROOT
BRANCH   9  13
ATOM     13  C   UNL     1      -1.699   3.384  23.060  0.00  0.00    +0.064 C 
BRANCH  13  15
ATOM      4  O   UNL     1      -4.873   2.309  24.374  0.00  0.00    -0.359 OA
ATOM      7  N   UNL     1      -3.974   3.293  23.982  0.00  0.00    -0.083 NA
ATOM     15  C   UNL     1      -2.892   2.628  23.566  0.00  0.00    +0.084 A 
ATOM     17  C   UNL     1      -3.049   1.234  23.671  0.00  0.00    +0.071 A 
ATOM     18  C   UNL     1      -4.311   1.087  24.184  0.00  0.00    +0.148 A 
BRANCH  18  20
ATOM     20  C   UNL     1      -5.129  -0.075  24.549  0.00  0.00    +0.151 C 
BRANCH  20   1
ATOM      1  S   UNL     1      -4.476  -1.652  23.894  0.00  0.00    -0.117 S 
BRANCH   1  24
ATOM     24  C   UNL     1      -2.885  -1.724  24.703  0.00  0.00    +0.008 A 
ATOM     26  C   UNL     1      -2.699  -1.099  25.937  0.00  0.00    +0.015 A 
ATOM     27  C   UNL     1      -1.826  -2.405  24.101  0.00  0.00    +0.015 A 
ATOM     28  C   UNL     1      -1.456  -1.154  26.568  0.00  0.00    +0.001 A 
ATOM     29  C   UNL     1      -0.584  -2.461  24.732  0.00  0.00    +0.001 A 
ATOM     30  C   UNL     1      -0.399  -1.835  25.966  0.00  0.00    +0.000 A 
ENDBRANCH   1  24
ENDBRANCH  20   1
ENDBRANCH  18  20
ENDBRANCH  13  15
ENDBRANCH   9  13
BRANCH   8  14
ATOM     14  C   UNL     1      -0.279   1.272  24.730  0.00  0.00    +0.099 C 
BRANCH  14  16
ATOM      3  O   UNL     1       1.731   2.249  23.802  0.00  0.00    -0.276 OA
ATOM      6  N   UNL     1       1.066   0.134  23.108  0.00  0.00    -0.311 N 
ATOM     16  C   UNL     1       0.950   1.302  23.846  0.00  0.00    +0.214 C 
ATOM     32  H   UNL     1       0.347  -0.579  23.174  0.00  0.00    +0.149 HD
BRANCH   6  19
ATOM     19  C   UNL     1       2.145  -0.109  22.178  0.00  0.00    +0.146 C 
BRANCH  19  21
ATOM      2  S   UNL     1       3.951  -1.475  23.787  0.00  0.00    -0.100 S 
ATOM     21  C   UNL     1       3.482  -0.113  22.860  0.00  0.00    +0.007 A 
ATOM     22  C   UNL     1       4.451   0.867  22.855  0.00  0.00    +0.013 A 
ATOM     23  C   UNL     1       5.592   0.494  23.623  0.00  0.00    +0.008 A 
ATOM     25  C   UNL     1       5.453  -0.756  24.185  0.00  0.00    +0.045 A 
ENDBRANCH  19  21
ENDBRANCH   6  19
ENDBRANCH  14  16
ENDBRANCH   8  14
TORSDOF 9
ENDMDL
MODEL 6
REMARK VINA RESULT:      -0.4      2.117      6.651
REMARK  Name = 26743127
REMARK  9 active torsions:
REMARK  status: ('A' for Active; 'I' for Inactive)
REMARK    1  A    between atoms: S_1  and  C_20
REMARK    2  A    between atoms: S_1  and  C_24
REMARK    3  A    between atoms: N_6  and  C_19
REMARK    4  A    between atoms: C_8  and  C_14
REMARK    5  A    between atoms: C_9  and  C_13
REMARK    6  A    between atoms: C_13  and  C_15
REMARK    7  A    between atoms: C_14  and  C_16
REMARK    8  A    between atoms: C_18  and  C_20
REMARK    9  A    between atoms: C_19  and  C_21
REMARK                            x       y       z     vdW  Elec       q    Type
REMARK                         _______ _______ _______ _____ _____    ______ ____
ROOT
ATOM      5  N   UNL     1      -3.417   5.168  26.536  0.00  0.00    -0.316 NA
ATOM      8  C   UNL     1      -4.327   2.808  25.060  0.00  0.00    +0.004 C 
ATOM      9  C   UNL     1      -2.861   2.952  25.535  0.00  0.00    +0.012 C 
ATOM     10  C   UNL     1      -4.990   4.183  24.895  0.00  0.00    +0.019 C 
ATOM     11  C   UNL     1      -2.814   3.856  26.781  0.00  0.00    +0.085 C 
ATOM     12  C   UNL     1      -4.822   5.039  26.149  0.00  0.00    +0.081 C 
ATOM     31  H   UNL     1      -2.905   5.657  25.805  0.00  0.00    +0.122 HD
ENDROOT
BRANCH   9  13
ATOM     13  C   UNL     1      -1.905   3.469  24.451  0.00  0.00    +0.064 C 
BRANCH  13  15
ATOM      4  O   UNL     1       1.110   1.521  24.185  0.00  0.00    -0.359 OA
ATOM      7  N   UNL     1       0.383   2.603  24.666  0.00  0.00    -0.083 NA
ATOM     15  C   UNL     1      -0.837   2.463  24.140  0.00  0.00    +0.084 A 
ATOM     17  C   UNL     1      -0.939   1.320  23.326  0.00  0.00    +0.071 A 
ATOM     18  C   UNL     1       0.311   0.764  23.388  0.00  0.00    +0.148 A 
BRANCH  18  20
ATOM     20  C   UNL     1       0.923  -0.429  22.791  0.00  0.00    +0.151 C 
BRANCH  20   1
ATOM      1  S   UNL     1       2.291  -0.040  21.642  0.00  0.00    -0.117 S 
BRANCH   1  24
ATOM     24  C   UNL     1       3.701  -0.183  22.730  0.00  0.00    +0.008 A 
ATOM     26  C   UNL     1       4.542   0.913  22.932  0.00  0.00    +0.015 A 
ATOM     27  C   UNL     1       3.962  -1.390  23.379  0.00  0.00    +0.015 A 
ATOM     28  C   UNL     1       5.642   0.801  23.781  0.00  0.00    +0.001 A 
ATOM     29  C   UNL     1       5.062  -1.502  24.228  0.00  0.00    +0.001 A 
ATOM     30  C   UNL     1       5.903  -0.406  24.429  0.00  0.00    +0.000 A 
ENDBRANCH   1  24
ENDBRANCH  20   1
ENDBRANCH  18  20
ENDBRANCH  13  15
ENDBRANCH   9  13
BRANCH   8  14
ATOM     14  C   UNL     1      -4.473   1.976  23.787  0.00  0.00    +0.099 C 
BRANCH  14  16
ATOM      3  O   UNL     1      -3.787  -0.246  23.120  0.00  0.00    -0.276 OA
ATOM      6  N   UNL     1      -4.305   0.168  25.348  0.00  0.00    -0.311 N 
ATOM     16  C   UNL     1      -4.145   0.517  24.014  0.00  0.00    +0.214 C 
ATOM     32  H   UNL     1      -4.649   0.854  26.011  0.00  0.00    +0.149 HD
BRANCH   6  19
ATOM     19  C   UNL     1      -4.062  -1.165  25.850  0.00  0.00    +0.146 C 
BRANCH  19  21
ATOM      2  S   UNL     1      -1.322  -0.894  26.224  0.00  0.00    -0.100 S 
ATOM     21  C   UNL     1      -2.683  -1.650  25.509  0.00  0.00    +0.007 A 
ATOM     22  C   UNL     1      -2.319  -2.672  24.659  0.00  0.00    +0.013 A 
ATOM     23  C   UNL     1      -0.905  -2.836  24.594  0.00  0.00    +0.008 A 
ATOM     25  C   UNL     1      -0.242  -1.933  25.396  0.00  0.00    +0.045 A 
ENDBRANCH  19  21
ENDBRANCH   6  19
ENDBRANCH  14  16
ENDBRANCH   8  14
TORSDOF 9
ENDMDL
MODEL 7
REMARK VINA RESULT:      -0.4      2.333      4.342
REMARK  Name = 26743127
REMARK  9 active torsions:
REMARK  status: ('A' for Active; 'I' for Inactive)
REMARK    1  A    between atoms: S_1  and  C_20
REMARK    2  A    between atoms: S_1  and  C_24
REMARK    3  A    between atoms: N_6  and  C_19
REMARK    4  A    between atoms: C_8  and  C_14
REMARK    5  A    between atoms: C_9  and  C_13
REMARK    6  A    between atoms: C_13  and  C_15
REMARK    7  A    between atoms: C_14  and  C_16
REMARK    8  A    between atoms: C_18  and  C_20
REMARK    9  A    between atoms: C_19  and  C_21
REMARK                            x       y       z     vdW  Elec       q    Type
REMARK                         _______ _______ _______ _____ _____    ______ ____
ROOT
ATOM      5  N   UNL     1      -0.722   2.532  26.554  0.00  0.00    -0.316 NA
ATOM      8  C   UNL     1       0.112   0.755  24.380  0.00  0.00    +0.004 C 
ATOM      9  C   UNL     1       0.504   2.252  24.400  0.00  0.00    +0.012 C 
ATOM     10  C   UNL     1      -1.169   0.511  25.192  0.00  0.00    +0.019 C 
ATOM     11  C   UNL     1       0.547   2.750  25.856  0.00  0.00    +0.085 C 
ATOM     12  C   UNL     1      -1.065   1.111  26.594  0.00  0.00    +0.081 C 
ATOM     31  H   UNL     1      -1.468   3.050  26.093  0.00  0.00    +0.122 HD
ENDROOT
BRANCH   9  13
ATOM     13  C   UNL     1      -0.407   3.144  23.546  0.00  0.00    +0.064 C 
BRANCH  13  15
ATOM      4  O   UNL     1      -3.520   3.749  25.249  0.00  0.00    -0.359 OA
ATOM      7  N   UNL     1      -2.179   4.018  25.005  0.00  0.00    -0.083 NA
ATOM     15  C   UNL     1      -1.815   3.142  24.065  0.00  0.00    +0.084 A 
ATOM     17  C   UNL     1      -2.875   2.302  23.678  0.00  0.00    +0.071 A 
ATOM     18  C   UNL     1      -3.923   2.725  24.452  0.00  0.00    +0.148 A 
BRANCH  18  20
ATOM     20  C   UNL     1      -5.324   2.307  24.581  0.00  0.00    +0.151 C 
BRANCH  20   1
ATOM      1  S   UNL     1      -5.599   1.114  25.938  0.00  0.00    -0.117 S 
BRANCH   1  24
ATOM     24  C   UNL     1      -4.663  -0.291  25.352  0.00  0.00    +0.008 A 
ATOM     26  C   UNL     1      -3.879  -1.028  26.240  0.00  0.00    +0.015 A 
ATOM     27  C   UNL     1      -4.716  -0.651  24.005  0.00  0.00    +0.015 A 
ATOM     28  C   UNL     1      -3.148  -2.124  25.782  0.00  0.00    +0.001 A 
ATOM     29  C   UNL     1      -3.986  -1.747  23.547  0.00  0.00    +0.001 A 
ATOM     30  C   UNL     1      -3.201  -2.484  24.436  0.00  0.00    +0.000 A 
ENDBRANCH   1  24
ENDBRANCH  20   1
ENDBRANCH  18  20
ENDBRANCH  13  15
ENDBRANCH   9  13
BRANCH   8  14
ATOM     14  C   UNL     1      -0.020   0.180  22.971  0.00  0.00    +0.099 C 
BRANCH  14  16
ATOM      3  O   UNL     1       1.502  -0.528  21.229  0.00  0.00    -0.276 OA
ATOM      6  N   UNL     1       2.253   0.930  22.876  0.00  0.00    -0.311 N 
ATOM     16  C   UNL     1       1.307   0.135  22.245  0.00  0.00    +0.214 C 
ATOM     32  H   UNL     1       2.016   1.407  23.739  0.00  0.00    +0.149 HD
BRANCH   6  19
ATOM     19  C   UNL     1       3.609   1.072  22.399  0.00  0.00    +0.146 C 
BRANCH  19  21
ATOM      2  S   UNL     1       4.087  -1.370  23.634  0.00  0.00    -0.100 S 
ATOM     21  C   UNL     1       4.567   0.206  23.165  0.00  0.00    +0.007 A 
ATOM     22  C   UNL     1       5.850   0.499  23.572  0.00  0.00    +0.013 A 
ATOM     23  C   UNL     1       6.446  -0.585  24.280  0.00  0.00    +0.008 A 
ATOM     25  C   UNL     1       5.597  -1.664  24.385  0.00  0.00    +0.045 A 
ENDBRANCH  19  21
ENDBRANCH   6  19
ENDBRANCH  14  16
ENDBRANCH   8  14
TORSDOF 9
ENDMDL
MODEL 8
REMARK VINA RESULT:      -0.1      1.937      3.262
REMARK  Name = 26743127
REMARK  9 active torsions:
REMARK  status: ('A' for Active; 'I' for Inactive)
REMARK    1  A    between atoms: S_1  and  C_20
REMARK    2  A    between atoms: S_1  and  C_24
REMARK    3  A    between atoms: N_6  and  C_19
REMARK    4  A    between atoms: C_8  and  C_14
REMARK    5  A    between atoms: C_9  and  C_13
REMARK    6  A    between atoms: C_13  and  C_15
REMARK    7  A    between atoms: C_14  and  C_16
REMARK    8  A    between atoms: C_18  and  C_20
REMARK    9  A    between atoms: C_19  and  C_21
REMARK                            x       y       z     vdW  Elec       q    Type
REMARK                         _______ _______ _______ _____ _____    ______ ____
ROOT
ATOM      5  N   UNL     1      -3.206  -2.348  25.283  0.00  0.00    -0.316 NA
ATOM      8  C   UNL     1      -1.255  -0.704  23.847  0.00  0.00    +0.004 C 
ATOM      9  C   UNL     1      -0.945  -1.296  25.244  0.00  0.00    +0.012 C 
ATOM     10  C   UNL     1      -2.768  -0.549  23.638  0.00  0.00    +0.019 C 
ATOM     11  C   UNL     1      -1.769  -2.581  25.448  0.00  0.00    +0.085 C 
ATOM     12  C   UNL     1      -3.511  -1.849  23.943  0.00  0.00    +0.081 C 
ATOM     31  H   UNL     1      -3.534  -1.681  25.978  0.00  0.00    +0.122 HD
ENDROOT
BRANCH   9  13
ATOM     13  C   UNL     1      -1.174  -0.313  26.399  0.00  0.00    +0.064 C 
BRANCH  13  15
ATOM      4  O   UNL     1       0.533   2.794  25.774  0.00  0.00    -0.359 OA
ATOM      7  N   UNL     1       0.495   1.481  26.229  0.00  0.00    -0.083 NA
ATOM     15  C   UNL     1      -0.763   1.080  26.022  0.00  0.00    +0.084 A 
ATOM     17  C   UNL     1      -1.557   2.087  25.444  0.00  0.00    +0.071 A 
ATOM     18  C   UNL     1      -0.695   3.143  25.309  0.00  0.00    +0.148 A 
BRANCH  18  20
ATOM     20  C   UNL     1      -0.835   4.507  24.786  0.00  0.00    +0.151 C 
BRANCH  20   1
ATOM      1  S   UNL     1      -2.343   5.354  25.376  0.00  0.00    -0.117 S 
BRANCH   1  24
ATOM     24  C   UNL     1      -3.574   4.088  25.104  0.00  0.00    +0.008 A 
ATOM     26  C   UNL     1      -3.672   3.465  23.859  0.00  0.00    +0.015 A 
ATOM     27  C   UNL     1      -4.438   3.722  26.137  0.00  0.00    +0.015 A 
ATOM     28  C   UNL     1      -4.633   2.476  23.648  0.00  0.00    +0.001 A 
ATOM     29  C   UNL     1      -5.399   2.734  25.925  0.00  0.00    +0.001 A 
ATOM     30  C   UNL     1      -5.497   2.111  24.680  0.00  0.00    +0.000 A 
ENDBRANCH   1  24
ENDBRANCH  20   1
ENDBRANCH  18  20
ENDBRANCH  13  15
ENDBRANCH   9  13
BRANCH   8  14
ATOM     14  C   UNL     1      -0.530   0.613  23.573  0.00  0.00    +0.099 C 
BRANCH  14  16
ATOM      3  O   UNL     1       0.852  -0.391  21.859  0.00  0.00    -0.276 OA
ATOM      6  N   UNL     1       1.757   1.242  23.243  0.00  0.00    -0.311 N 
ATOM     16  C   UNL     1       0.746   0.411  22.784  0.00  0.00    +0.214 C 
ATOM     32  H   UNL     1       1.593   1.842  24.044  0.00  0.00    +0.149 HD
BRANCH   6  19
ATOM     19  C   UNL     1       3.085   1.258  22.673  0.00  0.00    +0.146 C 
BRANCH  19  21
ATOM      2  S   UNL     1       5.547   0.584  23.768  0.00  0.00    -0.100 S 
ATOM     21  C   UNL     1       3.960   0.189  23.258  0.00  0.00    +0.007 A 
ATOM     22  C   UNL     1       3.668  -1.142  23.462  0.00  0.00    +0.013 A 
ATOM     23  C   UNL     1       4.762  -1.846  24.044  0.00  0.00    +0.008 A 
ATOM     25  C   UNL     1       5.847  -1.027  24.263  0.00  0.00    +0.045 A 
ENDBRANCH  19  21
ENDBRANCH   6  19
ENDBRANCH  14  16
ENDBRANCH   8  14
TORSDOF 9
ENDMDL
MODEL 9
REMARK VINA RESULT:       0.1      1.752      2.842
REMARK  Name = 26743127
REMARK  9 active torsions:
REMARK  status: ('A' for Active; 'I' for Inactive)
REMARK    1  A    between atoms: S_1  and  C_20
REMARK    2  A    between atoms: S_1  and  C_24
REMARK    3  A    between atoms: N_6  and  C_19
REMARK    4  A    between atoms: C_8  and  C_14
REMARK    5  A    between atoms: C_9  and  C_13
REMARK    6  A    between atoms: C_13  and  C_15
REMARK    7  A    between atoms: C_14  and  C_16
REMARK    8  A    between atoms: C_18  and  C_20
REMARK    9  A    between atoms: C_19  and  C_21
REMARK                            x       y       z     vdW  Elec       q    Type
REMARK                         _______ _______ _______ _____ _____    ______ ____
ROOT
ATOM      5  N   UNL     1      -4.339  -2.485  23.758  0.00  0.00    -0.316 NA
ATOM      8  C   UNL     1      -2.233  -1.239  25.366  0.00  0.00    +0.004 C 
ATOM      9  C   UNL     1      -3.208  -0.394  24.512  0.00  0.00    +0.012 C 
ATOM     10  C   UNL     1      -2.101  -2.662  24.805  0.00  0.00    +0.019 C 
ATOM     11  C   UNL     1      -4.535  -1.157  24.345  0.00  0.00    +0.085 C 
ATOM     12  C   UNL     1      -3.469  -3.310  24.595  0.00  0.00    +0.081 C 
ATOM     31  H   UNL     1      -3.936  -2.399  22.827  0.00  0.00    +0.122 HD
ENDROOT
BRANCH   9  13
ATOM     13  C   UNL     1      -2.641   0.018  23.147  0.00  0.00    +0.064 C 
BRANCH  13  15
ATOM      4  O   UNL     1      -1.629   3.408  22.487  0.00  0.00    -0.359 OA
ATOM      7  N   UNL     1      -2.243   2.216  22.125  0.00  0.00    -0.083 NA
ATOM     15  C   UNL     1      -2.090   1.413  23.182  0.00  0.00    +0.084 A 
ATOM     17  C   UNL     1      -1.393   2.038  24.232  0.00  0.00    +0.071 A 
ATOM     18  C   UNL     1      -1.127   3.291  23.744  0.00  0.00    +0.148 A 
BRANCH  18  20
ATOM     20  C   UNL     1      -0.440   4.467  24.288  0.00  0.00    +0.151 C 
BRANCH  20   1
ATOM      1  S   UNL     1      -1.576   5.677  25.054  0.00  0.00    -0.117 S 
BRANCH   1  24
ATOM     24  C   UNL     1      -3.007   4.652  25.364  0.00  0.00    +0.008 A 
ATOM     26  C   UNL     1      -3.207   4.095  26.627  0.00  0.00    +0.015 A 
ATOM     27  C   UNL     1      -3.925   4.409  24.341  0.00  0.00    +0.015 A 
ATOM     28  C   UNL     1      -4.324   3.295  26.868  0.00  0.00    +0.001 A 
ATOM     29  C   UNL     1      -5.041   3.609  24.582  0.00  0.00    +0.001 A 
ATOM     30  C   UNL     1      -5.240   3.051  25.846  0.00  0.00    +0.000 A 
ENDBRANCH   1  24
ENDBRANCH  20   1
ENDBRANCH  18  20
ENDBRANCH  13  15
ENDBRANCH   9  13
BRANCH   8  14
ATOM     14  C   UNL     1      -0.859  -0.592  25.538  0.00  0.00    +0.099 C 
BRANCH  14  16
ATOM      3  O   UNL     1       0.668  -2.317  24.798  0.00  0.00    -0.276 OA
ATOM      6  N   UNL     1       0.499  -0.345  23.581  0.00  0.00    -0.311 N 
ATOM     16  C   UNL     1       0.180  -1.203  24.623  0.00  0.00    +0.214 C 
ATOM     32  H   UNL     1       0.079   0.578  23.540  0.00  0.00    +0.149 HD
BRANCH   6  19
ATOM     19  C   UNL     1       1.465  -0.671  22.557  0.00  0.00    +0.146 C 
BRANCH  19  21
ATOM      2  S   UNL     1       3.902  -1.419  23.662  0.00  0.00    -0.100 S 
ATOM     21  C   UNL     1       2.856  -0.264  22.949  0.00  0.00    +0.007 A 
ATOM     22  C   UNL     1       3.460   0.967  22.816  0.00  0.00    +0.013 A 
ATOM     23  C   UNL     1       4.797   0.963  23.306  0.00  0.00    +0.008 A 
ATOM     25  C   UNL     1       5.166  -0.271  23.794  0.00  0.00    +0.045 A 
ENDBRANCH  19  21
ENDBRANCH   6  19
ENDBRANCH  14  16
ENDBRANCH   8  14
TORSDOF 9
ENDMDL
