MODEL 1
REMARK VINA RESULT:      11.2      0.000      0.000
REMARK  Name = 11885097
REMARK  15 active torsions:
REMARK  status: ('A' for Active; 'I' for Inactive)
REMARK    1  A    between atoms: O_2  and  C_14
REMARK    2  A    between atoms: O_3  and  C_19
REMARK    3  A    between atoms: N_7  and  C_25
REMARK    4  A    between atoms: C_9  and  C_17
REMARK    5  A    between atoms: C_11  and  C_19
REMARK    6  A    between atoms: C_11  and  C_20
REMARK    7  A    between atoms: C_12  and  C_22
REMARK    8  A    between atoms: C_22  and  C_23
REMARK    9  A    between atoms: C_25  and  C_27
REMARK   10  A    between atoms: C_25  and  C_28
REMARK   11  A    between atoms: C_26  and  C_29
REMARK   12  A    between atoms: C_29  and  C_32
REMARK   13  A    between atoms: C_32  and  C_33
REMARK   14  A    between atoms: C_33  and  C_37
REMARK   15  A    between atoms: C_37  and  C_38
REMARK                            x       y       z     vdW  Elec       q    Type
REMARK                         _______ _______ _______ _____ _____    ______ ____
ROOT
ATOM      1  S   UNL     1       0.590   2.053  25.143  0.00  0.00    -0.057 S 
ATOM      5  O   UNL     1       1.613  -0.106  21.142  0.00  0.00    -0.275 OA
ATOM      6  N   UNL     1      -0.383   1.204  22.902  0.00  0.00    -0.229 NA
ATOM      8  N   UNL     1       1.969   0.833  23.277  0.00  0.00    -0.265 N 
ATOM      9  C   UNL     1      -3.880   2.186  24.196  0.00  0.00    -0.019 C 
ATOM     10  C   UNL     1      -3.306   3.387  25.070  0.00  0.00    +0.011 C 
ATOM     11  C   UNL     1      -4.329   4.156  25.991  0.00  0.00    +0.021 C 
ATOM     12  C   UNL     1      -2.815   1.856  23.051  0.00  0.00    +0.054 C 
ATOM     13  C   UNL     1      -5.204   2.627  23.520  0.00  0.00    +0.010 C 
ATOM     14  C   UNL     1      -5.611   4.479  25.174  0.00  0.00    +0.123 C 
ATOM     15  C   UNL     1      -1.989   2.983  25.796  0.00  0.00    +0.049 C 
ATOM     16  C   UNL     1      -6.204   3.259  24.478  0.00  0.00    +0.032 C 
ATOM     17  C   UNL     1      -4.150   0.910  25.031  0.00  0.00    +0.012 C 
ATOM     18  C   UNL     1      -1.420   1.776  23.615  0.00  0.00    +0.058 A 
ATOM     20  C   UNL     1      -3.702   5.512  26.425  0.00  0.00    +0.016 C 
ATOM     21  C   UNL     1      -1.067   2.304  24.840  0.00  0.00    +0.015 A 
ATOM     24  C   UNL     1       0.721   1.286  23.612  0.00  0.00    +0.165 A 
ATOM     26  C   UNL     1       2.340   0.177  22.087  0.00  0.00    +0.219 C 
ATOM     42  H   UNL     1       2.689   1.000  23.974  0.00  0.00    +0.157 HD
ENDROOT
BRANCH  14   2
ATOM      2  O   UNL     1      -6.609   5.060  26.011  0.00  0.00    -0.391 OA
ATOM     39  H   UNL     1      -7.004   4.346  26.540  0.00  0.00    +0.210 HD
ENDBRANCH  14   2
BRANCH  11  19
ATOM     19  C   UNL     1      -4.684   3.424  27.304  0.00  0.00    +0.165 C 
BRANCH  19   3
ATOM      3  O   UNL     1      -5.863   2.685  27.081  0.00  0.00    -0.394 OA
ATOM     40  H   UNL     1      -6.196   2.928  26.200  0.00  0.00    +0.209 HD
ENDBRANCH  19   3
ENDBRANCH  11  19
BRANCH  12  22
ATOM     22  C   UNL     1      -3.151   0.621  22.205  0.00  0.00    +0.106 C 
BRANCH  22  23
ATOM      4  O   UNL     1      -4.343  -1.093  23.426  0.00  0.00    -0.276 OA
ATOM      7  N   UNL     1      -2.022  -1.161  23.328  0.00  0.00    -0.309 N 
ATOM     23  C   UNL     1      -3.272  -0.628  23.048  0.00  0.00    +0.214 C 
ATOM     41  H   UNL     1      -1.200  -0.725  22.920  0.00  0.00    +0.149 HD
BRANCH   7  25
ATOM     25  C   UNL     1      -1.833  -2.356  24.118  0.00  0.00    +0.100 C 
ATOM     27  C   UNL     1      -2.838  -3.427  23.700  0.00  0.00    +0.033 C 
BRANCH  25  28
ATOM     28  C   UNL     1      -1.888  -2.055  25.600  0.00  0.00    -0.027 A 
ATOM     30  C   UNL     1      -0.817  -1.412  26.221  0.00  0.00    +0.005 A 
ATOM     31  C   UNL     1      -3.009  -2.419  26.345  0.00  0.00    +0.005 A 
ATOM     34  C   UNL     1      -0.867  -1.133  27.587  0.00  0.00    +0.000 A 
ATOM     35  C   UNL     1      -3.059  -2.140  27.711  0.00  0.00    +0.000 A 
ATOM     36  C   UNL     1      -1.988  -1.498  28.332  0.00  0.00    +0.000 A 
ENDBRANCH  25  28
ENDBRANCH   7  25
ENDBRANCH  22  23
ENDBRANCH  12  22
BRANCH  26  29
ATOM     29  C   UNL     1       3.823  -0.167  22.089  0.00  0.00    +0.096 C 
BRANCH  29  32
ATOM     32  C   UNL     1       4.666   0.863  22.839  0.00  0.00    +0.009 C 
BRANCH  32  33
ATOM     33  C   UNL     1       5.895   0.217  23.480  0.00  0.00    +0.000 C 
BRANCH  33  37
ATOM     37  C   UNL     1       5.497  -0.770  24.577  0.00  0.00    -0.003 C 
ATOM     38  C   UNL     1       4.733  -1.955  24.008  0.00  0.00    +0.004 C 
ENDBRANCH  33  37
ENDBRANCH  32  33
ENDBRANCH  29  32
ENDBRANCH  26  29
TORSDOF 11
ENDMDL
MODEL 2
REMARK VINA RESULT:      13.2      2.320      5.382
REMARK  Name = 11885097
REMARK  15 active torsions:
REMARK  status: ('A' for Active; 'I' for Inactive)
REMARK    1  A    between atoms: O_2  and  C_14
REMARK    2  A    between atoms: O_3  and  C_19
REMARK    3  A    between atoms: N_7  and  C_25
REMARK    4  A    between atoms: C_9  and  C_17
REMARK    5  A    between atoms: C_11  and  C_19
REMARK    6  A    between atoms: C_11  and  C_20
REMARK    7  A    between atoms: C_12  and  C_22
REMARK    8  A    between atoms: C_22  and  C_23
REMARK    9  A    between atoms: C_25  and  C_27
REMARK   10  A    between atoms: C_25  and  C_28
REMARK   11  A    between atoms: C_26  and  C_29
REMARK   12  A    between atoms: C_29  and  C_32
REMARK   13  A    between atoms: C_32  and  C_33
REMARK   14  A    between atoms: C_33  and  C_37
REMARK   15  A    between atoms: C_37  and  C_38
REMARK                            x       y       z     vdW  Elec       q    Type
REMARK                         _______ _______ _______ _____ _____    ______ ____
ROOT
ATOM      1  S   UNL     1       1.895  -1.697  22.570  0.00  0.00    -0.057 S 
ATOM      5  O   UNL     1       5.166   1.396  23.779  0.00  0.00    -0.275 OA
ATOM      6  N   UNL     1       2.346   0.484  23.887  0.00  0.00    -0.229 NA
ATOM      8  N   UNL     1       4.228  -0.514  22.759  0.00  0.00    -0.265 N 
ATOM      9  C   UNL     1      -1.450   0.737  24.514  0.00  0.00    -0.019 C 
ATOM     10  C   UNL     1      -1.636  -0.845  24.510  0.00  0.00    +0.011 C 
ATOM     11  C   UNL     1      -3.110  -1.393  24.615  0.00  0.00    +0.021 C 
ATOM     12  C   UNL     1       0.082   1.052  24.842  0.00  0.00    +0.054 C 
ATOM     13  C   UNL     1      -2.327   1.356  25.633  0.00  0.00    +0.010 C 
ATOM     14  C   UNL     1      -3.859  -0.636  25.748  0.00  0.00    +0.123 C 
ATOM     15  C   UNL     1      -0.797  -1.513  23.382  0.00  0.00    +0.049 C 
ATOM     16  C   UNL     1      -3.773   0.881  25.617  0.00  0.00    +0.032 C 
ATOM     17  C   UNL     1      -1.832   1.391  23.164  0.00  0.00    +0.012 C 
ATOM     18  C   UNL     1       1.002   0.189  24.018  0.00  0.00    +0.058 A 
ATOM     20  C   UNL     1      -3.066  -2.896  25.013  0.00  0.00    +0.016 C 
ATOM     21  C   UNL     1       0.591  -0.967  23.386  0.00  0.00    +0.015 A 
ATOM     24  C   UNL     1       2.915  -0.437  23.139  0.00  0.00    +0.165 A 
ATOM     26  C   UNL     1       5.260   0.385  23.091  0.00  0.00    +0.219 C 
ATOM     42  H   UNL     1       4.460  -1.313  22.176  0.00  0.00    +0.157 HD
ENDROOT
BRANCH  14   2
ATOM      2  O   UNL     1      -5.234  -1.016  25.785  0.00  0.00    -0.391 OA
ATOM     39  H   UNL     1      -5.727  -0.395  25.223  0.00  0.00    +0.210 HD
ENDBRANCH  14   2
BRANCH  11  19
ATOM     19  C   UNL     1      -3.910  -1.336  23.294  0.00  0.00    +0.165 C 
BRANCH  19   3
ATOM      3  O   UNL     1      -4.695  -2.504  23.215  0.00  0.00    -0.394 OA
ATOM     40  H   UNL     1      -4.949  -2.621  22.283  0.00  0.00    +0.209 HD
ENDBRANCH  19   3
ENDBRANCH  11  19
BRANCH  12  22
ATOM     22  C   UNL     1       0.463   2.535  24.741  0.00  0.00    +0.106 C 
BRANCH  22  23
ATOM      4  O   UNL     1      -0.985   3.565  26.383  0.00  0.00    -0.276 OA
ATOM      7  N   UNL     1      -1.240   4.098  24.135  0.00  0.00    -0.309 N 
ATOM     23  C   UNL     1      -0.654   3.441  25.207  0.00  0.00    +0.214 C 
ATOM     41  H   UNL     1      -0.853   3.962  23.206  0.00  0.00    +0.149 HD
BRANCH   7  25
ATOM     25  C   UNL     1      -2.336   5.027  24.282  0.00  0.00    +0.100 C 
ATOM     27  C   UNL     1      -1.969   6.117  25.287  0.00  0.00    +0.033 C 
BRANCH  25  28
ATOM     28  C   UNL     1      -3.622   4.314  24.642  0.00  0.00    -0.027 A 
ATOM     30  C   UNL     1      -4.233   3.469  23.716  0.00  0.00    +0.005 A 
ATOM     31  C   UNL     1      -4.195   4.502  25.900  0.00  0.00    +0.005 A 
ATOM     34  C   UNL     1      -5.418   2.812  24.047  0.00  0.00    +0.000 A 
ATOM     35  C   UNL     1      -5.381   3.844  26.230  0.00  0.00    +0.000 A 
ATOM     36  C   UNL     1      -5.991   3.000  25.304  0.00  0.00    +0.000 A 
ENDBRANCH  25  28
ENDBRANCH   7  25
ENDBRANCH  22  23
ENDBRANCH  12  22
BRANCH  26  29
ATOM     29  C   UNL     1       6.584  -0.048  22.477  0.00  0.00    +0.096 C 
BRANCH  29  32
ATOM     32  C   UNL     1       7.676  -0.267  23.523  0.00  0.00    +0.009 C 
BRANCH  32  33
ATOM     33  C   UNL     1       9.028  -0.548  22.866  0.00  0.00    +0.000 C 
BRANCH  33  37
ATOM     37  C   UNL     1       9.958   0.661  22.971  0.00  0.00    -0.003 C 
ATOM     38  C   UNL     1       9.800   1.370  24.306  0.00  0.00    +0.004 C 
ENDBRANCH  33  37
ENDBRANCH  32  33
ENDBRANCH  29  32
ENDBRANCH  26  29
TORSDOF 11
ENDMDL
MODEL 3
REMARK VINA RESULT:      13.6      1.083      1.899
REMARK  Name = 11885097
REMARK  15 active torsions:
REMARK  status: ('A' for Active; 'I' for Inactive)
REMARK    1  A    between atoms: O_2  and  C_14
REMARK    2  A    between atoms: O_3  and  C_19
REMARK    3  A    between atoms: N_7  and  C_25
REMARK    4  A    between atoms: C_9  and  C_17
REMARK    5  A    between atoms: C_11  and  C_19
REMARK    6  A    between atoms: C_11  and  C_20
REMARK    7  A    between atoms: C_12  and  C_22
REMARK    8  A    between atoms: C_22  and  C_23
REMARK    9  A    between atoms: C_25  and  C_27
REMARK   10  A    between atoms: C_25  and  C_28
REMARK   11  A    between atoms: C_26  and  C_29
REMARK   12  A    between atoms: C_29  and  C_32
REMARK   13  A    between atoms: C_32  and  C_33
REMARK   14  A    between atoms: C_33  and  C_37
REMARK   15  A    between atoms: C_37  and  C_38
REMARK                            x       y       z     vdW  Elec       q    Type
REMARK                         _______ _______ _______ _____ _____    ______ ____
ROOT
ATOM      1  S   UNL     1       0.843   2.400  25.456  0.00  0.00    -0.057 S 
ATOM      5  O   UNL     1       2.065   0.363  21.446  0.00  0.00    -0.275 OA
ATOM      6  N   UNL     1      -0.017   1.617  23.145  0.00  0.00    -0.229 NA
ATOM      8  N   UNL     1       2.315   1.238  23.623  0.00  0.00    -0.265 N 
ATOM      9  C   UNL     1      -3.575   2.557  24.297  0.00  0.00    -0.019 C 
ATOM     10  C   UNL     1      -3.047   3.732  25.233  0.00  0.00    +0.011 C 
ATOM     11  C   UNL     1      -4.116   4.472  26.126  0.00  0.00    +0.021 C 
ATOM     12  C   UNL     1      -2.455   2.263  23.195  0.00  0.00    +0.054 C 
ATOM     13  C   UNL     1      -4.866   3.018  23.571  0.00  0.00    +0.010 C 
ATOM     14  C   UNL     1      -5.357   4.818  25.257  0.00  0.00    +0.123 C 
ATOM     15  C   UNL     1      -1.767   3.307  26.010  0.00  0.00    +0.049 C 
ATOM     16  C   UNL     1      -5.913   3.619  24.497  0.00  0.00    +0.032 C 
ATOM     17  C   UNL     1      -3.882   1.257  25.079  0.00  0.00    +0.012 C 
ATOM     18  C   UNL     1      -1.089   2.167  23.824  0.00  0.00    +0.058 A 
ATOM     20  C   UNL     1      -3.514   5.814  26.630  0.00  0.00    +0.016 C 
ATOM     21  C   UNL     1      -0.798   2.658  25.080  0.00  0.00    +0.015 A 
ATOM     24  C   UNL     1       1.051   1.679  23.911  0.00  0.00    +0.165 A 
ATOM     26  C   UNL     1       2.745   0.618  22.433  0.00  0.00    +0.219 C 
ATOM     42  H   UNL     1       2.999   1.384  24.360  0.00  0.00    +0.157 HD
ENDROOT
BRANCH  14   2
ATOM      2  O   UNL     1      -6.396   5.373  26.062  0.00  0.00    -0.391 OA
ATOM     39  H   UNL     1      -6.429   6.328  25.886  0.00  0.00    +0.210 HD
ENDBRANCH  14   2
BRANCH  11  19
ATOM     19  C   UNL     1      -4.532   3.700  27.398  0.00  0.00    +0.165 C 
BRANCH  19   3
ATOM      3  O   UNL     1      -5.662   2.919  27.078  0.00  0.00    -0.394 OA
ATOM     40  H   UNL     1      -5.358   2.002  26.962  0.00  0.00    +0.209 HD
ENDBRANCH  19   3
ENDBRANCH  11  19
BRANCH  12  22
ATOM     22  C   UNL     1      -2.746   1.053  22.297  0.00  0.00    +0.106 C 
BRANCH  22  23
ATOM      4  O   UNL     1      -3.794  -1.042  22.901  0.00  0.00    -0.276 OA
ATOM      7  N   UNL     1      -1.909  -0.328  24.059  0.00  0.00    -0.309 N 
ATOM     23  C   UNL     1      -2.901  -0.222  23.095  0.00  0.00    +0.214 C 
ATOM     41  H   UNL     1      -1.186   0.385  24.098  0.00  0.00    +0.149 HD
BRANCH   7  25
ATOM     25  C   UNL     1      -1.810  -1.444  24.970  0.00  0.00    +0.100 C 
ATOM     27  C   UNL     1      -0.354  -1.662  25.377  0.00  0.00    +0.033 C 
BRANCH  25  28
ATOM     28  C   UNL     1      -2.444  -2.690  24.390  0.00  0.00    -0.027 A 
ATOM     30  C   UNL     1      -1.725  -3.488  23.501  0.00  0.00    +0.005 A 
ATOM     31  C   UNL     1      -3.746  -3.040  24.746  0.00  0.00    +0.005 A 
ATOM     34  C   UNL     1      -2.308  -4.638  22.966  0.00  0.00    +0.000 A 
ATOM     35  C   UNL     1      -4.329  -4.190  24.211  0.00  0.00    +0.000 A 
ATOM     36  C   UNL     1      -3.610  -4.987  23.322  0.00  0.00    +0.000 A 
ENDBRANCH  25  28
ENDBRANCH   7  25
ENDBRANCH  22  23
ENDBRANCH  12  22
BRANCH  26  29
ATOM     29  C   UNL     1       4.227   0.275  22.498  0.00  0.00    +0.096 C 
BRANCH  29  32
ATOM     32  C   UNL     1       4.947   0.984  23.643  0.00  0.00    +0.009 C 
BRANCH  32  33
ATOM     33  C   UNL     1       5.663  -0.014  24.553  0.00  0.00    +0.000 C 
BRANCH  33  37
ATOM     37  C   UNL     1       5.639  -1.423  23.961  0.00  0.00    -0.003 C 
ATOM     38  C   UNL     1       4.251  -2.035  24.039  0.00  0.00    +0.004 C 
ENDBRANCH  33  37
ENDBRANCH  32  33
ENDBRANCH  29  32
ENDBRANCH  26  29
TORSDOF 11
ENDMDL
MODEL 4
REMARK VINA RESULT:      14.8      2.157      7.552
REMARK  Name = 11885097
REMARK  15 active torsions:
REMARK  status: ('A' for Active; 'I' for Inactive)
REMARK    1  A    between atoms: O_2  and  C_14
REMARK    2  A    between atoms: O_3  and  C_19
REMARK    3  A    between atoms: N_7  and  C_25
REMARK    4  A    between atoms: C_9  and  C_17
REMARK    5  A    between atoms: C_11  and  C_19
REMARK    6  A    between atoms: C_11  and  C_20
REMARK    7  A    between atoms: C_12  and  C_22
REMARK    8  A    between atoms: C_22  and  C_23
REMARK    9  A    between atoms: C_25  and  C_27
REMARK   10  A    between atoms: C_25  and  C_28
REMARK   11  A    between atoms: C_26  and  C_29
REMARK   12  A    between atoms: C_29  and  C_32
REMARK   13  A    between atoms: C_32  and  C_33
REMARK   14  A    between atoms: C_33  and  C_37
REMARK   15  A    between atoms: C_37  and  C_38
REMARK                            x       y       z     vdW  Elec       q    Type
REMARK                         _______ _______ _______ _____ _____    ______ ____
ROOT
ATOM      1  S   UNL     1       0.582   3.606  23.265  0.00  0.00    -0.057 S 
ATOM      5  O   UNL     1      -3.745   2.030  23.979  0.00  0.00    -0.275 OA
ATOM      6  N   UNL     1      -0.839   1.495  23.726  0.00  0.00    -0.229 NA
ATOM      8  N   UNL     1      -2.023   3.588  23.560  0.00  0.00    -0.265 N 
ATOM      9  C   UNL     1       2.361  -0.604  23.255  0.00  0.00    -0.019 C 
ATOM     10  C   UNL     1       3.300   0.560  23.805  0.00  0.00    +0.011 C 
ATOM     11  C   UNL     1       4.856   0.314  23.743  0.00  0.00    +0.021 C 
ATOM     12  C   UNL     1       0.883  -0.346  23.806  0.00  0.00    +0.054 C 
ATOM     13  C   UNL     1       2.857  -1.967  23.804  0.00  0.00    +0.010 C 
ATOM     14  C   UNL     1       5.172  -1.109  24.283  0.00  0.00    +0.123 C 
ATOM     15  C   UNL     1       2.861   1.949  23.257  0.00  0.00    +0.049 C 
ATOM     16  C   UNL     1       4.348  -2.203  23.613  0.00  0.00    +0.032 C 
ATOM     17  C   UNL     1       2.330  -0.672  21.709  0.00  0.00    +0.012 C 
ATOM     18  C   UNL     1       0.480   1.094  23.623  0.00  0.00    +0.058 A 
ATOM     20  C   UNL     1       5.568   1.333  24.677  0.00  0.00    +0.016 C 
ATOM     21  C   UNL     1       1.385   2.110  23.396  0.00  0.00    +0.015 A 
ATOM     24  C   UNL     1      -0.906   2.796  23.547  0.00  0.00    +0.165 A 
ATOM     26  C   UNL     1      -3.353   3.172  23.770  0.00  0.00    +0.219 C 
ATOM     42  H   UNL     1      -1.852   4.576  23.399  0.00  0.00    +0.157 HD
ENDROOT
BRANCH  14   2
ATOM      2  O   UNL     1       6.557  -1.413  24.121  0.00  0.00    -0.391 OA
ATOM     39  H   UNL     1       6.773  -1.314  23.179  0.00  0.00    +0.210 HD
ENDBRANCH  14   2
BRANCH  11  19
ATOM     19  C   UNL     1       5.482   0.524  22.346  0.00  0.00    +0.165 C 
BRANCH  19   3
ATOM      3  O   UNL     1       6.697  -0.190  22.306  0.00  0.00    -0.394 OA
ATOM     40  H   UNL     1       7.349   0.318  22.820  0.00  0.00    +0.209 HD
ENDBRANCH  19   3
ENDBRANCH  11  19
BRANCH  12  22
ATOM     22  C   UNL     1      -0.180  -1.302  23.249  0.00  0.00    +0.106 C 
BRANCH  22  23
ATOM      4  O   UNL     1      -0.762  -2.748  25.099  0.00  0.00    -0.276 OA
ATOM      7  N   UNL     1      -2.302  -1.181  24.341  0.00  0.00    -0.309 N 
ATOM     23  C   UNL     1      -1.083  -1.842  24.334  0.00  0.00    +0.214 C 
ATOM     41  H   UNL     1      -2.444  -0.408  23.696  0.00  0.00    +0.149 HD
BRANCH   7  25
ATOM     25  C   UNL     1      -3.363  -1.490  25.271  0.00  0.00    +0.100 C 
ATOM     27  C   UNL     1      -3.924  -2.881  24.984  0.00  0.00    +0.033 C 
BRANCH  25  28
ATOM     28  C   UNL     1      -4.432  -0.420  25.268  0.00  0.00    -0.027 A 
ATOM     30  C   UNL     1      -5.299  -0.304  24.181  0.00  0.00    +0.005 A 
ATOM     31  C   UNL     1      -4.553   0.450  26.352  0.00  0.00    +0.005 A 
ATOM     34  C   UNL     1      -6.286   0.682  24.177  0.00  0.00    +0.000 A 
ATOM     35  C   UNL     1      -5.540   1.436  26.348  0.00  0.00    +0.000 A 
ATOM     36  C   UNL     1      -6.405   1.552  25.260  0.00  0.00    +0.000 A 
ENDBRANCH  25  28
ENDBRANCH   7  25
ENDBRANCH  22  23
ENDBRANCH  12  22
BRANCH  26  29
ATOM     29  C   UNL     1      -4.313   4.353  23.712  0.00  0.00    +0.096 C 
BRANCH  29  32
ATOM     32  C   UNL     1      -4.748   4.828  25.097  0.00  0.00    +0.009 C 
BRANCH  32  33
ATOM     33  C   UNL     1      -3.542   5.105  25.995  0.00  0.00    +0.000 C 
BRANCH  33  37
ATOM     37  C   UNL     1      -3.210   3.895  26.869  0.00  0.00    -0.003 C 
ATOM     38  C   UNL     1      -1.763   3.464  26.695  0.00  0.00    +0.004 C 
ENDBRANCH  33  37
ENDBRANCH  32  33
ENDBRANCH  29  32
ENDBRANCH  26  29
TORSDOF 11
ENDMDL
