MODEL 1
REMARK VINA RESULT:      -3.5      0.000      0.000
REMARK  Name = 75536857
REMARK  5 active torsions:
REMARK  status: ('A' for Active; 'I' for Inactive)
REMARK    1  A    between atoms: S_1  and  N_10
REMARK    2  A    between atoms: S_1  and  C_17
REMARK    3  A    between atoms: O_7  and  C_13
REMARK    4  A    between atoms: O_7  and  C_20
REMARK    5  A    between atoms: C_26  and  C_28
REMARK                            x       y       z     vdW  Elec       q    Type
REMARK                         _______ _______ _______ _____ _____    ______ ____
ROOT
ATOM      6  O   UNL     1      -2.363   4.821  24.273  0.00  0.00    -0.375 OA
ATOM     10  N   UNL     1      -4.305   2.717  25.366  0.00  0.00    -0.171 NA
ATOM     12  C   UNL     1      -2.934   2.148  25.199  0.00  0.00    +0.156 C 
ATOM     13  C   UNL     1      -1.926   3.016  25.949  0.00  0.00    +0.216 C 
ATOM     14  C   UNL     1      -4.578   3.912  24.513  0.00  0.00    +0.137 C 
ATOM     15  C   UNL     1      -1.417   4.211  25.141  0.00  0.00    +0.205 C 
ATOM     16  C   UNL     1      -3.640   5.063  24.852  0.00  0.00    +0.177 C 
ENDROOT
BRANCH  10   1
ATOM      1  S   UNL     1      -5.576   1.562  25.419  0.00  0.00    +0.061 S 
ATOM      8  O   UNL     1      -6.445   1.772  24.284  0.00  0.00    -0.153 OA
ATOM      9  O   UNL     1      -6.100   1.508  26.765  0.00  0.00    -0.153 OA
BRANCH   1  17
ATOM      2  F   UNL     1      -2.500  -3.372  24.458  0.00  0.00    -0.205 F 
ATOM     17  C   UNL     1      -4.655   0.084  25.132  0.00  0.00    +0.106 A 
ATOM     18  C   UNL     1      -3.942  -0.507  26.175  0.00  0.00    +0.031 A 
ATOM     19  C   UNL     1      -4.640  -0.492  23.862  0.00  0.00    +0.031 A 
ATOM     21  C   UNL     1      -3.214  -1.675  25.947  0.00  0.00    +0.040 A 
ATOM     22  C   UNL     1      -3.912  -1.660  23.634  0.00  0.00    +0.040 A 
ATOM     24  C   UNL     1      -3.200  -2.252  24.677  0.00  0.00    +0.124 A 
ENDBRANCH   1  17
ENDBRANCH  10   1
BRANCH  13   7
ATOM      7  O   UNL     1      -0.811   2.207  26.323  0.00  0.00    -0.469 OA
BRANCH   7  20
ATOM     11  N   UNL     1       0.864   2.301  24.722  0.00  0.00    -0.221 NA
ATOM     20  C   UNL     1      -0.131   1.594  25.306  0.00  0.00    +0.215 A 
ATOM     23  C   UNL     1      -0.490   0.308  24.937  0.00  0.00    +0.068 A 
ATOM     25  C   UNL     1       0.218  -0.293  23.901  0.00  0.00    +0.019 A 
ATOM     26  C   UNL     1       1.246   0.401  23.275  0.00  0.00    +0.073 A 
ATOM     27  C   UNL     1       1.528   1.684  23.718  0.00  0.00    +0.127 A 
BRANCH  26  28
ATOM      3  F   UNL     1       2.724  -1.317  22.557  0.00  0.00    -0.166 F 
ATOM      4  F   UNL     1       1.246  -0.632  21.117  0.00  0.00    -0.166 F 
ATOM      5  F   UNL     1       2.944   0.626  21.606  0.00  0.00    -0.166 F 
ATOM     28  C   UNL     1       2.020  -0.214  22.164  0.00  0.00    +0.419 C 
ENDBRANCH  26  28
ENDBRANCH   7  20
ENDBRANCH  13   7
TORSDOF 5
ENDMDL
MODEL 2
REMARK VINA RESULT:      -2.8      3.677      5.900
REMARK  Name = 75536857
REMARK  5 active torsions:
REMARK  status: ('A' for Active; 'I' for Inactive)
REMARK    1  A    between atoms: S_1  and  N_10
REMARK    2  A    between atoms: S_1  and  C_17
REMARK    3  A    between atoms: O_7  and  C_13
REMARK    4  A    between atoms: O_7  and  C_20
REMARK    5  A    between atoms: C_26  and  C_28
REMARK                            x       y       z     vdW  Elec       q    Type
REMARK                         _______ _______ _______ _____ _____    ______ ____
ROOT
ATOM      6  O   UNL     1       2.223   1.299  23.041  0.00  0.00    -0.375 OA
ATOM     10  N   UNL     1       0.135  -0.277  24.637  0.00  0.00    -0.171 NA
ATOM     12  C   UNL     1       0.184   1.149  25.078  0.00  0.00    +0.156 C 
ATOM     13  C   UNL     1      -0.010   2.063  23.870  0.00  0.00    +0.216 C 
ATOM     14  C   UNL     1       1.385  -0.755  23.974  0.00  0.00    +0.137 C 
ATOM     15  C   UNL     1       1.282   2.362  23.106  0.00  0.00    +0.205 C 
ATOM     16  C   UNL     1       1.674   0.030  22.702  0.00  0.00    +0.177 C 
ENDROOT
BRANCH  10   1
ATOM      1  S   UNL     1      -0.542  -1.372  25.775  0.00  0.00    +0.061 S 
ATOM      8  O   UNL     1      -0.809  -0.663  27.005  0.00  0.00    -0.153 OA
ATOM      9  O   UNL     1       0.235  -2.591  25.766  0.00  0.00    -0.153 OA
BRANCH   1  17
ATOM      2  F   UNL     1      -5.706  -2.490  23.165  0.00  0.00    -0.205 F 
ATOM     17  C   UNL     1      -2.088  -1.706  24.993  0.00  0.00    +0.106 A 
ATOM     18  C   UNL     1      -3.045  -0.697  24.880  0.00  0.00    +0.031 A 
ATOM     19  C   UNL     1      -2.353  -2.979  24.489  0.00  0.00    +0.031 A 
ATOM     21  C   UNL     1      -4.267  -0.963  24.262  0.00  0.00    +0.040 A 
ATOM     22  C   UNL     1      -3.575  -3.244  23.871  0.00  0.00    +0.040 A 
ATOM     24  C   UNL     1      -4.532  -2.236  23.757  0.00  0.00    +0.124 A 
ENDBRANCH   1  17
ENDBRANCH  10   1
BRANCH  13   7
ATOM      7  O   UNL     1      -0.576   3.297  24.313  0.00  0.00    -0.469 OA
BRANCH   7  20
ATOM     11  N   UNL     1      -2.751   2.672  23.803  0.00  0.00    -0.221 NA
ATOM     20  C   UNL     1      -1.898   3.272  24.665  0.00  0.00    +0.215 A 
ATOM     23  C   UNL     1      -2.285   3.851  25.863  0.00  0.00    +0.068 A 
ATOM     25  C   UNL     1      -3.634   3.812  26.198  0.00  0.00    +0.019 A 
ATOM     26  C   UNL     1      -4.541   3.205  25.339  0.00  0.00    +0.073 A 
ATOM     27  C   UNL     1      -4.054   2.654  24.164  0.00  0.00    +0.127 A 
BRANCH  26  28
ATOM      3  F   UNL     1      -6.574   4.381  25.704  0.00  0.00    -0.166 F 
ATOM      4  F   UNL     1      -6.730   2.420  24.778  0.00  0.00    -0.166 F 
ATOM      5  F   UNL     1      -6.255   2.586  26.889  0.00  0.00    -0.166 F 
ATOM     28  C   UNL     1      -5.990   3.147  25.669  0.00  0.00    +0.419 C 
ENDBRANCH  26  28
ENDBRANCH   7  20
ENDBRANCH  13   7
TORSDOF 5
ENDMDL
MODEL 3
REMARK VINA RESULT:      -2.7      2.259      4.352
REMARK  Name = 75536857
REMARK  5 active torsions:
REMARK  status: ('A' for Active; 'I' for Inactive)
REMARK    1  A    between atoms: S_1  and  N_10
REMARK    2  A    between atoms: S_1  and  C_17
REMARK    3  A    between atoms: O_7  and  C_13
REMARK    4  A    between atoms: O_7  and  C_20
REMARK    5  A    between atoms: C_26  and  C_28
REMARK                            x       y       z     vdW  Elec       q    Type
REMARK                         _______ _______ _______ _____ _____    ______ ____
ROOT
ATOM      6  O   UNL     1      -3.889  -2.764  24.416  0.00  0.00    -0.375 OA
ATOM     10  N   UNL     1      -4.515   0.222  24.694  0.00  0.00    -0.171 NA
ATOM     12  C   UNL     1      -3.421  -0.187  25.625  0.00  0.00    +0.156 C 
ATOM     13  C   UNL     1      -2.308  -0.872  24.834  0.00  0.00    +0.216 C 
ATOM     14  C   UNL     1      -5.402  -0.900  24.264  0.00  0.00    +0.137 C 
ATOM     15  C   UNL     1      -2.538  -2.368  24.612  0.00  0.00    +0.205 C 
ATOM     16  C   UNL     1      -4.623  -1.962  23.499  0.00  0.00    +0.177 C 
ENDROOT
BRANCH  10   1
ATOM      1  S   UNL     1      -5.338   1.668  25.121  0.00  0.00    +0.061 S 
ATOM      8  O   UNL     1      -5.820   1.549  26.478  0.00  0.00    -0.153 OA
ATOM      9  O   UNL     1      -6.225   2.035  24.040  0.00  0.00    -0.153 OA
BRANCH   1  17
ATOM      2  F   UNL     1      -0.814   5.446  25.120  0.00  0.00    -0.205 F 
ATOM     17  C   UNL     1      -3.984   2.799  25.122  0.00  0.00    +0.106 A 
ATOM     18  C   UNL     1      -3.823   3.696  26.179  0.00  0.00    +0.031 A 
ATOM     19  C   UNL     1      -3.074   2.797  24.064  0.00  0.00    +0.031 A 
ATOM     21  C   UNL     1      -2.752   4.589  26.178  0.00  0.00    +0.040 A 
ATOM     22  C   UNL     1      -2.002   3.691  24.064  0.00  0.00    +0.040 A 
ATOM     24  C   UNL     1      -1.842   4.587  25.121  0.00  0.00    +0.124 A 
ENDBRANCH   1  17
ENDBRANCH  10   1
BRANCH  13   7
ATOM      7  O   UNL     1      -1.074  -0.696  25.531  0.00  0.00    -0.469 OA
BRANCH   7  20
ATOM     11  N   UNL     1       0.752  -1.269  24.222  0.00  0.00    -0.221 NA
ATOM     20  C   UNL     1      -0.001  -0.296  24.783  0.00  0.00    +0.215 A 
ATOM     23  C   UNL     1       0.252   1.059  24.643  0.00  0.00    +0.068 A 
ATOM     25  C   UNL     1       1.348   1.440  23.877  0.00  0.00    +0.019 A 
ATOM     26  C   UNL     1       2.147   0.469  23.284  0.00  0.00    +0.073 A 
ATOM     27  C   UNL     1       1.810  -0.860  23.486  0.00  0.00    +0.127 A 
BRANCH  26  28
ATOM      3  F   UNL     1       3.181   0.509  21.144  0.00  0.00    -0.166 F 
ATOM      4  F   UNL     1       3.598   2.185  22.465  0.00  0.00    -0.166 F 
ATOM      5  F   UNL     1       4.491   0.247  22.860  0.00  0.00    -0.166 F 
ATOM     28  C   UNL     1       3.327   0.845  22.460  0.00  0.00    +0.419 C 
ENDBRANCH  26  28
ENDBRANCH   7  20
ENDBRANCH  13   7
TORSDOF 5
ENDMDL
MODEL 4
REMARK VINA RESULT:      -1.9      3.390      5.174
REMARK  Name = 75536857
REMARK  5 active torsions:
REMARK  status: ('A' for Active; 'I' for Inactive)
REMARK    1  A    between atoms: S_1  and  N_10
REMARK    2  A    between atoms: S_1  and  C_17
REMARK    3  A    between atoms: O_7  and  C_13
REMARK    4  A    between atoms: O_7  and  C_20
REMARK    5  A    between atoms: C_26  and  C_28
REMARK                            x       y       z     vdW  Elec       q    Type
REMARK                         _______ _______ _______ _____ _____    ______ ____
ROOT
ATOM      6  O   UNL     1      -1.155  -1.986  24.918  0.00  0.00    -0.375 OA
ATOM     10  N   UNL     1      -1.052   1.073  24.785  0.00  0.00    -0.171 NA
ATOM     12  C   UNL     1       0.156   0.467  24.149  0.00  0.00    +0.156 C 
ATOM     13  C   UNL     1      -0.279  -0.533  23.080  0.00  0.00    +0.216 C 
ATOM     14  C   UNL     1      -1.731   0.186  25.777  0.00  0.00    +0.137 C 
ATOM     15  C   UNL     1      -0.568  -1.934  23.624  0.00  0.00    +0.205 C 
ATOM     16  C   UNL     1      -2.241  -1.090  25.122  0.00  0.00    +0.177 C 
ENDROOT
BRANCH  10   1
ATOM      1  S   UNL     1      -0.875   2.708  25.283  0.00  0.00    +0.061 S 
ATOM      8  O   UNL     1      -0.271   3.461  24.209  0.00  0.00    -0.153 OA
ATOM      9  O   UNL     1      -0.322   2.731  26.618  0.00  0.00    -0.153 OA
BRANCH   1  17
ATOM      2  F   UNL     1      -6.546   4.274  25.635  0.00  0.00    -0.205 F 
ATOM     17  C   UNL     1      -2.573   3.178  25.389  0.00  0.00    +0.106 A 
ATOM     18  C   UNL     1      -2.965   4.186  26.270  0.00  0.00    +0.031 A 
ATOM     19  C   UNL     1      -3.523   2.541  24.590  0.00  0.00    +0.031 A 
ATOM     21  C   UNL     1      -4.307   4.556  26.353  0.00  0.00    +0.040 A 
ATOM     22  C   UNL     1      -4.866   2.912  24.673  0.00  0.00    +0.040 A 
ATOM     24  C   UNL     1      -5.257   3.919  25.554  0.00  0.00    +0.124 A 
ENDBRANCH   1  17
ENDBRANCH  10   1
BRANCH  13   7
ATOM      7  O   UNL     1       0.750  -0.628  22.095  0.00  0.00    -0.469 OA
BRANCH   7  20
ATOM     11  N   UNL     1       2.589  -1.442  23.249  0.00  0.00    -0.221 NA
ATOM     20  C   UNL     1       2.033  -0.441  22.530  0.00  0.00    +0.215 A 
ATOM     23  C   UNL     1       2.683   0.742  22.215  0.00  0.00    +0.068 A 
ATOM     25  C   UNL     1       3.988   0.907  22.669  0.00  0.00    +0.019 A 
ATOM     26  C   UNL     1       4.593  -0.099  23.411  0.00  0.00    +0.073 A 
ATOM     27  C   UNL     1       3.858  -1.245  23.673  0.00  0.00    +0.127 A 
BRANCH  26  28
ATOM      3  F   UNL     1       6.244  -0.735  24.999  0.00  0.00    -0.166 F 
ATOM      4  F   UNL     1       6.940  -0.285  22.989  0.00  0.00    -0.166 F 
ATOM      5  F   UNL     1       6.300   1.323  24.298  0.00  0.00    -0.166 F 
ATOM     28  C   UNL     1       5.986   0.049  23.911  0.00  0.00    +0.419 C 
ENDBRANCH  26  28
ENDBRANCH   7  20
ENDBRANCH  13   7
TORSDOF 5
ENDMDL
MODEL 5
REMARK VINA RESULT:      -1.4      4.222      7.044
REMARK  Name = 75536857
REMARK  5 active torsions:
REMARK  status: ('A' for Active; 'I' for Inactive)
REMARK    1  A    between atoms: S_1  and  N_10
REMARK    2  A    between atoms: S_1  and  C_17
REMARK    3  A    between atoms: O_7  and  C_13
REMARK    4  A    between atoms: O_7  and  C_20
REMARK    5  A    between atoms: C_26  and  C_28
REMARK                            x       y       z     vdW  Elec       q    Type
REMARK                         _______ _______ _______ _____ _____    ______ ____
ROOT
ATOM      6  O   UNL     1      -1.992  -3.345  24.986  0.00  0.00    -0.375 OA
ATOM     10  N   UNL     1      -0.696  -0.655  24.298  0.00  0.00    -0.171 NA
ATOM     12  C   UNL     1      -2.059  -0.764  23.696  0.00  0.00    +0.156 C 
ATOM     13  C   UNL     1      -3.073  -1.097  24.788  0.00  0.00    +0.216 C 
ATOM     14  C   UNL     1      -0.056  -1.970  24.603  0.00  0.00    +0.137 C 
ATOM     15  C   UNL     1      -3.195  -2.594  25.083  0.00  0.00    +0.205 C 
ATOM     16  C   UNL     1      -0.864  -2.757  25.625  0.00  0.00    +0.177 C 
ENDROOT
BRANCH  10   1
ATOM      1  S   UNL     1       0.341   0.497  23.557  0.00  0.00    +0.061 S 
ATOM      8  O   UNL     1       0.074   0.523  22.138  0.00  0.00    -0.153 OA
ATOM      9  O   UNL     1       1.682   0.309  24.064  0.00  0.00    -0.153 OA
BRANCH   1  17
ATOM      2  F   UNL     1      -1.815   5.457  25.900  0.00  0.00    -0.205 F 
ATOM     17  C   UNL     1      -0.304   1.982  24.260  0.00  0.00    +0.106 A 
ATOM     18  C   UNL     1      -0.857   1.965  25.541  0.00  0.00    +0.031 A 
ATOM     19  C   UNL     1      -0.261   3.172  23.534  0.00  0.00    +0.031 A 
ATOM     21  C   UNL     1      -1.367   3.139  26.094  0.00  0.00    +0.040 A 
ATOM     22  C   UNL     1      -0.771   4.346  24.089  0.00  0.00    +0.040 A 
ATOM     24  C   UNL     1      -1.324   4.330  25.368  0.00  0.00    +0.124 A 
ENDBRANCH   1  17
ENDBRANCH  10   1
BRANCH  13   7
ATOM      7  O   UNL     1      -4.352  -0.602  24.394  0.00  0.00    -0.469 OA
BRANCH   7  20
ATOM     11  N   UNL     1      -5.391   1.052  25.644  0.00  0.00    -0.221 NA
ATOM     20  C   UNL     1      -4.585   0.729  24.607  0.00  0.00    +0.215 A 
ATOM     23  C   UNL     1      -3.994   1.658  23.765  0.00  0.00    +0.068 A 
ATOM     25  C   UNL     1      -4.246   3.005  24.004  0.00  0.00    +0.019 A 
ATOM     26  C   UNL     1      -5.069   3.376  25.060  0.00  0.00    +0.073 A 
ATOM     27  C   UNL     1      -5.613   2.371  25.844  0.00  0.00    +0.127 A 
BRANCH  26  28
ATOM      3  F   UNL     1      -4.600   5.311  26.359  0.00  0.00    -0.166 F 
ATOM      4  F   UNL     1      -5.131   5.635  24.275  0.00  0.00    -0.166 F 
ATOM      5  F   UNL     1      -6.656   5.047  25.703  0.00  0.00    -0.166 F 
ATOM     28  C   UNL     1      -5.358   4.808  25.341  0.00  0.00    +0.419 C 
ENDBRANCH  26  28
ENDBRANCH   7  20
ENDBRANCH  13   7
TORSDOF 5
ENDMDL
MODEL 6
REMARK VINA RESULT:      -1.3      1.961      4.503
REMARK  Name = 75536857
REMARK  5 active torsions:
REMARK  status: ('A' for Active; 'I' for Inactive)
REMARK    1  A    between atoms: S_1  and  N_10
REMARK    2  A    between atoms: S_1  and  C_17
REMARK    3  A    between atoms: O_7  and  C_13
REMARK    4  A    between atoms: O_7  and  C_20
REMARK    5  A    between atoms: C_26  and  C_28
REMARK                            x       y       z     vdW  Elec       q    Type
REMARK                         _______ _______ _______ _____ _____    ______ ____
ROOT
ATOM      6  O   UNL     1      -6.214   4.261  25.743  0.00  0.00    -0.375 OA
ATOM     10  N   UNL     1      -3.215   3.754  25.370  0.00  0.00    -0.171 NA
ATOM     12  C   UNL     1      -3.877   2.596  26.042  0.00  0.00    +0.156 C 
ATOM     13  C   UNL     1      -5.051   2.116  25.193  0.00  0.00    +0.216 C 
ATOM     14  C   UNL     1      -3.951   5.046  25.514  0.00  0.00    +0.137 C 
ATOM     15  C   UNL     1      -6.353   2.877  25.451  0.00  0.00    +0.205 C 
ATOM     16  C   UNL     1      -5.333   4.971  24.880  0.00  0.00    +0.177 C 
ENDROOT
BRANCH  10   1
ATOM      1  S   UNL     1      -1.516   3.862  25.601  0.00  0.00    +0.061 S 
ATOM      8  O   UNL     1      -1.202   3.468  26.955  0.00  0.00    -0.153 OA
ATOM      9  O   UNL     1      -1.052   5.120  25.060  0.00  0.00    -0.153 OA
BRANCH   1  17
ATOM      2  F   UNL     1       0.275  -0.444  21.997  0.00  0.00    -0.205 F 
ATOM     17  C   UNL     1      -0.981   2.574  24.521  0.00  0.00    +0.106 A 
ATOM     18  C   UNL     1      -1.805   2.148  23.479  0.00  0.00    +0.031 A 
ATOM     19  C   UNL     1       0.268   1.980  24.710  0.00  0.00    +0.031 A 
ATOM     21  C   UNL     1      -1.380   1.129  22.627  0.00  0.00    +0.040 A 
ATOM     22  C   UNL     1       0.692   0.961  23.857  0.00  0.00    +0.040 A 
ATOM     24  C   UNL     1      -0.132   0.536  22.815  0.00  0.00    +0.124 A 
ENDBRANCH   1  17
ENDBRANCH  10   1
BRANCH  13   7
ATOM      7  O   UNL     1      -5.272   0.730  25.455  0.00  0.00    -0.469 OA
BRANCH   7  20
ATOM     11  N   UNL     1      -3.114   0.067  25.988  0.00  0.00    -0.221 NA
ATOM     20  C   UNL     1      -4.218  -0.111  25.225  0.00  0.00    +0.215 A 
ATOM     23  C   UNL     1      -4.334  -1.082  24.244  0.00  0.00    +0.068 A 
ATOM     25  C   UNL     1      -3.248  -1.926  24.031  0.00  0.00    +0.019 A 
ATOM     26  C   UNL     1      -2.097  -1.774  24.794  0.00  0.00    +0.073 A 
ATOM     27  C   UNL     1      -2.080  -0.771  25.751  0.00  0.00    +0.127 A 
BRANCH  26  28
ATOM      3  F   UNL     1      -0.947  -3.308  23.388  0.00  0.00    -0.166 F 
ATOM      4  F   UNL     1       0.278  -1.999  24.618  0.00  0.00    -0.166 F 
ATOM      5  F   UNL     1      -0.802  -3.645  25.531  0.00  0.00    -0.166 F 
ATOM     28  C   UNL     1      -0.920  -2.659  24.590  0.00  0.00    +0.419 C 
ENDBRANCH  26  28
ENDBRANCH   7  20
ENDBRANCH  13   7
TORSDOF 5
ENDMDL
MODEL 7
REMARK VINA RESULT:      -1.1      1.780      5.261
REMARK  Name = 75536857
REMARK  5 active torsions:
REMARK  status: ('A' for Active; 'I' for Inactive)
REMARK    1  A    between atoms: S_1  and  N_10
REMARK    2  A    between atoms: S_1  and  C_17
REMARK    3  A    between atoms: O_7  and  C_13
REMARK    4  A    between atoms: O_7  and  C_20
REMARK    5  A    between atoms: C_26  and  C_28
REMARK                            x       y       z     vdW  Elec       q    Type
REMARK                         _______ _______ _______ _____ _____    ______ ____
ROOT
ATOM      6  O   UNL     1      -2.821   5.792  24.899  0.00  0.00    -0.375 OA
ATOM     10  N   UNL     1      -1.048   3.321  25.270  0.00  0.00    -0.171 NA
ATOM     12  C   UNL     1      -2.491   2.979  25.449  0.00  0.00    +0.156 C 
ATOM     13  C   UNL     1      -3.278   3.428  24.220  0.00  0.00    +0.216 C 
ATOM     14  C   UNL     1      -0.730   4.763  25.494  0.00  0.00    +0.137 C 
ATOM     15  C   UNL     1      -3.725   4.891  24.272  0.00  0.00    +0.205 C 
ATOM     16  C   UNL     1      -1.462   5.654  24.501  0.00  0.00    +0.177 C 
ENDROOT
BRANCH  10   1
ATOM      1  S   UNL     1       0.060   2.218  25.983  0.00  0.00    +0.061 S 
ATOM      8  O   UNL     1      -0.670   1.304  26.831  0.00  0.00    -0.153 OA
ATOM      9  O   UNL     1       1.196   2.959  26.482  0.00  0.00    -0.153 OA
BRANCH   1  17
ATOM      2  F   UNL     1       1.784  -0.737  21.184  0.00  0.00    -0.205 F 
ATOM     17  C   UNL     1       0.575   1.333  24.546  0.00  0.00    +0.106 A 
ATOM     18  C   UNL     1      -0.245   0.342  24.005  0.00  0.00    +0.031 A 
ATOM     19  C   UNL     1       1.802   1.625  23.951  0.00  0.00    +0.031 A 
ATOM     21  C   UNL     1       0.164  -0.357  22.870  0.00  0.00    +0.040 A 
ATOM     22  C   UNL     1       2.210   0.926  22.814  0.00  0.00    +0.040 A 
ATOM     24  C   UNL     1       1.391  -0.065  22.274  0.00  0.00    +0.124 A 
ENDBRANCH   1  17
ENDBRANCH  10   1
BRANCH  13   7
ATOM      7  O   UNL     1      -4.434   2.601  24.087  0.00  0.00    -0.469 OA
BRANCH   7  20
ATOM     11  N   UNL     1      -3.658   0.634  23.135  0.00  0.00    -0.221 NA
ATOM     20  C   UNL     1      -4.236   1.251  24.191  0.00  0.00    +0.215 A 
ATOM     23  C   UNL     1      -4.630   0.602  25.350  0.00  0.00    +0.068 A 
ATOM     25  C   UNL     1      -4.416  -0.770  25.430  0.00  0.00    +0.019 A 
ATOM     26  C   UNL     1      -3.826  -1.440  24.366  0.00  0.00    +0.073 A 
ATOM     27  C   UNL     1      -3.468  -0.700  23.250  0.00  0.00    +0.127 A 
BRANCH  26  28
ATOM      3  F   UNL     1      -2.373  -3.265  23.903  0.00  0.00    -0.166 F 
ATOM      4  F   UNL     1      -3.603  -3.420  25.690  0.00  0.00    -0.166 F 
ATOM      5  F   UNL     1      -4.508  -3.644  23.731  0.00  0.00    -0.166 F 
ATOM     28  C   UNL     1      -3.585  -2.907  24.422  0.00  0.00    +0.419 C 
ENDBRANCH  26  28
ENDBRANCH   7  20
ENDBRANCH  13   7
TORSDOF 5
ENDMDL
MODEL 8
REMARK VINA RESULT:      -1.1      4.091      5.924
REMARK  Name = 75536857
REMARK  5 active torsions:
REMARK  status: ('A' for Active; 'I' for Inactive)
REMARK    1  A    between atoms: S_1  and  N_10
REMARK    2  A    between atoms: S_1  and  C_17
REMARK    3  A    between atoms: O_7  and  C_13
REMARK    4  A    between atoms: O_7  and  C_20
REMARK    5  A    between atoms: C_26  and  C_28
REMARK                            x       y       z     vdW  Elec       q    Type
REMARK                         _______ _______ _______ _____ _____    ______ ____
ROOT
ATOM      6  O   UNL     1       2.671   0.124  22.525  0.00  0.00    -0.375 OA
ATOM     10  N   UNL     1      -0.056  -0.554  23.747  0.00  0.00    -0.171 NA
ATOM     12  C   UNL     1       0.628   0.522  24.525  0.00  0.00    +0.156 C 
ATOM     13  C   UNL     1       1.010   1.664  23.587  0.00  0.00    +0.216 C 
ATOM     14  C   UNL     1       0.868  -1.413  22.947  0.00  0.00    +0.137 C 
ATOM     15  C   UNL     1       2.353   1.463  22.881  0.00  0.00    +0.205 C 
ATOM     16  C   UNL     1       1.616  -0.598  21.900  0.00  0.00    +0.177 C 
ENDROOT
BRANCH  10   1
ATOM      1  S   UNL     1      -1.278  -1.410  24.599  0.00  0.00    +0.061 S 
ATOM      8  O   UNL     1      -0.893  -1.517  25.987  0.00  0.00    -0.153 OA
ATOM      9  O   UNL     1      -1.649  -2.578  23.832  0.00  0.00    -0.153 OA
BRANCH   1  17
ATOM      2  F   UNL     1      -5.687   2.485  24.236  0.00  0.00    -0.205 F 
ATOM     17  C   UNL     1      -2.598  -0.244  24.489  0.00  0.00    +0.106 A 
ATOM     18  C   UNL     1      -2.533   0.800  23.566  0.00  0.00    +0.031 A 
ATOM     19  C   UNL     1      -3.707  -0.366  25.327  0.00  0.00    +0.031 A 
ATOM     21  C   UNL     1      -3.576   1.721  23.481  0.00  0.00    +0.040 A 
ATOM     22  C   UNL     1      -4.751   0.556  25.241  0.00  0.00    +0.040 A 
ATOM     24  C   UNL     1      -4.685   1.599  24.318  0.00  0.00    +0.124 A 
ENDBRANCH   1  17
ENDBRANCH  10   1
BRANCH  13   7
ATOM      7  O   UNL     1       1.066   2.877  24.339  0.00  0.00    -0.469 OA
BRANCH   7  20
ATOM     11  N   UNL     1      -0.616   2.417  25.868  0.00  0.00    -0.221 NA
ATOM     20  C   UNL     1      -0.091   3.267  24.957  0.00  0.00    +0.215 A 
ATOM     23  C   UNL     1      -0.651   4.489  24.622  0.00  0.00    +0.068 A 
ATOM     25  C   UNL     1      -1.827   4.863  25.265  0.00  0.00    +0.019 A 
ATOM     26  C   UNL     1      -2.397   4.017  26.208  0.00  0.00    +0.073 A 
ATOM     27  C   UNL     1      -1.759   2.815  26.472  0.00  0.00    +0.127 A 
BRANCH  26  28
ATOM      3  F   UNL     1      -3.546   4.296  28.270  0.00  0.00    -0.166 F 
ATOM      4  F   UNL     1      -4.064   5.670  26.666  0.00  0.00    -0.166 F 
ATOM      5  F   UNL     1      -4.724   3.604  26.578  0.00  0.00    -0.166 F 
ATOM     28  C   UNL     1      -3.653   4.389  26.912  0.00  0.00    +0.419 C 
ENDBRANCH  26  28
ENDBRANCH   7  20
ENDBRANCH  13   7
TORSDOF 5
ENDMDL
MODEL 9
REMARK VINA RESULT:      -1.1      3.125      4.375
REMARK  Name = 75536857
REMARK  5 active torsions:
REMARK  status: ('A' for Active; 'I' for Inactive)
REMARK    1  A    between atoms: S_1  and  N_10
REMARK    2  A    between atoms: S_1  and  C_17
REMARK    3  A    between atoms: O_7  and  C_13
REMARK    4  A    between atoms: O_7  and  C_20
REMARK    5  A    between atoms: C_26  and  C_28
REMARK                            x       y       z     vdW  Elec       q    Type
REMARK                         _______ _______ _______ _____ _____    ______ ____
ROOT
ATOM      6  O   UNL     1       0.460   4.438  25.156  0.00  0.00    -0.375 OA
ATOM     10  N   UNL     1      -2.298   3.413  24.302  0.00  0.00    -0.171 NA
ATOM     12  C   UNL     1      -1.307   2.297  24.369  0.00  0.00    +0.156 C 
ATOM     13  C   UNL     1      -0.653   2.278  25.748  0.00  0.00    +0.216 C 
ATOM     14  C   UNL     1      -1.687   4.763  24.120  0.00  0.00    +0.137 C 
ATOM     15  C   UNL     1       0.549   3.216  25.877  0.00  0.00    +0.205 C 
ATOM     16  C   UNL     1      -0.779   5.125  25.288  0.00  0.00    +0.177 C 
ENDROOT
BRANCH  10   1
ATOM      1  S   UNL     1      -3.679   3.109  23.326  0.00  0.00    +0.061 S 
ATOM      8  O   UNL     1      -3.389   2.007  22.436  0.00  0.00    -0.153 OA
ATOM      9  O   UNL     1      -4.178   4.368  22.821  0.00  0.00    -0.153 OA
BRANCH   1  17
ATOM      2  F   UNL     1      -7.425   1.177  27.445  0.00  0.00    -0.205 F 
ATOM     17  C   UNL     1      -4.801   2.532  24.559  0.00  0.00    +0.106 A 
ATOM     18  C   UNL     1      -5.222   3.389  25.576  0.00  0.00    +0.031 A 
ATOM     19  C   UNL     1      -5.266   1.217  24.517  0.00  0.00    +0.031 A 
ATOM     21  C   UNL     1      -6.109   2.930  26.550  0.00  0.00    +0.040 A 
ATOM     22  C   UNL     1      -6.153   0.760  25.492  0.00  0.00    +0.040 A 
ATOM     24  C   UNL     1      -6.575   1.616  26.508  0.00  0.00    +0.124 A 
ENDBRANCH   1  17
ENDBRANCH  10   1
BRANCH  13   7
ATOM      7  O   UNL     1      -0.227   0.946  26.037  0.00  0.00    -0.469 OA
BRANCH   7  20
ATOM     11  N   UNL     1      -0.524  -0.914  24.683  0.00  0.00    -0.221 NA
ATOM     20  C   UNL     1      -1.040  -0.064  25.601  0.00  0.00    +0.215 A 
ATOM     23  C   UNL     1      -2.324  -0.161  26.113  0.00  0.00    +0.068 A 
ATOM     25  C   UNL     1      -3.130  -1.198  25.654  0.00  0.00    +0.019 A 
ATOM     26  C   UNL     1      -2.636  -2.091  24.711  0.00  0.00    +0.073 A 
ATOM     27  C   UNL     1      -1.338  -1.908  24.261  0.00  0.00    +0.127 A 
BRANCH  26  28
ATOM      3  F   UNL     1      -3.961  -4.004  25.199  0.00  0.00    -0.166 F 
ATOM      4  F   UNL     1      -4.571  -2.798  23.495  0.00  0.00    -0.166 F 
ATOM      5  F   UNL     1      -2.808  -4.055  23.356  0.00  0.00    -0.166 F 
ATOM     28  C   UNL     1      -3.473  -3.209  24.201  0.00  0.00    +0.419 C 
ENDBRANCH  26  28
ENDBRANCH   7  20
ENDBRANCH  13   7
TORSDOF 5
ENDMDL
MODEL 10
REMARK VINA RESULT:      -1.1      2.513      4.786
REMARK  Name = 75536857
REMARK  5 active torsions:
REMARK  status: ('A' for Active; 'I' for Inactive)
REMARK    1  A    between atoms: S_1  and  N_10
REMARK    2  A    between atoms: S_1  and  C_17
REMARK    3  A    between atoms: O_7  and  C_13
REMARK    4  A    between atoms: O_7  and  C_20
REMARK    5  A    between atoms: C_26  and  C_28
REMARK                            x       y       z     vdW  Elec       q    Type
REMARK                         _______ _______ _______ _____ _____    ______ ____
ROOT
ATOM      6  O   UNL     1      -3.528   4.604  26.867  0.00  0.00    -0.375 OA
ATOM     10  N   UNL     1      -2.060   3.499  24.414  0.00  0.00    -0.171 NA
ATOM     12  C   UNL     1      -2.971   2.472  25.003  0.00  0.00    +0.156 C 
ATOM     13  C   UNL     1      -4.383   3.043  25.109  0.00  0.00    +0.216 C 
ATOM     14  C   UNL     1      -1.643   4.567  25.372  0.00  0.00    +0.137 C 
ATOM     15  C   UNL     1      -4.632   3.847  26.387  0.00  0.00    +0.205 C 
ATOM     16  C   UNL     1      -2.842   5.360  25.876  0.00  0.00    +0.177 C 
ENDROOT
BRANCH  10   1
ATOM      1  S   UNL     1      -0.795   2.879  23.431  0.00  0.00    +0.061 S 
ATOM      8  O   UNL     1       0.409   3.637  23.684  0.00  0.00    -0.153 OA
ATOM      9  O   UNL     1      -1.297   2.697  22.088  0.00  0.00    -0.153 OA
BRANCH   1  17
ATOM      2  F   UNL     1      -0.131  -2.447  25.865  0.00  0.00    -0.205 F 
ATOM     17  C   UNL     1      -0.597   1.285  24.160  0.00  0.00    +0.106 A 
ATOM     18  C   UNL     1      -0.956   1.077  25.493  0.00  0.00    +0.031 A 
ATOM     19  C   UNL     1      -0.081   0.232  23.404  0.00  0.00    +0.031 A 
ATOM     21  C   UNL     1      -0.798  -0.184  26.068  0.00  0.00    +0.040 A 
ATOM     22  C   UNL     1       0.076  -1.029  23.980  0.00  0.00    +0.040 A 
ATOM     24  C   UNL     1      -0.283  -1.237  25.312  0.00  0.00    +0.124 A 
ENDBRANCH   1  17
ENDBRANCH  10   1
BRANCH  13   7
ATOM      7  O   UNL     1      -5.319   1.966  25.055  0.00  0.00    -0.469 OA
BRANCH   7  20
ATOM     11  N   UNL     1      -4.543   0.014  26.037  0.00  0.00    -0.221 NA
ATOM     20  C   UNL     1      -4.799   0.710  24.906  0.00  0.00    +0.215 A 
ATOM     23  C   UNL     1      -4.567   0.227  23.628  0.00  0.00    +0.068 A 
ATOM     25  C   UNL     1      -4.038  -1.054  23.503  0.00  0.00    +0.019 A 
ATOM     26  C   UNL     1      -3.762  -1.800  24.642  0.00  0.00    +0.073 A 
ATOM     27  C   UNL     1      -4.029  -1.227  25.875  0.00  0.00    +0.127 A 
BRANCH  26  28
ATOM      3  F   UNL     1      -2.856  -3.695  25.757  0.00  0.00    -0.166 F 
ATOM      4  F   UNL     1      -4.050  -4.081  23.981  0.00  0.00    -0.166 F 
ATOM      5  F   UNL     1      -2.058  -3.244  23.785  0.00  0.00    -0.166 F 
ATOM     28  C   UNL     1      -3.196  -3.172  24.542  0.00  0.00    +0.419 C 
ENDBRANCH  26  28
ENDBRANCH   7  20
ENDBRANCH  13   7
TORSDOF 5
ENDMDL
