MODEL 1
REMARK VINA RESULT:      -2.8      0.000      0.000
REMARK  Name = 45783668
REMARK  8 active torsions:
REMARK  status: ('A' for Active; 'I' for Inactive)
REMARK    1  A    between atoms: N_2  and  C_11
REMARK    2  A    between atoms: N_6  and  C_23
REMARK    3  A    between atoms: C_8  and  C_14
REMARK    4  A    between atoms: C_11  and  C_13
REMARK    5  A    between atoms: C_13  and  C_15
REMARK    6  A    between atoms: C_13  and  C_16
REMARK    7  A    between atoms: C_13  and  C_17
REMARK    8  A    between atoms: C_18  and  C_19
REMARK                            x       y       z     vdW  Elec       q    Type
REMARK                         _______ _______ _______ _____ _____    ______ ____
ROOT
ATOM      1  O   UNL     1      16.874  -6.391  30.670  0.00  0.00    -0.336 OA
ATOM      3  N   UNL     1      16.050  -6.860  28.640  0.00  0.00    -0.190 NA
ATOM      4  N   UNL     1      17.245  -5.324  29.843  0.00  0.00    -0.056 NA
ATOM     14  C   UNL     1      16.175  -7.251  29.883  0.00  0.00    +0.245 A 
ATOM     18  C   UNL     1      16.722  -5.672  28.663  0.00  0.00    +0.204 A 
ENDROOT
BRANCH  18  19
ATOM      5  N   UNL     1      16.791  -4.686  25.079  0.00  0.00    -0.237 NA
ATOM     19  C   UNL     1      16.855  -4.859  27.489  0.00  0.00    +0.041 A 
ATOM     20  C   UNL     1      17.169  -3.507  27.585  0.00  0.00    +0.017 A 
ATOM     21  C   UNL     1      16.677  -5.395  26.224  0.00  0.00    +0.124 A 
ATOM     22  C   UNL     1      17.293  -2.745  26.429  0.00  0.00    +0.047 A 
ATOM     23  C   UNL     1      17.097  -3.375  25.212  0.00  0.00    +0.139 A 
BRANCH  23   6
ATOM      6  N   UNL     1      17.220  -2.619  24.055  0.00  0.00    -0.290 N 
ATOM      7  N   UNL     1      17.404  -0.836  22.746  0.00  0.00    -0.244 NA
ATOM     24  C   UNL     1      17.290  -3.099  22.779  0.00  0.00    +0.114 A 
ATOM     25  C   UNL     1      17.293  -1.256  23.987  0.00  0.00    +0.205 A 
ATOM     26  C   UNL     1      17.404  -1.980  21.988  0.00  0.00    +0.130 A 
ENDBRANCH  23   6
ENDBRANCH  18  19
BRANCH  14   8
ATOM      2  N   UNL     1      14.193  -8.472  30.763  0.00  0.00    -0.291 NA
ATOM      8  C   UNL     1      15.654  -8.506  30.551  0.00  0.00    +0.146 C 
ATOM      9  C   UNL     1      15.899  -9.772  29.710  0.00  0.00    +0.030 C 
ATOM     10  C   UNL     1      13.738  -9.862  30.720  0.00  0.00    +0.085 C 
ATOM     12  C   UNL     1      14.528 -10.416  29.552  0.00  0.00    +0.017 C 
BRANCH   2  11
ATOM     11  C   UNL     1      13.807  -7.806  32.000  0.00  0.00    +0.091 C 
BRANCH  11  13
ATOM     13  C   UNL     1      12.587  -6.860  31.854  0.00  0.00    -0.025 C 
ATOM     15  C   UNL     1      12.435  -6.493  30.366  0.00  0.00    +0.012 C 
ATOM     16  C   UNL     1      12.787  -5.564  32.660  0.00  0.00    +0.012 C 
ATOM     17  C   UNL     1      11.297  -7.555  32.323  0.00  0.00    +0.012 C 
ENDBRANCH  11  13
ENDBRANCH   2  11
ENDBRANCH  14   8
TORSDOF 5
ENDMDL
