MODEL 1
REMARK VINA RESULT:      -2.6      0.000      0.000
REMARK  Name = 25389372
REMARK  9 active torsions:
REMARK  status: ('A' for Active; 'I' for Inactive)
REMARK    1  A    between atoms: S_1  and  N_7
REMARK    2  A    between atoms: S_1  and  C_23
REMARK    3  A    between atoms: O_4  and  C_28
REMARK    4  A    between atoms: O_4  and  C_29
REMARK    5  A    between atoms: N_6  and  C_15
REMARK    6  A    between atoms: N_7  and  C_16
REMARK    7  A    between atoms: C_9  and  C_15
REMARK    8  A    between atoms: C_10  and  C_16
REMARK    9  A    between atoms: C_19  and  C_22
REMARK                            x       y       z     vdW  Elec       q    Type
REMARK                         _______ _______ _______ _____ _____    ______ ____
ROOT
ATOM      5  N   UNL     1      -1.197   3.642  24.394  0.00  0.00    -0.298 NA
ATOM      8  C   UNL     1      -0.186   1.483  25.435  0.00  0.00    -0.003 C 
ATOM      9  C   UNL     1       0.478   1.804  24.077  0.00  0.00    +0.020 C 
ATOM     10  C   UNL     1      -2.285   2.693  24.757  0.00  0.00    +0.072 C 
ATOM     11  C   UNL     1      -1.707   1.344  25.239  0.00  0.00    +0.024 C 
ATOM     12  C   UNL     1      -0.257   3.005  23.441  0.00  0.00    +0.089 C 
ATOM     13  C   UNL     1       0.047   2.703  26.347  0.00  0.00    +0.019 C 
ATOM     14  C   UNL     1      -0.448   3.972  25.631  0.00  0.00    +0.085 C 
ENDROOT
BRANCH   9  15
ATOM     15  C   UNL     1       0.524   0.607  23.130  0.00  0.00    +0.089 C 
BRANCH  15   6
ATOM      6  N   UNL     1       1.918   0.246  22.873  0.00  0.00    -0.302 NA
ATOM     17  C   UNL     1       2.354  -0.809  23.797  0.00  0.00    +0.084 C 
ATOM     18  C   UNL     1       2.782   1.430  22.975  0.00  0.00    +0.084 C 
ATOM     19  C   UNL     1       4.752  -0.041  23.565  0.00  0.00    -0.012 C 
ATOM     20  C   UNL     1       3.795  -1.236  23.508  0.00  0.00    +0.018 C 
ATOM     21  C   UNL     1       4.237   1.080  22.657  0.00  0.00    +0.018 C 
ATOM     22  C   UNL     1       6.169  -0.455  23.177  0.00  0.00    +0.007 C 
ENDBRANCH  15   6
ENDBRANCH   9  15
BRANCH  10  16
ATOM     16  C   UNL     1      -3.298   2.506  23.626  0.00  0.00    +0.124 C 
BRANCH  16   7
ATOM      7  N   UNL     1      -4.615   2.990  24.072  0.00  0.00    -0.188 NA
ATOM     30  H   UNL     1      -5.076   3.682  23.468  0.00  0.00    +0.148 HD
BRANCH   7   1
ATOM      1  S   UNL     1      -5.582   2.025  25.089  0.00  0.00    +0.058 S 
ATOM      2  O   UNL     1      -6.895   1.866  24.493  0.00  0.00    -0.153 OA
ATOM      3  O   UNL     1      -5.454   2.498  26.454  0.00  0.00    -0.153 OA
BRANCH   1  23
ATOM     23  C   UNL     1      -4.752   0.467  25.002  0.00  0.00    +0.105 A 
ATOM     24  C   UNL     1      -4.179  -0.082  26.150  0.00  0.00    +0.032 A 
ATOM     25  C   UNL     1      -4.668  -0.214  23.787  0.00  0.00    +0.032 A 
ATOM     26  C   UNL     1      -3.521  -1.311  26.081  0.00  0.00    +0.047 A 
ATOM     27  C   UNL     1      -4.010  -1.441  23.719  0.00  0.00    +0.047 A 
ATOM     28  C   UNL     1      -3.438  -1.990  24.866  0.00  0.00    +0.120 A 
BRANCH  28   4
ATOM      4  O   UNL     1      -2.796  -3.189  24.800  0.00  0.00    -0.495 OA
ATOM     29  C   UNL     1      -1.464  -3.185  24.286  0.00  0.00    +0.277 C 
ENDBRANCH  28   4
ENDBRANCH   1  23
ENDBRANCH   7   1
ENDBRANCH  16   7
ENDBRANCH  10  16
TORSDOF 7
ENDMDL
MODEL 2
REMARK VINA RESULT:      -2.2      1.872      3.872
REMARK  Name = 25389372
REMARK  9 active torsions:
REMARK  status: ('A' for Active; 'I' for Inactive)
REMARK    1  A    between atoms: S_1  and  N_7
REMARK    2  A    between atoms: S_1  and  C_23
REMARK    3  A    between atoms: O_4  and  C_28
REMARK    4  A    between atoms: O_4  and  C_29
REMARK    5  A    between atoms: N_6  and  C_15
REMARK    6  A    between atoms: N_7  and  C_16
REMARK    7  A    between atoms: C_9  and  C_15
REMARK    8  A    between atoms: C_10  and  C_16
REMARK    9  A    between atoms: C_19  and  C_22
REMARK                            x       y       z     vdW  Elec       q    Type
REMARK                         _______ _______ _______ _____ _____    ______ ____
ROOT
ATOM      5  N   UNL     1      -1.961   0.165  25.708  0.00  0.00    -0.298 NA
ATOM      8  C   UNL     1      -0.573  -1.676  24.503  0.00  0.00    -0.003 C 
ATOM      9  C   UNL     1       0.082  -0.288  24.328  0.00  0.00    +0.020 C 
ATOM     10  C   UNL     1      -2.841  -0.629  24.807  0.00  0.00    +0.072 C 
ATOM     11  C   UNL     1      -2.017  -1.631  23.968  0.00  0.00    +0.024 C 
ATOM     12  C   UNL     1      -0.855   0.780  24.936  0.00  0.00    +0.089 C 
ATOM     13  C   UNL     1      -0.656  -1.944  26.019  0.00  0.00    +0.019 C 
ATOM     14  C   UNL     1      -1.370  -0.764  26.702  0.00  0.00    +0.085 C 
ENDROOT
BRANCH   9  15
ATOM     15  C   UNL     1       0.435   0.034  22.876  0.00  0.00    +0.089 C 
BRANCH  15   6
ATOM      6  N   UNL     1       1.883  -0.067  22.697  0.00  0.00    -0.302 NA
ATOM     17  C   UNL     1       2.441  -1.088  23.593  0.00  0.00    +0.084 C 
ATOM     18  C   UNL     1       2.520   1.238  22.919  0.00  0.00    +0.084 C 
ATOM     19  C   UNL     1       4.678   0.090  23.566  0.00  0.00    -0.012 C 
ATOM     20  C   UNL     1       3.949  -1.244  23.381  0.00  0.00    +0.018 C 
ATOM     21  C   UNL     1       4.029   1.162  22.683  0.00  0.00    +0.018 C 
ATOM     22  C   UNL     1       6.166  -0.050  23.254  0.00  0.00    +0.007 C 
ENDBRANCH  15   6
ENDBRANCH   9  15
BRANCH  10  16
ATOM     16  C   UNL     1      -3.726   0.256  23.927  0.00  0.00    +0.124 C 
BRANCH  16   7
ATOM      7  N   UNL     1      -5.115   0.182  24.409  0.00  0.00    -0.188 NA
ATOM     30  H   UNL     1      -5.472  -0.756  24.627  0.00  0.00    +0.148 HD
BRANCH   7   1
ATOM      1  S   UNL     1      -5.827   1.524  25.177  0.00  0.00    +0.058 S 
ATOM      2  O   UNL     1      -6.097   1.196  26.564  0.00  0.00    -0.153 OA
ATOM      3  O   UNL     1      -6.885   2.048  24.333  0.00  0.00    -0.153 OA
BRANCH   1  23
ATOM     23  C   UNL     1      -4.509   2.701  25.143  0.00  0.00    +0.105 A 
ATOM     24  C   UNL     1      -4.031   3.177  23.921  0.00  0.00    +0.032 A 
ATOM     25  C   UNL     1      -3.944   3.152  26.336  0.00  0.00    +0.032 A 
ATOM     26  C   UNL     1      -2.988   4.103  23.894  0.00  0.00    +0.047 A 
ATOM     27  C   UNL     1      -2.901   4.078  26.308  0.00  0.00    +0.047 A 
ATOM     28  C   UNL     1      -2.425   4.554  25.087  0.00  0.00    +0.120 A 
BRANCH  28   4
ATOM      4  O   UNL     1      -1.407   5.459  25.060  0.00  0.00    -0.495 OA
ATOM     29  C   UNL     1      -0.163   5.020  24.516  0.00  0.00    +0.277 C 
ENDBRANCH  28   4
ENDBRANCH   1  23
ENDBRANCH   7   1
ENDBRANCH  16   7
ENDBRANCH  10  16
TORSDOF 7
ENDMDL
MODEL 3
REMARK VINA RESULT:      -2.0      1.310      2.051
REMARK  Name = 25389372
REMARK  9 active torsions:
REMARK  status: ('A' for Active; 'I' for Inactive)
REMARK    1  A    between atoms: S_1  and  N_7
REMARK    2  A    between atoms: S_1  and  C_23
REMARK    3  A    between atoms: O_4  and  C_28
REMARK    4  A    between atoms: O_4  and  C_29
REMARK    5  A    between atoms: N_6  and  C_15
REMARK    6  A    between atoms: N_7  and  C_16
REMARK    7  A    between atoms: C_9  and  C_15
REMARK    8  A    between atoms: C_10  and  C_16
REMARK    9  A    between atoms: C_19  and  C_22
REMARK                            x       y       z     vdW  Elec       q    Type
REMARK                         _______ _______ _______ _____ _____    ______ ____
ROOT
ATOM      5  N   UNL     1      -3.029   4.569  24.638  0.00  0.00    -0.298 NA
ATOM      8  C   UNL     1      -0.717   3.540  25.242  0.00  0.00    -0.003 C 
ATOM      9  C   UNL     1      -1.341   2.819  24.025  0.00  0.00    +0.020 C 
ATOM     10  C   UNL     1      -2.991   4.210  26.082  0.00  0.00    +0.072 C 
ATOM     11  C   UNL     1      -1.687   3.461  26.435  0.00  0.00    +0.024 C 
ATOM     12  C   UNL     1      -2.767   3.371  23.804  0.00  0.00    +0.089 C 
ATOM     13  C   UNL     1      -0.582   5.028  24.859  0.00  0.00    +0.019 C 
ATOM     14  C   UNL     1      -1.948   5.554  24.385  0.00  0.00    +0.085 C 
ENDROOT
BRANCH   9  15
ATOM     15  C   UNL     1      -1.341   1.298  24.161  0.00  0.00    +0.089 C 
BRANCH  15   6
ATOM      6  N   UNL     1       0.020   0.796  23.974  0.00  0.00    -0.302 NA
ATOM     17  C   UNL     1       0.966   1.912  23.848  0.00  0.00    +0.084 C 
ATOM     18  C   UNL     1       0.084  -0.088  22.802  0.00  0.00    +0.084 C 
ATOM     19  C   UNL     1       2.539   0.448  22.516  0.00  0.00    -0.012 C 
ATOM     20  C   UNL     1       2.403   1.405  23.704  0.00  0.00    +0.018 C 
ATOM     21  C   UNL     1       1.490  -0.664  22.623  0.00  0.00    +0.018 C 
ATOM     22  C   UNL     1       3.948  -0.132  22.438  0.00  0.00    +0.007 C 
ENDBRANCH  15   6
ENDBRANCH   9  15
BRANCH  10  16
ATOM     16  C   UNL     1      -4.231   3.429  26.522  0.00  0.00    +0.124 C 
BRANCH  16   7
ATOM      7  N   UNL     1      -4.945   2.943  25.329  0.00  0.00    -0.188 NA
ATOM     30  H   UNL     1      -4.526   3.177  24.420  0.00  0.00    +0.148 HD
BRANCH   7   1
ATOM      1  S   UNL     1      -5.955   1.576  25.434  0.00  0.00    +0.058 S 
ATOM      2  O   UNL     1      -6.902   1.594  24.336  0.00  0.00    -0.153 OA
ATOM      3  O   UNL     1      -6.424   1.436  26.799  0.00  0.00    -0.153 OA
BRANCH   1  23
ATOM     23  C   UNL     1      -4.810   0.260  25.143  0.00  0.00    +0.105 A 
ATOM     24  C   UNL     1      -4.004  -0.204  26.183  0.00  0.00    +0.032 A 
ATOM     25  C   UNL     1      -4.712  -0.313  23.875  0.00  0.00    +0.032 A 
ATOM     26  C   UNL     1      -3.099  -1.241  25.953  0.00  0.00    +0.047 A 
ATOM     27  C   UNL     1      -3.807  -1.349  23.646  0.00  0.00    +0.047 A 
ATOM     28  C   UNL     1      -3.001  -1.813  24.685  0.00  0.00    +0.120 A 
BRANCH  28   4
ATOM      4  O   UNL     1      -2.118  -2.825  24.461  0.00  0.00    -0.495 OA
ATOM     29  C   UNL     1      -0.797  -2.660  24.977  0.00  0.00    +0.277 C 
ENDBRANCH  28   4
ENDBRANCH   1  23
ENDBRANCH   7   1
ENDBRANCH  16   7
ENDBRANCH  10  16
TORSDOF 7
ENDMDL
MODEL 4
REMARK VINA RESULT:      -1.8      2.859      6.931
REMARK  Name = 25389372
REMARK  9 active torsions:
REMARK  status: ('A' for Active; 'I' for Inactive)
REMARK    1  A    between atoms: S_1  and  N_7
REMARK    2  A    between atoms: S_1  and  C_23
REMARK    3  A    between atoms: O_4  and  C_28
REMARK    4  A    between atoms: O_4  and  C_29
REMARK    5  A    between atoms: N_6  and  C_15
REMARK    6  A    between atoms: N_7  and  C_16
REMARK    7  A    between atoms: C_9  and  C_15
REMARK    8  A    between atoms: C_10  and  C_16
REMARK    9  A    between atoms: C_19  and  C_22
REMARK                            x       y       z     vdW  Elec       q    Type
REMARK                         _______ _______ _______ _____ _____    ______ ____
ROOT
ATOM      5  N   UNL     1      -1.881   3.477  25.430  0.00  0.00    -0.298 NA
ATOM      8  C   UNL     1      -3.959   3.373  23.868  0.00  0.00    -0.003 C 
ATOM      9  C   UNL     1      -4.331   2.959  25.310  0.00  0.00    +0.020 C 
ATOM     10  C   UNL     1      -1.570   2.664  24.222  0.00  0.00    +0.072 C 
ATOM     11  C   UNL     1      -2.830   2.462  23.351  0.00  0.00    +0.024 C 
ATOM     12  C   UNL     1      -3.038   2.899  26.155  0.00  0.00    +0.089 C 
ATOM     13  C   UNL     1      -3.391   4.804  23.946  0.00  0.00    +0.019 C 
ATOM     14  C   UNL     1      -2.252   4.841  24.980  0.00  0.00    +0.085 C 
ENDROOT
BRANCH   9  15
ATOM     15  C   UNL     1      -5.108   1.646  25.379  0.00  0.00    +0.089 C 
BRANCH  15   6
ATOM      6  N   UNL     1      -4.219   0.539  25.032  0.00  0.00    -0.302 NA
ATOM     17  C   UNL     1      -4.835  -0.314  24.006  0.00  0.00    +0.084 C 
ATOM     18  C   UNL     1      -3.874  -0.239  26.229  0.00  0.00    +0.084 C 
ATOM     19  C   UNL     1      -3.467  -2.285  24.802  0.00  0.00    -0.012 C 
ATOM     20  C   UNL     1      -3.895  -1.448  23.593  0.00  0.00    +0.018 C 
ATOM     21  C   UNL     1      -2.901  -1.370  25.892  0.00  0.00    +0.018 C 
ATOM     22  C   UNL     1      -2.452  -3.351  24.398  0.00  0.00    +0.007 C 
ENDBRANCH  15   6
ENDBRANCH   9  15
BRANCH  10  16
ATOM     16  C   UNL     1      -0.900   1.334  24.570  0.00  0.00    +0.124 C 
BRANCH  16   7
ATOM      7  N   UNL     1       0.366   1.221  23.826  0.00  0.00    -0.188 NA
ATOM     30  H   UNL     1       1.099   1.899  24.068  0.00  0.00    +0.148 HD
BRANCH   7   1
ATOM      1  S   UNL     1       0.827  -0.269  23.144  0.00  0.00    +0.058 S 
ATOM      2  O   UNL     1       0.462  -0.288  21.740  0.00  0.00    -0.153 OA
ATOM      3  O   UNL     1       0.405  -1.344  24.021  0.00  0.00    -0.153 OA
BRANCH   1  23
ATOM     23  C   UNL     1       2.590  -0.182  23.247  0.00  0.00    +0.105 A 
ATOM     24  C   UNL     1       3.314  -1.269  23.738  0.00  0.00    +0.032 A 
ATOM     25  C   UNL     1       3.257   0.973  22.839  0.00  0.00    +0.032 A 
ATOM     26  C   UNL     1       4.705  -1.199  23.822  0.00  0.00    +0.047 A 
ATOM     27  C   UNL     1       4.647   1.043  22.924  0.00  0.00    +0.047 A 
ATOM     28  C   UNL     1       5.371  -0.044  23.414  0.00  0.00    +0.120 A 
BRANCH  28   4
ATOM      4  O   UNL     1       6.729   0.024  23.496  0.00  0.00    -0.495 OA
ATOM     29  C   UNL     1       7.473  -0.877  22.678  0.00  0.00    +0.277 C 
ENDBRANCH  28   4
ENDBRANCH   1  23
ENDBRANCH   7   1
ENDBRANCH  16   7
ENDBRANCH  10  16
TORSDOF 7
ENDMDL
MODEL 5
REMARK VINA RESULT:      -1.4      3.104      7.196
REMARK  Name = 25389372
REMARK  9 active torsions:
REMARK  status: ('A' for Active; 'I' for Inactive)
REMARK    1  A    between atoms: S_1  and  N_7
REMARK    2  A    between atoms: S_1  and  C_23
REMARK    3  A    between atoms: O_4  and  C_28
REMARK    4  A    between atoms: O_4  and  C_29
REMARK    5  A    between atoms: N_6  and  C_15
REMARK    6  A    between atoms: N_7  and  C_16
REMARK    7  A    between atoms: C_9  and  C_15
REMARK    8  A    between atoms: C_10  and  C_16
REMARK    9  A    between atoms: C_19  and  C_22
REMARK                            x       y       z     vdW  Elec       q    Type
REMARK                         _______ _______ _______ _____ _____    ______ ____
ROOT
ATOM      5  N   UNL     1      -2.406  -1.284  23.667  0.00  0.00    -0.298 NA
ATOM      8  C   UNL     1      -4.339  -1.271  25.408  0.00  0.00    -0.003 C 
ATOM      9  C   UNL     1      -4.374   0.004  24.535  0.00  0.00    +0.020 C 
ATOM     10  C   UNL     1      -1.865  -1.529  25.032  0.00  0.00    +0.072 C 
ATOM     11  C   UNL     1      -2.969  -1.378  26.102  0.00  0.00    +0.024 C 
ATOM     12  C   UNL     1      -3.126   0.011  23.624  0.00  0.00    +0.089 C 
ATOM     13  C   UNL     1      -4.461  -2.472  24.449  0.00  0.00    +0.019 C 
ATOM     14  C   UNL     1      -3.378  -2.363  23.361  0.00  0.00    +0.085 C 
ENDROOT
BRANCH   9  15
ATOM     15  C   UNL     1      -4.481   1.291  25.352  0.00  0.00    +0.089 C 
BRANCH  15   6
ATOM      6  N   UNL     1      -3.428   2.216  24.936  0.00  0.00    -0.302 NA
ATOM     17  C   UNL     1      -2.392   2.314  25.972  0.00  0.00    +0.084 C 
ATOM     18  C   UNL     1      -3.996   3.536  24.628  0.00  0.00    +0.084 C 
ATOM     19  C   UNL     1      -1.779   4.629  25.162  0.00  0.00    -0.012 C 
ATOM     20  C   UNL     1      -1.255   3.238  25.531  0.00  0.00    +0.018 C 
ATOM     21  C   UNL     1      -2.914   4.501  24.141  0.00  0.00    +0.018 C 
ATOM     22  C   UNL     1      -0.656   5.514  24.628  0.00  0.00    +0.007 C 
ENDBRANCH  15   6
ENDBRANCH   9  15
BRANCH  10  16
ATOM     16  C   UNL     1      -0.649  -0.654  25.343  0.00  0.00    +0.124 C 
BRANCH  16   7
ATOM      7  N   UNL     1       0.445  -1.001  24.422  0.00  0.00    -0.188 NA
ATOM     30  H   UNL     1       0.651  -2.002  24.315  0.00  0.00    +0.148 HD
BRANCH   7   1
ATOM      1  S   UNL     1       0.865   0.057  23.155  0.00  0.00    +0.058 S 
ATOM      2  O   UNL     1       0.424   1.399  23.485  0.00  0.00    -0.153 OA
ATOM      3  O   UNL     1       0.489  -0.544  21.890  0.00  0.00    -0.153 OA
BRANCH   1  23
ATOM     23  C   UNL     1       2.631   0.030  23.235  0.00  0.00    +0.105 A 
ATOM     24  C   UNL     1       3.291  -1.106  23.703  0.00  0.00    +0.032 A 
ATOM     25  C   UNL     1       3.365   1.146  22.831  0.00  0.00    +0.032 A 
ATOM     26  C   UNL     1       4.684  -1.126  23.768  0.00  0.00    +0.047 A 
ATOM     27  C   UNL     1       4.758   1.126  22.897  0.00  0.00    +0.047 A 
ATOM     28  C   UNL     1       5.417  -0.011  23.365  0.00  0.00    +0.120 A 
BRANCH  28   4
ATOM      4  O   UNL     1       6.777  -0.031  23.428  0.00  0.00    -0.495 OA
ATOM     29  C   UNL     1       7.449  -1.007  22.632  0.00  0.00    +0.277 C 
ENDBRANCH  28   4
ENDBRANCH   1  23
ENDBRANCH   7   1
ENDBRANCH  16   7
ENDBRANCH  10  16
TORSDOF 7
ENDMDL
MODEL 6
REMARK VINA RESULT:      -1.3      3.150      7.217
REMARK  Name = 25389372
REMARK  9 active torsions:
REMARK  status: ('A' for Active; 'I' for Inactive)
REMARK    1  A    between atoms: S_1  and  N_7
REMARK    2  A    between atoms: S_1  and  C_23
REMARK    3  A    between atoms: O_4  and  C_28
REMARK    4  A    between atoms: O_4  and  C_29
REMARK    5  A    between atoms: N_6  and  C_15
REMARK    6  A    between atoms: N_7  and  C_16
REMARK    7  A    between atoms: C_9  and  C_15
REMARK    8  A    between atoms: C_10  and  C_16
REMARK    9  A    between atoms: C_19  and  C_22
REMARK                            x       y       z     vdW  Elec       q    Type
REMARK                         _______ _______ _______ _____ _____    ______ ____
ROOT
ATOM      5  N   UNL     1      -2.286  -2.752  24.555  0.00  0.00    -0.298 NA
ATOM      8  C   UNL     1      -3.023  -0.567  25.760  0.00  0.00    -0.003 C 
ATOM      9  C   UNL     1      -3.554  -0.603  24.309  0.00  0.00    +0.020 C 
ATOM     10  C   UNL     1      -1.103  -2.076  25.154  0.00  0.00    +0.072 C 
ATOM     11  C   UNL     1      -1.489  -0.703  25.747  0.00  0.00    +0.024 C 
ATOM     12  C   UNL     1      -2.968  -1.845  23.601  0.00  0.00    +0.089 C 
ATOM     13  C   UNL     1      -3.585  -1.814  26.472  0.00  0.00    +0.019 C 
ATOM     14  C   UNL     1      -3.236  -3.067  25.651  0.00  0.00    +0.085 C 
ENDROOT
BRANCH   9  15
ATOM     15  C   UNL     1      -3.263   0.679  23.530  0.00  0.00    +0.089 C 
BRANCH  15   6
ATOM      6  N   UNL     1      -3.761   1.827  24.286  0.00  0.00    -0.302 NA
ATOM     17  C   UNL     1      -4.978   1.467  25.025  0.00  0.00    +0.084 C 
ATOM     18  C   UNL     1      -4.002   2.966  23.391  0.00  0.00    +0.084 C 
ATOM     19  C   UNL     1      -5.727   3.882  24.997  0.00  0.00    -0.012 C 
ATOM     20  C   UNL     1      -5.483   2.643  25.864  0.00  0.00    +0.018 C 
ATOM     21  C   UNL     1      -4.472   4.193  24.174  0.00  0.00    +0.018 C 
ATOM     22  C   UNL     1      -6.133   5.078  25.853  0.00  0.00    +0.007 C 
ENDBRANCH  15   6
ENDBRANCH   9  15
BRANCH  10  16
ATOM     16  C   UNL     1       0.064  -1.964  24.172  0.00  0.00    +0.124 C 
BRANCH  16   7
ATOM      7  N   UNL     1       0.888  -0.798  24.531  0.00  0.00    -0.188 NA
ATOM     30  H   UNL     1       1.576  -0.939  25.281  0.00  0.00    +0.148 HD
BRANCH   7   1
ATOM      1  S   UNL     1       1.167   0.436  23.391  0.00  0.00    +0.058 S 
ATOM      2  O   UNL     1       0.500   0.100  22.147  0.00  0.00    -0.153 OA
ATOM      3  O   UNL     1       2.578   0.775  23.394  0.00  0.00    -0.153 OA
BRANCH   1  23
ATOM     23  C   UNL     1       0.308   1.799  24.119  0.00  0.00    +0.105 A 
ATOM     24  C   UNL     1       0.031   1.799  25.486  0.00  0.00    +0.032 A 
ATOM     25  C   UNL     1      -0.096   2.874  23.326  0.00  0.00    +0.032 A 
ATOM     26  C   UNL     1      -0.650   2.873  26.060  0.00  0.00    +0.047 A 
ATOM     27  C   UNL     1      -0.777   3.947  23.900  0.00  0.00    +0.047 A 
ATOM     28  C   UNL     1      -1.053   3.947  25.267  0.00  0.00    +0.120 A 
BRANCH  28   4
ATOM      4  O   UNL     1      -1.717   4.995  25.828  0.00  0.00    -0.495 OA
ATOM     29  C   UNL     1      -1.790   6.199  25.065  0.00  0.00    +0.277 C 
ENDBRANCH  28   4
ENDBRANCH   1  23
ENDBRANCH   7   1
ENDBRANCH  16   7
ENDBRANCH  10  16
TORSDOF 7
ENDMDL
MODEL 7
REMARK VINA RESULT:      -1.1      2.051      4.195
REMARK  Name = 25389372
REMARK  9 active torsions:
REMARK  status: ('A' for Active; 'I' for Inactive)
REMARK    1  A    between atoms: S_1  and  N_7
REMARK    2  A    between atoms: S_1  and  C_23
REMARK    3  A    between atoms: O_4  and  C_28
REMARK    4  A    between atoms: O_4  and  C_29
REMARK    5  A    between atoms: N_6  and  C_15
REMARK    6  A    between atoms: N_7  and  C_16
REMARK    7  A    between atoms: C_9  and  C_15
REMARK    8  A    between atoms: C_10  and  C_16
REMARK    9  A    between atoms: C_19  and  C_22
REMARK                            x       y       z     vdW  Elec       q    Type
REMARK                         _______ _______ _______ _____ _____    ______ ____
ROOT
ATOM      5  N   UNL     1      -3.570  -0.110  25.774  0.00  0.00    -0.298 NA
ATOM      8  C   UNL     1      -2.695  -1.888  24.089  0.00  0.00    -0.003 C 
ATOM      9  C   UNL     1      -1.612  -0.824  24.382  0.00  0.00    +0.020 C 
ATOM     10  C   UNL     1      -4.527  -0.255  24.643  0.00  0.00    +0.072 C 
ATOM     11  C   UNL     1      -3.961  -1.193  23.554  0.00  0.00    +0.024 C 
ATOM     12  C   UNL     1      -2.232   0.278  25.269  0.00  0.00    +0.089 C 
ATOM     13  C   UNL     1      -3.064  -2.534  25.439  0.00  0.00    +0.019 C 
ATOM     14  C   UNL     1      -3.448  -1.430  26.440  0.00  0.00    +0.085 C 
ENDROOT
BRANCH   9  15
ATOM     15  C   UNL     1      -0.982  -0.242  23.118  0.00  0.00    +0.089 C 
BRANCH  15   6
ATOM      6  N   UNL     1       0.465  -0.133  23.305  0.00  0.00    -0.302 NA
ATOM     17  C   UNL     1       0.838   1.252  23.622  0.00  0.00    +0.084 C 
ATOM     18  C   UNL     1       1.175  -0.614  22.113  0.00  0.00    +0.084 C 
ATOM     19  C   UNL     1       3.151   0.859  22.679  0.00  0.00    -0.012 C 
ATOM     20  C   UNL     1       2.343   1.374  23.873  0.00  0.00    +0.018 C 
ATOM     21  C   UNL     1       2.691  -0.556  22.313  0.00  0.00    +0.018 C 
ATOM     22  C   UNL     1       4.648   0.890  22.975  0.00  0.00    +0.007 C 
ENDBRANCH  15   6
ENDBRANCH   9  15
BRANCH  10  16
ATOM     16  C   UNL     1      -4.954   1.095  24.064  0.00  0.00    +0.124 C 
BRANCH  16   7
ATOM      7  N   UNL     1      -6.050   1.646  24.878  0.00  0.00    -0.188 NA
ATOM     30  H   UNL     1      -6.825   1.006  25.093  0.00  0.00    +0.148 HD
BRANCH   7   1
ATOM      1  S   UNL     1      -5.762   2.957  25.926  0.00  0.00    +0.058 S 
ATOM      2  O   UNL     1      -5.807   2.493  27.299  0.00  0.00    -0.153 OA
ATOM      3  O   UNL     1      -6.575   4.084  25.510  0.00  0.00    -0.153 OA
BRANCH   1  23
ATOM     23  C   UNL     1      -4.084   3.362  25.542  0.00  0.00    +0.105 A 
ATOM     24  C   UNL     1      -3.167   3.580  26.571  0.00  0.00    +0.032 A 
ATOM     25  C   UNL     1      -3.678   3.468  24.212  0.00  0.00    +0.032 A 
ATOM     26  C   UNL     1      -1.844   3.902  26.269  0.00  0.00    +0.047 A 
ATOM     27  C   UNL     1      -2.355   3.791  23.910  0.00  0.00    +0.047 A 
ATOM     28  C   UNL     1      -1.438   4.007  24.939  0.00  0.00    +0.120 A 
BRANCH  28   4
ATOM      4  O   UNL     1      -0.146   4.322  24.644  0.00  0.00    -0.495 OA
ATOM     29  C   UNL     1       0.100   4.932  23.378  0.00  0.00    +0.277 C 
ENDBRANCH  28   4
ENDBRANCH   1  23
ENDBRANCH   7   1
ENDBRANCH  16   7
ENDBRANCH  10  16
TORSDOF 7
ENDMDL
MODEL 8
REMARK VINA RESULT:       0.4      2.088      4.209
REMARK  Name = 25389372
REMARK  9 active torsions:
REMARK  status: ('A' for Active; 'I' for Inactive)
REMARK    1  A    between atoms: S_1  and  N_7
REMARK    2  A    between atoms: S_1  and  C_23
REMARK    3  A    between atoms: O_4  and  C_28
REMARK    4  A    between atoms: O_4  and  C_29
REMARK    5  A    between atoms: N_6  and  C_15
REMARK    6  A    between atoms: N_7  and  C_16
REMARK    7  A    between atoms: C_9  and  C_15
REMARK    8  A    between atoms: C_10  and  C_16
REMARK    9  A    between atoms: C_19  and  C_22
REMARK                            x       y       z     vdW  Elec       q    Type
REMARK                         _______ _______ _______ _____ _____    ______ ____
ROOT
ATOM      5  N   UNL     1      -3.285  -0.982  25.969  0.00  0.00    -0.298 NA
ATOM      8  C   UNL     1      -2.506  -1.326  23.512  0.00  0.00    -0.003 C 
ATOM      9  C   UNL     1      -1.414  -0.614  24.342  0.00  0.00    +0.020 C 
ATOM     10  C   UNL     1      -4.311  -0.451  25.031  0.00  0.00    +0.072 C 
ATOM     11  C   UNL     1      -3.808  -0.506  23.571  0.00  0.00    +0.024 C 
ATOM     12  C   UNL     1      -1.984  -0.308  25.745  0.00  0.00    +0.089 C 
ATOM     13  C   UNL     1      -2.784  -2.676  24.202  0.00  0.00    +0.019 C 
ATOM     14  C   UNL     1      -3.112  -2.428  25.685  0.00  0.00    +0.085 C 
ENDROOT
BRANCH   9  15
ATOM     15  C   UNL     1      -0.870   0.644  23.669  0.00  0.00    +0.089 C 
BRANCH  15   6
ATOM      6  N   UNL     1       0.493   0.391  23.203  0.00  0.00    -0.302 NA
ATOM     17  C   UNL     1       1.041  -0.810  23.846  0.00  0.00    +0.084 C 
ATOM     18  C   UNL     1       1.346   1.561  23.451  0.00  0.00    +0.084 C 
ATOM     19  C   UNL     1       3.389   0.073  23.528  0.00  0.00    -0.012 C 
ATOM     20  C   UNL     1       2.449  -1.120  23.331  0.00  0.00    +0.018 C 
ATOM     21  C   UNL     1       2.763   1.333  22.921  0.00  0.00    +0.018 C 
ATOM     22  C   UNL     1       4.762  -0.205  22.921  0.00  0.00    +0.007 C 
ENDBRANCH  15   6
ENDBRANCH   9  15
BRANCH  10  16
ATOM     16  C   UNL     1      -4.783   0.952  25.416  0.00  0.00    +0.124 C 
BRANCH  16   7
ATOM      7  N   UNL     1      -4.667   1.840  24.247  0.00  0.00    -0.188 NA
ATOM     30  H   UNL     1      -5.200   1.567  23.412  0.00  0.00    +0.148 HD
BRANCH   7   1
ATOM      1  S   UNL     1      -4.264   3.481  24.456  0.00  0.00    +0.058 S 
ATOM      2  O   UNL     1      -5.144   4.069  25.448  0.00  0.00    -0.153 OA
ATOM      3  O   UNL     1      -4.116   4.103  23.154  0.00  0.00    -0.153 OA
BRANCH   1  23
ATOM     23  C   UNL     1      -2.647   3.368  25.161  0.00  0.00    +0.105 A 
ATOM     24  C   UNL     1      -2.467   2.744  26.395  0.00  0.00    +0.032 A 
ATOM     25  C   UNL     1      -1.551   3.905  24.485  0.00  0.00    +0.032 A 
ATOM     26  C   UNL     1      -1.191   2.657  26.953  0.00  0.00    +0.047 A 
ATOM     27  C   UNL     1      -0.276   3.819  25.043  0.00  0.00    +0.047 A 
ATOM     28  C   UNL     1      -0.096   3.194  26.276  0.00  0.00    +0.120 A 
BRANCH  28   4
ATOM      4  O   UNL     1       1.149   3.109  26.821  0.00  0.00    -0.495 OA
ATOM     29  C   UNL     1       1.242   2.599  28.150  0.00  0.00    +0.277 C 
ENDBRANCH  28   4
ENDBRANCH   1  23
ENDBRANCH   7   1
ENDBRANCH  16   7
ENDBRANCH  10  16
TORSDOF 7
ENDMDL
MODEL 9
REMARK VINA RESULT:       0.5      3.327      7.844
REMARK  Name = 25389372
REMARK  9 active torsions:
REMARK  status: ('A' for Active; 'I' for Inactive)
REMARK    1  A    between atoms: S_1  and  N_7
REMARK    2  A    between atoms: S_1  and  C_23
REMARK    3  A    between atoms: O_4  and  C_28
REMARK    4  A    between atoms: O_4  and  C_29
REMARK    5  A    between atoms: N_6  and  C_15
REMARK    6  A    between atoms: N_7  and  C_16
REMARK    7  A    between atoms: C_9  and  C_15
REMARK    8  A    between atoms: C_10  and  C_16
REMARK    9  A    between atoms: C_19  and  C_22
REMARK                            x       y       z     vdW  Elec       q    Type
REMARK                         _______ _______ _______ _____ _____    ______ ____
ROOT
ATOM      5  N   UNL     1      -2.366  -2.619  24.329  0.00  0.00    -0.298 NA
ATOM      8  C   UNL     1      -3.098  -0.548  25.723  0.00  0.00    -0.003 C 
ATOM      9  C   UNL     1      -3.298  -0.294  24.211  0.00  0.00    +0.020 C 
ATOM     10  C   UNL     1      -1.275  -2.218  25.259  0.00  0.00    +0.072 C 
ATOM     11  C   UNL     1      -1.624  -0.903  25.991  0.00  0.00    +0.024 C 
ATOM     12  C   UNL     1      -2.715  -1.493  23.430  0.00  0.00    +0.089 C 
ATOM     13  C   UNL     1      -3.940  -1.788  26.083  0.00  0.00    +0.019 C 
ATOM     14  C   UNL     1      -3.562  -2.947  25.143  0.00  0.00    +0.085 C 
ENDROOT
BRANCH   9  15
ATOM     15  C   UNL     1      -2.701   1.030  23.738  0.00  0.00    +0.089 C 
BRANCH  15   6
ATOM      6  N   UNL     1      -3.675   2.100  23.946  0.00  0.00    -0.302 NA
ATOM     17  C   UNL     1      -3.015   3.299  24.478  0.00  0.00    +0.084 C 
ATOM     18  C   UNL     1      -4.753   1.649  24.836  0.00  0.00    +0.084 C 
ATOM     19  C   UNL     1      -5.185   4.037  25.547  0.00  0.00    -0.012 C 
ATOM     20  C   UNL     1      -4.012   4.448  24.652  0.00  0.00    +0.018 C 
ATOM     21  C   UNL     1      -5.809   2.741  25.020  0.00  0.00    +0.018 C 
ATOM     22  C   UNL     1      -6.224   5.151  25.634  0.00  0.00    +0.007 C 
ENDBRANCH  15   6
ENDBRANCH   9  15
BRANCH  10  16
ATOM     16  C   UNL     1       0.085  -2.136  24.562  0.00  0.00    +0.124 C 
BRANCH  16   7
ATOM      7  N   UNL     1       0.571  -0.748  24.611  0.00  0.00    -0.188 NA
ATOM     30  H   UNL     1       1.011  -0.449  25.490  0.00  0.00    +0.148 HD
BRANCH   7   1
ATOM      1  S   UNL     1       0.992   0.063  23.173  0.00  0.00    +0.058 S 
ATOM      2  O   UNL     1       0.565   1.446  23.260  0.00  0.00    -0.153 OA
ATOM      3  O   UNL     1       0.601  -0.751  22.038  0.00  0.00    -0.153 OA
BRANCH   1  23
ATOM     23  C   UNL     1       2.758   0.032  23.246  0.00  0.00    +0.105 A 
ATOM     24  C   UNL     1       3.490   1.162  22.882  0.00  0.00    +0.032 A 
ATOM     25  C   UNL     1       3.420  -1.122  23.665  0.00  0.00    +0.032 A 
ATOM     26  C   UNL     1       4.884   1.137  22.936  0.00  0.00    +0.047 A 
ATOM     27  C   UNL     1       4.813  -1.147  23.719  0.00  0.00    +0.047 A 
ATOM     28  C   UNL     1       5.545  -0.017  23.356  0.00  0.00    +0.120 A 
BRANCH  28   4
ATOM      4  O   UNL     1       6.905  -0.041  23.409  0.00  0.00    -0.495 OA
ATOM     29  C   UNL     1       7.571  -0.982  22.568  0.00  0.00    +0.277 C 
ENDBRANCH  28   4
ENDBRANCH   1  23
ENDBRANCH   7   1
ENDBRANCH  16   7
ENDBRANCH  10  16
TORSDOF 7
ENDMDL
MODEL 10
REMARK VINA RESULT:       0.7      2.783      6.630
REMARK  Name = 25389372
REMARK  9 active torsions:
REMARK  status: ('A' for Active; 'I' for Inactive)
REMARK    1  A    between atoms: S_1  and  N_7
REMARK    2  A    between atoms: S_1  and  C_23
REMARK    3  A    between atoms: O_4  and  C_28
REMARK    4  A    between atoms: O_4  and  C_29
REMARK    5  A    between atoms: N_6  and  C_15
REMARK    6  A    between atoms: N_7  and  C_16
REMARK    7  A    between atoms: C_9  and  C_15
REMARK    8  A    between atoms: C_10  and  C_16
REMARK    9  A    between atoms: C_19  and  C_22
REMARK                            x       y       z     vdW  Elec       q    Type
REMARK                         _______ _______ _______ _____ _____    ______ ____
ROOT
ATOM      5  N   UNL     1      -1.976  -1.068  24.072  0.00  0.00    -0.298 NA
ATOM      8  C   UNL     1      -3.847  -1.572  25.808  0.00  0.00    -0.003 C 
ATOM      9  C   UNL     1      -4.334  -0.555  24.751  0.00  0.00    +0.020 C 
ATOM     10  C   UNL     1      -1.454  -0.879  25.453  0.00  0.00    +0.072 C 
ATOM     11  C   UNL     1      -2.583  -1.026  26.497  0.00  0.00    +0.024 C 
ATOM     12  C   UNL     1      -3.143  -0.185  23.837  0.00  0.00    +0.089 C 
ATOM     13  C   UNL     1      -3.436  -2.847  25.045  0.00  0.00    +0.019 C 
ATOM     14  C   UNL     1      -2.428  -2.476  23.943  0.00  0.00    +0.085 C 
ENDROOT
BRANCH   9  15
ATOM     15  C   UNL     1      -4.980   0.687  25.362  0.00  0.00    +0.089 C 
BRANCH  15   6
ATOM      6  N   UNL     1      -4.130   1.849  25.109  0.00  0.00    -0.302 NA
ATOM     17  C   UNL     1      -3.964   2.642  26.334  0.00  0.00    +0.084 C 
ATOM     18  C   UNL     1      -4.685   2.665  24.021  0.00  0.00    +0.084 C 
ATOM     19  C   UNL     1      -3.536   4.715  24.953  0.00  0.00    -0.012 C 
ATOM     20  C   UNL     1      -3.033   3.834  26.100  0.00  0.00    +0.018 C 
ATOM     21  C   UNL     1      -3.779   3.857  23.708  0.00  0.00    +0.018 C 
ATOM     22  C   UNL     1      -2.552   5.844  24.658  0.00  0.00    +0.007 C 
ENDBRANCH  15   6
ENDBRANCH   9  15
BRANCH  10  16
ATOM     16  C   UNL     1      -0.698   0.441  25.615  0.00  0.00    +0.124 C 
BRANCH  16   7
ATOM      7  N   UNL     1      -1.424   1.505  24.903  0.00  0.00    -0.188 NA
ATOM     30  H   UNL     1      -2.126   2.021  25.447  0.00  0.00    +0.148 HD
BRANCH   7   1
ATOM      1  S   UNL     1      -0.718   2.268  23.554  0.00  0.00    +0.058 S 
ATOM      2  O   UNL     1      -0.359   3.629  23.905  0.00  0.00    -0.153 OA
ATOM      3  O   UNL     1      -1.532   2.008  22.382  0.00  0.00    -0.153 OA
BRANCH   1  23
ATOM     23  C   UNL     1       0.776   1.344  23.359  0.00  0.00    +0.105 A 
ATOM     24  C   UNL     1       2.010   1.960  23.571  0.00  0.00    +0.032 A 
ATOM     25  C   UNL     1       0.723  -0.001  22.990  0.00  0.00    +0.032 A 
ATOM     26  C   UNL     1       3.190   1.232  23.414  0.00  0.00    +0.047 A 
ATOM     27  C   UNL     1       1.902  -0.729  22.833  0.00  0.00    +0.047 A 
ATOM     28  C   UNL     1       3.135  -0.112  23.046  0.00  0.00    +0.120 A 
BRANCH  28   4
ATOM      4  O   UNL     1       4.287  -0.823  22.893  0.00  0.00    -0.495 OA
ATOM     29  C   UNL     1       5.471  -0.270  23.466  0.00  0.00    +0.277 C 
ENDBRANCH  28   4
ENDBRANCH   1  23
ENDBRANCH   7   1
ENDBRANCH  16   7
ENDBRANCH  10  16
TORSDOF 7
ENDMDL
