MODEL 1
REMARK VINA RESULT:       0.6      0.000      0.000
REMARK  Name = 25314503
REMARK  6 active torsions:
REMARK  status: ('A' for Active; 'I' for Inactive)
REMARK    1  A    between atoms: O_3  and  C_9
REMARK    2  A    between atoms: N_5  and  C_8
REMARK    3  A    between atoms: N_6  and  C_10
REMARK    4  A    between atoms: N_7  and  C_21
REMARK    5  A    between atoms: C_15  and  C_19
REMARK    6  A    between atoms: C_19  and  C_22
REMARK                            x       y       z     vdW  Elec       q    Type
REMARK                         _______ _______ _______ _____ _____    ______ ____
ROOT
ATOM      1  O   UNL     1      -3.310   3.467  23.120  0.00  0.00    -0.342 OA
ATOM      2  O   UNL     1      -3.315   5.280  24.565  0.00  0.00    -0.347 OA
ATOM      8  C   UNL     1      -2.224   3.236  25.260  0.00  0.00    +0.143 C 
ATOM      9  C   UNL     1      -3.537   2.726  25.894  0.00  0.00    +0.159 C 
ATOM     10  C   UNL     1      -4.681   2.539  24.873  0.00  0.00    +0.136 C 
ATOM     11  C   UNL     1      -2.525   4.181  24.082  0.00  0.00    +0.270 C 
ATOM     12  C   UNL     1      -4.616   3.538  23.699  0.00  0.00    +0.170 C 
ATOM     16  C   UNL     1      -4.651   4.995  24.123  0.00  0.00    +0.196 C 
ENDROOT
BRANCH  10   6
ATOM      4  O   UNL     1      -3.752   0.188  26.241  0.00  0.00    -0.253 OA
ATOM      6  N   UNL     1      -4.679   1.184  24.364  0.00  0.00    -0.291 N 
ATOM      7  N   UNL     1      -4.319  -1.082  24.383  0.00  0.00    -0.297 N 
ATOM     20  C   UNL     1      -4.208   0.105  25.102  0.00  0.00    +0.300 C 
ATOM     33  H   UNL     1      -4.964   1.028  23.401  0.00  0.00    +0.151 HD
ATOM     35  H   UNL     1      -4.641  -1.026  23.421  0.00  0.00    +0.151 HD
BRANCH   7  21
ATOM     21  C   UNL     1      -3.904  -2.366  24.903  0.00  0.00    +0.074 C 
ATOM     23  C   UNL     1      -3.139  -3.169  23.846  0.00  0.00    +0.022 C 
ATOM     24  C   UNL     1      -3.078  -2.200  26.182  0.00  0.00    +0.022 C 
ATOM     25  C   UNL     1      -1.745  -2.600  23.576  0.00  0.00    +0.002 C 
ATOM     26  C   UNL     1      -1.685  -1.634  25.909  0.00  0.00    +0.002 C 
ATOM     27  C   UNL     1      -0.938  -2.455  24.863  0.00  0.00    +0.000 C 
ENDBRANCH   7  21
ENDBRANCH  10   6
BRANCH   8   5
ATOM      5  N   UNL     1      -1.416   2.107  24.795  0.00  0.00    -0.293 NA
ATOM     13  C   UNL     1       0.008   2.348  25.068  0.00  0.00    +0.085 C 
ATOM     14  C   UNL     1      -1.647   1.865  23.365  0.00  0.00    +0.085 C 
ATOM     15  C   UNL     1       0.647   0.821  23.156  0.00  0.00    -0.004 C 
ATOM     17  C   UNL     1       0.862   1.153  24.636  0.00  0.00    +0.019 C 
ATOM     18  C   UNL     1      -0.850   0.654  22.875  0.00  0.00    +0.019 C 
BRANCH  15  19
ATOM     19  C   UNL     1       1.423  -0.431  22.756  0.00  0.00    +0.038 C 
BRANCH  19  22
ATOM     22  C   UNL     1       2.888  -0.299  23.069  0.00  0.00    -0.047 A 
ATOM     28  C   UNL     1       3.572  -1.356  23.669  0.00  0.00    +0.003 A 
ATOM     29  C   UNL     1       3.564   0.882  22.761  0.00  0.00    +0.003 A 
ATOM     30  C   UNL     1       4.930  -1.233  23.960  0.00  0.00    +0.000 A 
ATOM     31  C   UNL     1       4.922   1.005  23.052  0.00  0.00    +0.000 A 
ATOM     32  C   UNL     1       5.606  -0.052  23.651  0.00  0.00    +0.000 A 
ENDBRANCH  19  22
ENDBRANCH  15  19
ENDBRANCH   8   5
BRANCH   9   3
ATOM      3  O   UNL     1      -3.950   3.683  26.878  0.00  0.00    -0.388 OA
ATOM     34  H   UNL     1      -4.243   4.482  26.408  0.00  0.00    +0.210 HD
ENDBRANCH   9   3
TORSDOF 6
ENDMDL
MODEL 2
REMARK VINA RESULT:       3.9      2.788      6.707
REMARK  Name = 25314503
REMARK  6 active torsions:
REMARK  status: ('A' for Active; 'I' for Inactive)
REMARK    1  A    between atoms: O_3  and  C_9
REMARK    2  A    between atoms: N_5  and  C_8
REMARK    3  A    between atoms: N_6  and  C_10
REMARK    4  A    between atoms: N_7  and  C_21
REMARK    5  A    between atoms: C_15  and  C_19
REMARK    6  A    between atoms: C_19  and  C_22
REMARK                            x       y       z     vdW  Elec       q    Type
REMARK                         _______ _______ _______ _____ _____    ______ ____
ROOT
ATOM      1  O   UNL     1       2.695   0.683  24.401  0.00  0.00    -0.342 OA
ATOM      2  O   UNL     1       3.507   0.940  22.244  0.00  0.00    -0.347 OA
ATOM      8  C   UNL     1       1.163   1.363  22.667  0.00  0.00    +0.143 C 
ATOM      9  C   UNL     1       0.820  -0.113  22.364  0.00  0.00    +0.159 C 
ATOM     10  C   UNL     1       1.488  -1.112  23.336  0.00  0.00    +0.136 C 
ATOM     11  C   UNL     1       2.597   1.482  23.215  0.00  0.00    +0.270 C 
ATOM     12  C   UNL     1       2.858  -0.629  23.856  0.00  0.00    +0.170 C 
ATOM     16  C   UNL     1       3.872  -0.349  22.762  0.00  0.00    +0.196 C 
ENDROOT
BRANCH  10   6
ATOM      4  O   UNL     1      -1.173  -2.192  23.207  0.00  0.00    -0.253 OA
ATOM      6  N   UNL     1       0.609  -1.385  24.453  0.00  0.00    -0.291 N 
ATOM      7  N   UNL     1      -1.300  -2.077  25.522  0.00  0.00    -0.297 N 
ATOM     20  C   UNL     1      -0.667  -1.911  24.293  0.00  0.00    +0.300 C 
ATOM     33  H   UNL     1       0.909  -1.111  25.384  0.00  0.00    +0.151 HD
ATOM     35  H   UNL     1      -0.820  -1.743  26.352  0.00  0.00    +0.151 HD
BRANCH   7  21
ATOM     21  C   UNL     1      -2.639  -2.606  25.659  0.00  0.00    +0.074 C 
ATOM     23  C   UNL     1      -3.515  -1.676  26.504  0.00  0.00    +0.022 C 
ATOM     24  C   UNL     1      -3.270  -2.870  24.288  0.00  0.00    +0.022 C 
ATOM     25  C   UNL     1      -3.881  -0.387  25.767  0.00  0.00    +0.002 C 
ATOM     26  C   UNL     1      -3.636  -1.581  23.554  0.00  0.00    +0.002 C 
ATOM     27  C   UNL     1      -4.517  -0.676  24.411  0.00  0.00    +0.000 C 
ENDBRANCH   7  21
ENDBRANCH  10   6
BRANCH   8   5
ATOM      5  N   UNL     1       0.214   1.911  23.638  0.00  0.00    -0.293 NA
ATOM     13  C   UNL     1      -1.164   1.573  23.256  0.00  0.00    +0.085 C 
ATOM     14  C   UNL     1       0.388   3.365  23.760  0.00  0.00    +0.085 C 
ATOM     15  C   UNL     1      -2.021   3.606  24.493  0.00  0.00    -0.004 C 
ATOM     17  C   UNL     1      -2.166   2.095  24.289  0.00  0.00    +0.019 C 
ATOM     18  C   UNL     1      -0.560   3.947  24.810  0.00  0.00    +0.019 C 
BRANCH  15  19
ATOM     19  C   UNL     1      -2.952   4.103  25.595  0.00  0.00    +0.038 C 
BRANCH  19  22
ATOM     22  C   UNL     1      -4.258   3.357  25.597  0.00  0.00    -0.047 A 
ATOM     28  C   UNL     1      -4.882   3.046  26.804  0.00  0.00    +0.003 A 
ATOM     29  C   UNL     1      -4.844   2.974  24.390  0.00  0.00    +0.003 A 
ATOM     30  C   UNL     1      -6.093   2.353  26.805  0.00  0.00    +0.000 A 
ATOM     31  C   UNL     1      -6.054   2.281  24.392  0.00  0.00    +0.000 A 
ATOM     32  C   UNL     1      -6.679   1.971  25.599  0.00  0.00    +0.000 A 
ENDBRANCH  19  22
ENDBRANCH  15  19
ENDBRANCH   8   5
BRANCH   9   3
ATOM      3  O   UNL     1       1.263  -0.402  21.032  0.00  0.00    -0.388 OA
ATOM     34  H   UNL     1       1.691   0.399  20.684  0.00  0.00    +0.210 HD
ENDBRANCH   9   3
TORSDOF 6
ENDMDL
