MODEL 1
REMARK VINA RESULT:      -4.4      0.000      0.000
REMARK  Name = 75536676
REMARK  7 active torsions:
REMARK  status: ('A' for Active; 'I' for Inactive)
REMARK    1  A    between atoms: S_1  and  N_8
REMARK    2  A    between atoms: S_1  and  C_19
REMARK    3  A    between atoms: O_3  and  C_10
REMARK    4  A    between atoms: N_7  and  C_9
REMARK    5  A    between atoms: N_7  and  C_12
REMARK    6  A    between atoms: N_8  and  C_16
REMARK    7  A    between atoms: C_11  and  C_16
REMARK                            x       y       z     vdW  Elec       q    Type
REMARK                         _______ _______ _______ _____ _____    ______ ____
ROOT
ATOM      2  O   UNL     1      -1.418   3.537  25.772  0.00  0.00    -0.371 OA
ATOM      9  C   UNL     1      -0.472   1.681  24.631  0.00  0.00    +0.111 C 
ATOM     10  C   UNL     1      -1.836   1.984  24.038  0.00  0.00    +0.164 C 
ATOM     11  C   UNL     1      -2.032   3.428  24.476  0.00  0.00    +0.164 C 
ATOM     13  C   UNL     1      -0.560   2.400  25.968  0.00  0.00    +0.181 C 
ENDROOT
BRANCH  10   3
ATOM      3  O   UNL     1      -1.860   1.852  22.630  0.00  0.00    -0.388 OA
ATOM     26  H   UNL     1      -1.948   2.739  22.242  0.00  0.00    +0.210 HD
ENDBRANCH  10   3
BRANCH   9   7
ATOM      7  N   UNL     1      -0.200   0.259  24.771  0.00  0.00    -0.306 NA
ATOM     25  H   UNL     1      -1.043  -0.280  24.578  0.00  0.00    +0.123 HD
BRANCH   7  12
ATOM      4  O   UNL     1       2.342   0.241  21.429  0.00  0.00    -0.380 OA
ATOM     12  C   UNL     1       0.872  -0.162  23.872  0.00  0.00    +0.058 C 
ATOM     14  C   UNL     1       1.927   0.939  23.719  0.00  0.00    +0.047 C 
ATOM     15  C   UNL     1       0.303  -0.535  22.500  0.00  0.00    +0.047 C 
ATOM     17  C   UNL     1       2.965   0.537  22.679  0.00  0.00    +0.161 C 
ATOM     18  C   UNL     1       1.431  -0.855  21.527  0.00  0.00    +0.161 C 
ENDBRANCH   7  12
ENDBRANCH   9   7
BRANCH  11  16
ATOM     16  C   UNL     1      -3.491   3.837  24.564  0.00  0.00    +0.140 C 
BRANCH  16   8
ATOM      8  N   UNL     1      -4.341   2.757  24.025  0.00  0.00    -0.187 NA
ATOM     27  H   UNL     1      -4.637   2.869  23.047  0.00  0.00    +0.148 HD
BRANCH   8   1
ATOM      1  S   UNL     1      -5.328   1.847  25.070  0.00  0.00    +0.058 S 
ATOM      5  O   UNL     1      -6.651   1.718  24.491  0.00  0.00    -0.153 OA
ATOM      6  O   UNL     1      -5.169   2.347  26.422  0.00  0.00    -0.153 OA
BRANCH   1  19
ATOM     19  C   UNL     1      -4.550   0.260  25.011  0.00  0.00    +0.105 A 
ATOM     20  C   UNL     1      -3.812  -0.195  26.103  0.00  0.00    +0.028 A 
ATOM     21  C   UNL     1      -4.674  -0.534  23.871  0.00  0.00    +0.028 A 
ATOM     22  C   UNL     1      -3.195  -1.445  26.056  0.00  0.00    +0.002 A 
ATOM     23  C   UNL     1      -4.057  -1.785  23.824  0.00  0.00    +0.002 A 
ATOM     24  C   UNL     1      -3.318  -2.240  24.916  0.00  0.00    +0.000 A 
ENDBRANCH   1  19
ENDBRANCH   8   1
ENDBRANCH  16   8
ENDBRANCH  11  16
TORSDOF 7
ENDMDL
MODEL 2
REMARK VINA RESULT:      -4.3      2.199      5.131
REMARK  Name = 75536676
REMARK  7 active torsions:
REMARK  status: ('A' for Active; 'I' for Inactive)
REMARK    1  A    between atoms: S_1  and  N_8
REMARK    2  A    between atoms: S_1  and  C_19
REMARK    3  A    between atoms: O_3  and  C_10
REMARK    4  A    between atoms: N_7  and  C_9
REMARK    5  A    between atoms: N_7  and  C_12
REMARK    6  A    between atoms: N_8  and  C_16
REMARK    7  A    between atoms: C_11  and  C_16
REMARK                            x       y       z     vdW  Elec       q    Type
REMARK                         _______ _______ _______ _____ _____    ______ ____
ROOT
ATOM      2  O   UNL     1      -2.601   3.125  23.448  0.00  0.00    -0.371 OA
ATOM      9  C   UNL     1      -4.583   2.099  24.260  0.00  0.00    +0.111 C 
ATOM     10  C   UNL     1      -4.007   2.989  25.345  0.00  0.00    +0.164 C 
ATOM     11  C   UNL     1      -3.127   3.921  24.524  0.00  0.00    +0.164 C 
ATOM     13  C   UNL     1      -3.381   1.921  23.347  0.00  0.00    +0.181 C 
ENDROOT
BRANCH  10   3
ATOM      3  O   UNL     1      -5.003   3.696  26.058  0.00  0.00    -0.388 OA
ATOM     26  H   UNL     1      -5.478   4.269  25.432  0.00  0.00    +0.210 HD
ENDBRANCH  10   3
BRANCH   9   7
ATOM      7  N   UNL     1      -5.108   0.837  24.758  0.00  0.00    -0.306 NA
ATOM     25  H   UNL     1      -5.934   0.567  24.226  0.00  0.00    +0.123 HD
BRANCH   7  12
ATOM      4  O   UNL     1      -3.330  -2.935  25.239  0.00  0.00    -0.380 OA
ATOM     12  C   UNL     1      -4.102  -0.218  24.679  0.00  0.00    +0.058 C 
ATOM     14  C   UNL     1      -4.611  -1.405  23.854  0.00  0.00    +0.047 C 
ATOM     15  C   UNL     1      -3.711  -0.688  26.084  0.00  0.00    +0.047 C 
ATOM     17  C   UNL     1      -3.604  -2.548  23.893  0.00  0.00    +0.161 C 
ATOM     18  C   UNL     1      -2.754  -1.871  26.000  0.00  0.00    +0.161 C 
ENDBRANCH   7  12
ENDBRANCH   9   7
BRANCH  11  16
ATOM     16  C   UNL     1      -1.985   4.526  25.320  0.00  0.00    +0.140 C 
BRANCH  16   8
ATOM      8  N   UNL     1      -0.726   3.830  24.988  0.00  0.00    -0.187 NA
ATOM     27  H   UNL     1      -0.428   3.890  24.007  0.00  0.00    +0.148 HD
BRANCH   8   1
ATOM      1  S   UNL     1      -0.230   2.484  25.903  0.00  0.00    +0.058 S 
ATOM      5  O   UNL     1      -1.378   1.918  26.586  0.00  0.00    -0.153 OA
ATOM      6  O   UNL     1       0.962   2.835  26.650  0.00  0.00    -0.153 OA
BRANCH   1  19
ATOM     19  C   UNL     1       0.267   1.351  24.640  0.00  0.00    +0.105 A 
ATOM     20  C   UNL     1      -0.495   0.210  24.388  0.00  0.00    +0.028 A 
ATOM     21  C   UNL     1       1.423   1.597  23.899  0.00  0.00    +0.028 A 
ATOM     22  C   UNL     1      -0.101  -0.686  23.394  0.00  0.00    +0.002 A 
ATOM     23  C   UNL     1       1.817   0.701  22.905  0.00  0.00    +0.002 A 
ATOM     24  C   UNL     1       1.055  -0.440  22.653  0.00  0.00    +0.000 A 
ENDBRANCH   1  19
ENDBRANCH   8   1
ENDBRANCH  16   8
ENDBRANCH  11  16
TORSDOF 7
ENDMDL
MODEL 3
REMARK VINA RESULT:      -4.1      1.688      2.206
REMARK  Name = 75536676
REMARK  7 active torsions:
REMARK  status: ('A' for Active; 'I' for Inactive)
REMARK    1  A    between atoms: S_1  and  N_8
REMARK    2  A    between atoms: S_1  and  C_19
REMARK    3  A    between atoms: O_3  and  C_10
REMARK    4  A    between atoms: N_7  and  C_9
REMARK    5  A    between atoms: N_7  and  C_12
REMARK    6  A    between atoms: N_8  and  C_16
REMARK    7  A    between atoms: C_11  and  C_16
REMARK                            x       y       z     vdW  Elec       q    Type
REMARK                         _______ _______ _______ _____ _____    ______ ____
ROOT
ATOM      2  O   UNL     1      -0.944   1.047  25.709  0.00  0.00    -0.371 OA
ATOM      9  C   UNL     1       0.664   1.054  23.961  0.00  0.00    +0.111 C 
ATOM     10  C   UNL     1      -0.184   2.309  23.859  0.00  0.00    +0.164 C 
ATOM     11  C   UNL     1      -0.741   2.402  25.272  0.00  0.00    +0.164 C 
ATOM     13  C   UNL     1      -0.211   0.171  24.835  0.00  0.00    +0.181 C 
ENDROOT
BRANCH  10   3
ATOM      3  O   UNL     1       0.573   3.452  23.514  0.00  0.00    -0.388 OA
ATOM     26  H   UNL     1      -0.030   4.212  23.456  0.00  0.00    +0.210 HD
ENDBRANCH  10   3
BRANCH   9   7
ATOM      7  N   UNL     1       0.969   0.450  22.674  0.00  0.00    -0.306 NA
ATOM     25  H   UNL     1       0.762   1.106  21.921  0.00  0.00    +0.123 HD
BRANCH   7  12
ATOM      4  O   UNL     1       4.927  -0.230  23.899  0.00  0.00    -0.380 OA
ATOM     12  C   UNL     1       2.371   0.043  22.603  0.00  0.00    +0.058 C 
ATOM     14  C   UNL     1       2.670  -1.078  23.604  0.00  0.00    +0.047 C 
ATOM     15  C   UNL     1       3.288   1.241  22.870  0.00  0.00    +0.047 C 
ATOM     17  C   UNL     1       4.160  -1.398  23.611  0.00  0.00    +0.161 C 
ATOM     18  C   UNL     1       4.744   0.792  22.918  0.00  0.00    +0.161 C 
ENDBRANCH   7  12
ENDBRANCH   9   7
BRANCH  11  16
ATOM     16  C   UNL     1      -2.050   3.168  25.352  0.00  0.00    +0.140 C 
BRANCH  16   8
ATOM      8  N   UNL     1      -3.144   2.243  25.707  0.00  0.00    -0.187 NA
ATOM     27  H   UNL     1      -2.988   1.667  26.543  0.00  0.00    +0.148 HD
BRANCH   8   1
ATOM      1  S   UNL     1      -4.183   1.650  24.498  0.00  0.00    +0.058 S 
ATOM      5  O   UNL     1      -3.689   2.058  23.197  0.00  0.00    -0.153 OA
ATOM      6  O   UNL     1      -5.555   1.929  24.876  0.00  0.00    -0.153 OA
BRANCH   1  19
ATOM     19  C   UNL     1      -3.952  -0.097  24.646  0.00  0.00    +0.105 A 
ATOM     20  C   UNL     1      -3.494  -0.640  25.846  0.00  0.00    +0.028 A 
ATOM     21  C   UNL     1      -4.224  -0.930  23.561  0.00  0.00    +0.028 A 
ATOM     22  C   UNL     1      -3.307  -2.018  25.962  0.00  0.00    +0.002 A 
ATOM     23  C   UNL     1      -4.038  -2.308  23.677  0.00  0.00    +0.002 A 
ATOM     24  C   UNL     1      -3.580  -2.851  24.877  0.00  0.00    +0.000 A 
ENDBRANCH   1  19
ENDBRANCH   8   1
ENDBRANCH  16   8
ENDBRANCH  11  16
TORSDOF 7
ENDMDL
MODEL 4
REMARK VINA RESULT:      -4.0      2.284      5.139
REMARK  Name = 75536676
REMARK  7 active torsions:
REMARK  status: ('A' for Active; 'I' for Inactive)
REMARK    1  A    between atoms: S_1  and  N_8
REMARK    2  A    between atoms: S_1  and  C_19
REMARK    3  A    between atoms: O_3  and  C_10
REMARK    4  A    between atoms: N_7  and  C_9
REMARK    5  A    between atoms: N_7  and  C_12
REMARK    6  A    between atoms: N_8  and  C_16
REMARK    7  A    between atoms: C_11  and  C_16
REMARK                            x       y       z     vdW  Elec       q    Type
REMARK                         _______ _______ _______ _____ _____    ______ ____
ROOT
ATOM      2  O   UNL     1       0.305   3.542  23.514  0.00  0.00    -0.371 OA
ATOM      9  C   UNL     1      -0.984   4.246  25.380  0.00  0.00    +0.111 C 
ATOM     10  C   UNL     1      -0.645   2.776  25.539  0.00  0.00    +0.164 C 
ATOM     11  C   UNL     1       0.556   2.650  24.613  0.00  0.00    +0.164 C 
ATOM     13  C   UNL     1      -0.743   4.451  23.893  0.00  0.00    +0.181 C 
ENDROOT
BRANCH  10   3
ATOM      3  O   UNL     1      -0.322   2.432  26.872  0.00  0.00    -0.388 OA
ATOM     26  H   UNL     1      -1.150   2.347  27.375  0.00  0.00    +0.210 HD
ENDBRANCH  10   3
BRANCH   9   7
ATOM      7  N   UNL     1      -2.341   4.579  25.783  0.00  0.00    -0.306 NA
ATOM     25  H   UNL     1      -2.656   5.418  25.297  0.00  0.00    +0.123 HD
BRANCH   7  12
ATOM      4  O   UNL     1      -5.863   2.584  24.669  0.00  0.00    -0.380 OA
ATOM     12  C   UNL     1      -3.257   3.475  25.510  0.00  0.00    +0.058 C 
ATOM     14  C   UNL     1      -3.689   3.469  24.040  0.00  0.00    +0.047 C 
ATOM     15  C   UNL     1      -4.488   3.567  26.416  0.00  0.00    +0.047 C 
ATOM     17  C   UNL     1      -4.745   2.396  23.802  0.00  0.00    +0.161 C 
ATOM     18  C   UNL     1      -5.500   2.488  26.047  0.00  0.00    +0.161 C 
ENDBRANCH   7  12
ENDBRANCH   9   7
BRANCH  11  16
ATOM     16  C   UNL     1       0.767   1.240  24.091  0.00  0.00    +0.140 C 
BRANCH  16   8
ATOM      8  N   UNL     1      -0.513   0.505  24.119  0.00  0.00    -0.187 NA
ATOM     27  H   UNL     1      -1.346   1.048  23.858  0.00  0.00    +0.148 HD
BRANCH   8   1
ATOM      1  S   UNL     1      -0.709  -0.826  25.160  0.00  0.00    +0.058 S 
ATOM      5  O   UNL     1      -0.860  -0.352  26.523  0.00  0.00    -0.153 OA
ATOM      6  O   UNL     1       0.295  -1.825  24.843  0.00  0.00    -0.153 OA
BRANCH   1  19
ATOM     19  C   UNL     1      -2.266  -1.474  24.632  0.00  0.00    +0.105 A 
ATOM     20  C   UNL     1      -3.325  -0.609  24.359  0.00  0.00    +0.028 A 
ATOM     21  C   UNL     1      -2.436  -2.852  24.491  0.00  0.00    +0.028 A 
ATOM     22  C   UNL     1      -4.556  -1.120  23.946  0.00  0.00    +0.002 A 
ATOM     23  C   UNL     1      -3.666  -3.364  24.078  0.00  0.00    +0.002 A 
ATOM     24  C   UNL     1      -4.725  -2.498  23.805  0.00  0.00    +0.000 A 
ENDBRANCH   1  19
ENDBRANCH   8   1
ENDBRANCH  16   8
ENDBRANCH  11  16
TORSDOF 7
ENDMDL
MODEL 5
REMARK VINA RESULT:      -3.7      1.453      2.134
REMARK  Name = 75536676
REMARK  7 active torsions:
REMARK  status: ('A' for Active; 'I' for Inactive)
REMARK    1  A    between atoms: S_1  and  N_8
REMARK    2  A    between atoms: S_1  and  C_19
REMARK    3  A    between atoms: O_3  and  C_10
REMARK    4  A    between atoms: N_7  and  C_9
REMARK    5  A    between atoms: N_7  and  C_12
REMARK    6  A    between atoms: N_8  and  C_16
REMARK    7  A    between atoms: C_11  and  C_16
REMARK                            x       y       z     vdW  Elec       q    Type
REMARK                         _______ _______ _______ _____ _____    ______ ____
ROOT
ATOM      2  O   UNL     1      -2.031   2.965  26.822  0.00  0.00    -0.371 OA
ATOM      9  C   UNL     1      -0.454   3.701  25.206  0.00  0.00    +0.111 C 
ATOM     10  C   UNL     1      -1.826   4.230  24.834  0.00  0.00    +0.164 C 
ATOM     11  C   UNL     1      -2.548   4.138  26.171  0.00  0.00    +0.164 C 
ATOM     13  C   UNL     1      -0.814   2.575  26.161  0.00  0.00    +0.181 C 
ENDROOT
BRANCH  10   3
ATOM      3  O   UNL     1      -1.786   5.557  24.347  0.00  0.00    -0.388 OA
ATOM     26  H   UNL     1      -2.460   6.076  24.817  0.00  0.00    +0.210 HD
ENDBRANCH  10   3
BRANCH   9   7
ATOM      7  N   UNL     1       0.325   3.247  24.065  0.00  0.00    -0.306 NA
ATOM     25  H   UNL     1       1.206   3.756  24.017  0.00  0.00    +0.123 HD
BRANCH   7  12
ATOM      4  O   UNL     1       0.752  -0.740  22.821  0.00  0.00    -0.380 OA
ATOM     12  C   UNL     1       0.586   1.812  24.143  0.00  0.00    +0.058 C 
ATOM     14  C   UNL     1       1.775   1.419  23.261  0.00  0.00    +0.047 C 
ATOM     15  C   UNL     1      -0.657   1.020  23.729  0.00  0.00    +0.047 C 
ATOM     17  C   UNL     1       1.950  -0.095  23.251  0.00  0.00    +0.161 C 
ATOM     18  C   UNL     1      -0.347  -0.472  23.693  0.00  0.00    +0.161 C 
ENDBRANCH   7  12
ENDBRANCH   9   7
BRANCH  11  16
ATOM     16  C   UNL     1      -4.056   4.026  26.034  0.00  0.00    +0.140 C 
BRANCH  16   8
ATOM      8  N   UNL     1      -4.449   2.604  26.039  0.00  0.00    -0.187 NA
ATOM     27  H   UNL     1      -4.002   2.019  26.756  0.00  0.00    +0.148 HD
BRANCH   8   1
ATOM      1  S   UNL     1      -4.975   1.860  24.601  0.00  0.00    +0.058 S 
ATOM      5  O   UNL     1      -4.316   2.484  23.469  0.00  0.00    -0.153 OA
ATOM      6  O   UNL     1      -6.420   1.745  24.631  0.00  0.00    -0.153 OA
BRANCH   1  19
ATOM     19  C   UNL     1      -4.323   0.227  24.778  0.00  0.00    +0.105 A 
ATOM     20  C   UNL     1      -4.549  -0.726  23.785  0.00  0.00    +0.028 A 
ATOM     21  C   UNL     1      -3.585  -0.109  25.914  0.00  0.00    +0.028 A 
ATOM     22  C   UNL     1      -4.037  -2.016  23.927  0.00  0.00    +0.002 A 
ATOM     23  C   UNL     1      -3.074  -1.400  26.056  0.00  0.00    +0.002 A 
ATOM     24  C   UNL     1      -3.300  -2.352  25.062  0.00  0.00    +0.000 A 
ENDBRANCH   1  19
ENDBRANCH   8   1
ENDBRANCH  16   8
ENDBRANCH  11  16
TORSDOF 7
ENDMDL
MODEL 6
REMARK VINA RESULT:      -3.2      2.335      4.308
REMARK  Name = 75536676
REMARK  7 active torsions:
REMARK  status: ('A' for Active; 'I' for Inactive)
REMARK    1  A    between atoms: S_1  and  N_8
REMARK    2  A    between atoms: S_1  and  C_19
REMARK    3  A    between atoms: O_3  and  C_10
REMARK    4  A    between atoms: N_7  and  C_9
REMARK    5  A    between atoms: N_7  and  C_12
REMARK    6  A    between atoms: N_8  and  C_16
REMARK    7  A    between atoms: C_11  and  C_16
REMARK                            x       y       z     vdW  Elec       q    Type
REMARK                         _______ _______ _______ _____ _____    ______ ____
ROOT
ATOM      2  O   UNL     1      -5.855   2.580  26.010  0.00  0.00    -0.371 OA
ATOM      9  C   UNL     1      -4.285   4.035  24.981  0.00  0.00    +0.111 C 
ATOM     10  C   UNL     1      -4.226   2.681  24.299  0.00  0.00    +0.164 C 
ATOM     11  C   UNL     1      -5.579   2.099  24.684  0.00  0.00    +0.164 C 
ATOM     13  C   UNL     1      -4.975   3.683  26.289  0.00  0.00    +0.181 C 
ENDROOT
BRANCH  10   3
ATOM      3  O   UNL     1      -4.075   2.783  22.897  0.00  0.00    -0.388 OA
ATOM     26  H   UNL     1      -4.849   3.249  22.539  0.00  0.00    +0.210 HD
ENDBRANCH  10   3
BRANCH   9   7
ATOM      7  N   UNL     1      -2.981   4.648  25.177  0.00  0.00    -0.306 NA
ATOM     25  H   UNL     1      -2.944   5.111  26.083  0.00  0.00    +0.123 HD
BRANCH   7  12
ATOM      4  O   UNL     1       0.761   2.839  25.769  0.00  0.00    -0.380 OA
ATOM     12  C   UNL     1      -1.914   3.654  25.085  0.00  0.00    +0.058 C 
ATOM     14  C   UNL     1      -1.550   3.108  26.469  0.00  0.00    +0.047 C 
ATOM     15  C   UNL     1      -0.676   4.262  24.420  0.00  0.00    +0.047 C 
ATOM     17  C   UNL     1      -0.349   2.174  26.371  0.00  0.00    +0.161 C 
ATOM     18  C   UNL     1       0.477   3.264  24.435  0.00  0.00    +0.161 C 
ENDBRANCH   7  12
ENDBRANCH   9   7
BRANCH  11  16
ATOM     16  C   UNL     1      -5.605   0.582  24.673  0.00  0.00    +0.140 C 
BRANCH  16   8
ATOM      8  N   UNL     1      -4.422   0.060  25.385  0.00  0.00    -0.187 NA
ATOM     27  H   UNL     1      -3.821   0.766  25.827  0.00  0.00    +0.148 HD
BRANCH   8   1
ATOM      1  S   UNL     1      -3.722  -1.415  24.907  0.00  0.00    +0.058 S 
ATOM      5  O   UNL     1      -4.425  -1.927  23.746  0.00  0.00    -0.153 OA
ATOM      6  O   UNL     1      -3.542  -2.252  26.078  0.00  0.00    -0.153 OA
BRANCH   1  19
ATOM     19  C   UNL     1      -2.113  -0.901  24.387  0.00  0.00    +0.105 A 
ATOM     20  C   UNL     1      -1.968   0.228  23.581  0.00  0.00    +0.028 A 
ATOM     21  C   UNL     1      -0.989  -1.628  24.780  0.00  0.00    +0.028 A 
ATOM     22  C   UNL     1      -0.698   0.632  23.167  0.00  0.00    +0.002 A 
ATOM     23  C   UNL     1       0.281  -1.224  24.366  0.00  0.00    +0.002 A 
ATOM     24  C   UNL     1       0.426  -0.095  23.561  0.00  0.00    +0.000 A 
ENDBRANCH   1  19
ENDBRANCH   8   1
ENDBRANCH  16   8
ENDBRANCH  11  16
TORSDOF 7
ENDMDL
MODEL 7
REMARK VINA RESULT:      -2.7      2.388      4.098
REMARK  Name = 75536676
REMARK  7 active torsions:
REMARK  status: ('A' for Active; 'I' for Inactive)
REMARK    1  A    between atoms: S_1  and  N_8
REMARK    2  A    between atoms: S_1  and  C_19
REMARK    3  A    between atoms: O_3  and  C_10
REMARK    4  A    between atoms: N_7  and  C_9
REMARK    5  A    between atoms: N_7  and  C_12
REMARK    6  A    between atoms: N_8  and  C_16
REMARK    7  A    between atoms: C_11  and  C_16
REMARK                            x       y       z     vdW  Elec       q    Type
REMARK                         _______ _______ _______ _____ _____    ______ ____
ROOT
ATOM      2  O   UNL     1      -0.559   3.218  25.757  0.00  0.00    -0.371 OA
ATOM      9  C   UNL     1      -0.262   0.884  26.073  0.00  0.00    +0.111 C 
ATOM     10  C   UNL     1      -0.335   1.176  24.586  0.00  0.00    +0.164 C 
ATOM     11  C   UNL     1       0.010   2.658  24.561  0.00  0.00    +0.164 C 
ATOM     13  C   UNL     1      -0.878   2.144  26.658  0.00  0.00    +0.181 C 
ENDROOT
BRANCH  10   3
ATOM      3  O   UNL     1       0.583   0.408  23.833  0.00  0.00    -0.388 OA
ATOM     26  H   UNL     1       1.005   0.991  23.179  0.00  0.00    +0.210 HD
ENDBRANCH  10   3
BRANCH   9   7
ATOM      7  N   UNL     1      -0.968  -0.325  26.466  0.00  0.00    -0.306 NA
ATOM     25  H   UNL     1      -1.582  -0.132  27.256  0.00  0.00    +0.123 HD
BRANCH   7  12
ATOM      4  O   UNL     1      -3.555  -2.869  24.352  0.00  0.00    -0.380 OA
ATOM     12  C   UNL     1      -1.749  -0.863  25.354  0.00  0.00    +0.058 C 
ATOM     14  C   UNL     1      -3.246  -0.857  25.679  0.00  0.00    +0.047 C 
ATOM     15  C   UNL     1      -1.292  -2.286  25.020  0.00  0.00    +0.047 C 
ATOM     17  C   UNL     1      -4.032  -1.541  24.567  0.00  0.00    +0.161 C 
ATOM     18  C   UNL     1      -2.186  -2.891  23.944  0.00  0.00    +0.161 C 
ENDBRANCH   7  12
ENDBRANCH   9   7
BRANCH  11  16
ATOM     16  C   UNL     1      -0.537   3.382  23.344  0.00  0.00    +0.140 C 
BRANCH  16   8
ATOM      8  N   UNL     1      -1.958   3.717  23.564  0.00  0.00    -0.187 NA
ATOM     27  H   UNL     1      -2.166   4.235  24.427  0.00  0.00    +0.148 HD
BRANCH   8   1
ATOM      1  S   UNL     1      -3.178   2.739  22.894  0.00  0.00    +0.058 S 
ATOM      5  O   UNL     1      -2.642   1.417  22.630  0.00  0.00    -0.153 OA
ATOM      6  O   UNL     1      -3.849   3.477  21.841  0.00  0.00    -0.153 OA
BRANCH   1  19
ATOM     19  C   UNL     1      -4.317   2.607  24.239  0.00  0.00    +0.105 A 
ATOM     20  C   UNL     1      -5.310   1.628  24.219  0.00  0.00    +0.028 A 
ATOM     21  C   UNL     1      -4.223   3.485  25.320  0.00  0.00    +0.028 A 
ATOM     22  C   UNL     1      -6.212   1.527  25.279  0.00  0.00    +0.002 A 
ATOM     23  C   UNL     1      -5.125   3.383  26.380  0.00  0.00    +0.002 A 
ATOM     24  C   UNL     1      -6.118   2.404  26.359  0.00  0.00    +0.000 A 
ENDBRANCH   1  19
ENDBRANCH   8   1
ENDBRANCH  16   8
ENDBRANCH  11  16
TORSDOF 7
ENDMDL
MODEL 8
REMARK VINA RESULT:      -2.6      1.998      4.050
REMARK  Name = 75536676
REMARK  7 active torsions:
REMARK  status: ('A' for Active; 'I' for Inactive)
REMARK    1  A    between atoms: S_1  and  N_8
REMARK    2  A    between atoms: S_1  and  C_19
REMARK    3  A    between atoms: O_3  and  C_10
REMARK    4  A    between atoms: N_7  and  C_9
REMARK    5  A    between atoms: N_7  and  C_12
REMARK    6  A    between atoms: N_8  and  C_16
REMARK    7  A    between atoms: C_11  and  C_16
REMARK                            x       y       z     vdW  Elec       q    Type
REMARK                         _______ _______ _______ _____ _____    ______ ____
ROOT
ATOM      2  O   UNL     1      -1.584  -1.819  24.469  0.00  0.00    -0.371 OA
ATOM      9  C   UNL     1       0.352  -0.539  23.968  0.00  0.00    +0.111 C 
ATOM     10  C   UNL     1      -0.598   0.305  24.796  0.00  0.00    +0.164 C 
ATOM     11  C   UNL     1      -1.458  -0.770  25.444  0.00  0.00    +0.164 C 
ATOM     13  C   UNL     1      -0.579  -1.628  23.459  0.00  0.00    +0.181 C 
ENDROOT
BRANCH  10   3
ATOM      3  O   UNL     1       0.071   1.097  25.758  0.00  0.00    -0.388 OA
ATOM     26  H   UNL     1       0.538   0.503  26.370  0.00  0.00    +0.210 HD
ENDBRANCH  10   3
BRANCH   9   7
ATOM      7  N   UNL     1       1.002   0.196  22.895  0.00  0.00    -0.306 NA
ATOM     25  H   UNL     1       0.935   1.199  23.066  0.00  0.00    +0.123 HD
BRANCH   7  12
ATOM      4  O   UNL     1       5.046  -0.301  23.908  0.00  0.00    -0.380 OA
ATOM     12  C   UNL     1       2.405  -0.190  22.767  0.00  0.00    +0.058 C 
ATOM     14  C   UNL     1       2.795  -1.213  23.838  0.00  0.00    +0.047 C 
ATOM     15  C   UNL     1       3.309   1.042  22.866  0.00  0.00    +0.047 C 
ATOM     17  C   UNL     1       4.290  -1.504  23.774  0.00  0.00    +0.161 C 
ATOM     18  C   UNL     1       4.775   0.626  22.855  0.00  0.00    +0.161 C 
ENDBRANCH   7  12
ENDBRANCH   9   7
BRANCH  11  16
ATOM     16  C   UNL     1      -2.835  -0.277  25.849  0.00  0.00    +0.140 C 
BRANCH  16   8
ATOM      8  N   UNL     1      -3.543   0.243  24.663  0.00  0.00    -0.187 NA
ATOM     27  H   UNL     1      -3.159  -0.041  23.753  0.00  0.00    +0.148 HD
BRANCH   8   1
ATOM      1  S   UNL     1      -4.399   1.711  24.757  0.00  0.00    +0.058 S 
ATOM      5  O   UNL     1      -5.127   1.763  26.010  0.00  0.00    -0.153 OA
ATOM      6  O   UNL     1      -5.090   1.935  23.502  0.00  0.00    -0.153 OA
BRANCH   1  19
ATOM     19  C   UNL     1      -3.085   2.891  24.841  0.00  0.00    +0.105 A 
ATOM     20  C   UNL     1      -2.077   2.882  23.876  0.00  0.00    +0.028 A 
ATOM     21  C   UNL     1      -3.055   3.828  25.874  0.00  0.00    +0.028 A 
ATOM     22  C   UNL     1      -1.038   3.811  23.945  0.00  0.00    +0.002 A 
ATOM     23  C   UNL     1      -2.017   4.757  25.942  0.00  0.00    +0.002 A 
ATOM     24  C   UNL     1      -1.009   4.748  24.978  0.00  0.00    +0.000 A 
ENDBRANCH   1  19
ENDBRANCH   8   1
ENDBRANCH  16   8
ENDBRANCH  11  16
TORSDOF 7
ENDMDL
MODEL 9
REMARK VINA RESULT:      -2.6      2.453      3.398
REMARK  Name = 75536676
REMARK  7 active torsions:
REMARK  status: ('A' for Active; 'I' for Inactive)
REMARK    1  A    between atoms: S_1  and  N_8
REMARK    2  A    between atoms: S_1  and  C_19
REMARK    3  A    between atoms: O_3  and  C_10
REMARK    4  A    between atoms: N_7  and  C_9
REMARK    5  A    between atoms: N_7  and  C_12
REMARK    6  A    between atoms: N_8  and  C_16
REMARK    7  A    between atoms: C_11  and  C_16
REMARK                            x       y       z     vdW  Elec       q    Type
REMARK                         _______ _______ _______ _____ _____    ______ ____
ROOT
ATOM      2  O   UNL     1      -1.337  -0.279  24.996  0.00  0.00    -0.371 OA
ATOM      9  C   UNL     1       0.723  -0.097  23.828  0.00  0.00    +0.111 C 
ATOM     10  C   UNL     1       0.278   1.286  24.265  0.00  0.00    +0.164 C 
ATOM     11  C   UNL     1      -0.689   0.943  25.389  0.00  0.00    +0.164 C 
ATOM     13  C   UNL     1      -0.578  -0.877  23.932  0.00  0.00    +0.181 C 
ENDROOT
BRANCH  10   3
ATOM      3  O   UNL     1       1.352   2.087  24.718  0.00  0.00    -0.388 OA
ATOM     26  H   UNL     1       1.562   2.736  24.026  0.00  0.00    +0.210 HD
ENDBRANCH  10   3
BRANCH   9   7
ATOM      7  N   UNL     1       1.298  -0.131  22.493  0.00  0.00    -0.306 NA
ATOM     25  H   UNL     1       1.110   0.745  22.008  0.00  0.00    +0.123 HD
BRANCH   7  12
ATOM      4  O   UNL     1       5.214  -0.185  24.005  0.00  0.00    -0.380 OA
ATOM     12  C   UNL     1       2.738  -0.367  22.547  0.00  0.00    +0.058 C 
ATOM     14  C   UNL     1       3.097  -1.332  23.682  0.00  0.00    +0.047 C 
ATOM     15  C   UNL     1       3.489   0.955  22.727  0.00  0.00    +0.047 C 
ATOM     17  C   UNL     1       4.610  -1.463  23.808  0.00  0.00    +0.161 C 
ATOM     18  C   UNL     1       4.981   0.697  22.906  0.00  0.00    +0.161 C 
ENDBRANCH   7  12
ENDBRANCH   9   7
BRANCH  11  16
ATOM     16  C   UNL     1      -1.729   2.020  25.637  0.00  0.00    +0.140 C 
BRANCH  16   8
ATOM      8  N   UNL     1      -1.722   2.983  24.519  0.00  0.00    -0.187 NA
ATOM     27  H   UNL     1      -1.094   3.789  24.629  0.00  0.00    +0.148 HD
BRANCH   8   1
ATOM      1  S   UNL     1      -3.100   3.158  23.536  0.00  0.00    +0.058 S 
ATOM      5  O   UNL     1      -2.962   2.319  22.362  0.00  0.00    -0.153 OA
ATOM      6  O   UNL     1      -3.400   4.570  23.392  0.00  0.00    -0.153 OA
BRANCH   1  19
ATOM     19  C   UNL     1      -4.364   2.463  24.558  0.00  0.00    +0.105 A 
ATOM     20  C   UNL     1      -5.083   3.280  25.430  0.00  0.00    +0.028 A 
ATOM     21  C   UNL     1      -4.639   1.097  24.494  0.00  0.00    +0.028 A 
ATOM     22  C   UNL     1      -6.078   2.731  26.239  0.00  0.00    +0.002 A 
ATOM     23  C   UNL     1      -5.634   0.548  25.303  0.00  0.00    +0.002 A 
ATOM     24  C   UNL     1      -6.354   1.365  26.175  0.00  0.00    +0.000 A 
ENDBRANCH   1  19
ENDBRANCH   8   1
ENDBRANCH  16   8
ENDBRANCH  11  16
TORSDOF 7
ENDMDL
MODEL 10
REMARK VINA RESULT:      -1.6      2.294      3.860
REMARK  Name = 75536676
REMARK  7 active torsions:
REMARK  status: ('A' for Active; 'I' for Inactive)
REMARK    1  A    between atoms: S_1  and  N_8
REMARK    2  A    between atoms: S_1  and  C_19
REMARK    3  A    between atoms: O_3  and  C_10
REMARK    4  A    between atoms: N_7  and  C_9
REMARK    5  A    between atoms: N_7  and  C_12
REMARK    6  A    between atoms: N_8  and  C_16
REMARK    7  A    between atoms: C_11  and  C_16
REMARK                            x       y       z     vdW  Elec       q    Type
REMARK                         _______ _______ _______ _____ _____    ______ ____
ROOT
ATOM      2  O   UNL     1      -0.115   3.012  24.636  0.00  0.00    -0.371 OA
ATOM      9  C   UNL     1       0.070   0.750  23.935  0.00  0.00    +0.111 C 
ATOM     10  C   UNL     1      -1.221   1.333  23.391  0.00  0.00    +0.164 C 
ATOM     11  C   UNL     1      -0.924   2.824  23.462  0.00  0.00    +0.164 C 
ATOM     13  C   UNL     1       0.397   1.733  25.047  0.00  0.00    +0.181 C 
ENDROOT
BRANCH  10   3
ATOM      3  O   UNL     1      -1.496   0.911  22.070  0.00  0.00    -0.388 OA
ATOM     26  H   UNL     1      -0.828   0.253  21.814  0.00  0.00    +0.210 HD
ENDBRANCH  10   3
BRANCH   9   7
ATOM      7  N   UNL     1      -0.062  -0.618  24.410  0.00  0.00    -0.306 NA
ATOM     25  H   UNL     1       0.467  -0.742  25.273  0.00  0.00    +0.123 HD
BRANCH   7  12
ATOM      4  O   UNL     1      -3.408  -2.776  25.742  0.00  0.00    -0.380 OA
ATOM     12  C   UNL     1      -1.463  -0.965  24.634  0.00  0.00    +0.058 C 
ATOM     14  C   UNL     1      -1.788  -1.007  26.130  0.00  0.00    +0.047 C 
ATOM     15  C   UNL     1      -1.787  -2.316  23.990  0.00  0.00    +0.047 C 
ATOM     17  C   UNL     1      -3.214  -1.499  26.349  0.00  0.00    +0.161 C 
ATOM     18  C   UNL     1      -3.213  -2.736  24.327  0.00  0.00    +0.161 C 
ENDBRANCH   7  12
ENDBRANCH   9   7
BRANCH  11  16
ATOM     16  C   UNL     1      -2.172   3.682  23.555  0.00  0.00    +0.140 C 
BRANCH  16   8
ATOM      8  N   UNL     1      -2.074   4.573  24.728  0.00  0.00    -0.187 NA
ATOM     27  H   UNL     1      -1.245   5.178  24.761  0.00  0.00    +0.148 HD
BRANCH   8   1
ATOM      1  S   UNL     1      -2.813   4.132  26.196  0.00  0.00    +0.058 S 
ATOM      5  O   UNL     1      -3.431   5.301  26.793  0.00  0.00    -0.153 OA
ATOM      6  O   UNL     1      -1.887   3.324  26.966  0.00  0.00    -0.153 OA
BRANCH   1  19
ATOM     19  C   UNL     1      -4.102   3.056  25.644  0.00  0.00    +0.105 A 
ATOM     20  C   UNL     1      -5.431   3.478  25.689  0.00  0.00    +0.028 A 
ATOM     21  C   UNL     1      -3.790   1.782  25.167  0.00  0.00    +0.028 A 
ATOM     22  C   UNL     1      -6.448   2.627  25.257  0.00  0.00    +0.002 A 
ATOM     23  C   UNL     1      -4.807   0.931  24.735  0.00  0.00    +0.002 A 
ATOM     24  C   UNL     1      -6.136   1.354  24.780  0.00  0.00    +0.000 A 
ENDBRANCH   1  19
ENDBRANCH   8   1
ENDBRANCH  16   8
ENDBRANCH  11  16
TORSDOF 7
ENDMDL
