MODEL 1
REMARK VINA RESULT:       7.2      0.000      0.000
REMARK  Name = 40777669
REMARK  9 active torsions:
REMARK  status: ('A' for Active; 'I' for Inactive)
REMARK    1  A    between atoms: N_5  and  C_11
REMARK    2  A    between atoms: N_6  and  C_20
REMARK    3  A    between atoms: N_8  and  C_21
REMARK    4  A    between atoms: C_9  and  C_12
REMARK    5  A    between atoms: C_15  and  C_17
REMARK    6  A    between atoms: C_16  and  C_18
REMARK    7  A    between atoms: C_21  and  C_27
REMARK    8  A    between atoms: C_21  and  C_28
REMARK    9  A    between atoms: C_26  and  C_29
REMARK                            x       y       z     vdW  Elec       q    Type
REMARK                         _______ _______ _______ _____ _____    ______ ____
ROOT
ATOM      6  N   UNL     1       0.530  -0.859  23.996  0.00  0.00    -0.236 N 
ATOM      7  N   UNL     1       0.007  -2.061  23.698  0.00  0.00    -0.171 NA
ATOM     12  C   UNL     1      -1.579  -0.635  24.518  0.00  0.00    +0.003 A 
ATOM     15  C   UNL     1      -0.378   0.030  24.491  0.00  0.00    +0.046 A 
ATOM     16  C   UNL     1      -1.282  -1.917  24.019  0.00  0.00    +0.064 A 
ATOM     17  C   UNL     1      -0.028   1.409  24.886  0.00  0.00    +0.066 C 
ATOM     18  C   UNL     1      -2.206  -3.051  23.831  0.00  0.00    +0.068 C 
ENDROOT
BRANCH   6  20
ATOM     20  C   UNL     1       1.890  -0.626  23.787  0.00  0.00    +0.066 A 
ATOM     22  C   UNL     1       2.823  -1.608  24.116  0.00  0.00    +0.028 A 
ATOM     23  C   UNL     1       2.316   0.590  23.254  0.00  0.00    +0.028 A 
ATOM     24  C   UNL     1       4.183  -1.375  23.912  0.00  0.00    +0.014 A 
ATOM     25  C   UNL     1       3.676   0.825  23.050  0.00  0.00    +0.014 A 
ATOM     26  C   UNL     1       4.610  -0.158  23.378  0.00  0.00    +0.055 A 
BRANCH  26  29
ATOM      1  F   UNL     1       6.873  -0.591  24.020  0.00  0.00    -0.166 F 
ATOM      2  F   UNL     1       6.397   1.408  23.307  0.00  0.00    -0.166 F 
ATOM      3  F   UNL     1       6.496  -0.256  21.910  0.00  0.00    -0.166 F 
ATOM     29  C   UNL     1       6.063   0.092  23.158  0.00  0.00    +0.417 C 
ENDBRANCH  26  29
ENDBRANCH   6  20
BRANCH  12   9
ATOM      9  C   UNL     1      -2.917  -0.107  24.982  0.00  0.00    +0.047 C 
ATOM     10  C   UNL     1      -3.705   0.613  23.871  0.00  0.00    +0.039 C 
ATOM     11  C   UNL     1      -5.191   0.320  24.141  0.00  0.00    +0.098 C 
ATOM     13  C   UNL     1      -3.887  -1.161  25.428  0.00  0.00    -0.021 C 
ATOM     14  C   UNL     1      -5.123  -0.921  24.975  0.00  0.00    -0.009 C 
BRANCH  11   5
ATOM      4  O   UNL     1      -4.168   2.996  24.584  0.00  0.00    -0.253 OA
ATOM      5  N   UNL     1      -5.842   1.409  24.858  0.00  0.00    -0.293 N 
ATOM      8  N   UNL     1      -6.106   3.523  25.746  0.00  0.00    -0.297 N 
ATOM     19  C   UNL     1      -5.271   2.674  25.023  0.00  0.00    +0.300 C 
ATOM     30  H   UNL     1      -6.742   1.231  25.294  0.00  0.00    +0.151 HD
ATOM     31  H   UNL     1      -6.965   3.141  26.130  0.00  0.00    +0.150 HD
BRANCH   8  21
ATOM     21  C   UNL     1      -5.754   4.888  26.058  0.00  0.00    +0.068 C 
ATOM     27  C   UNL     1      -6.328   5.835  25.012  0.00  0.00    +0.027 C 
ATOM     28  C   UNL     1      -4.242   5.038  26.168  0.00  0.00    +0.027 C 
ENDBRANCH   8  21
ENDBRANCH  11   5
ENDBRANCH  12   9
TORSDOF 5
ENDMDL
MODEL 2
REMARK VINA RESULT:       7.7      1.640      2.559
REMARK  Name = 40777669
REMARK  9 active torsions:
REMARK  status: ('A' for Active; 'I' for Inactive)
REMARK    1  A    between atoms: N_5  and  C_11
REMARK    2  A    between atoms: N_6  and  C_20
REMARK    3  A    between atoms: N_8  and  C_21
REMARK    4  A    between atoms: C_9  and  C_12
REMARK    5  A    between atoms: C_15  and  C_17
REMARK    6  A    between atoms: C_16  and  C_18
REMARK    7  A    between atoms: C_21  and  C_27
REMARK    8  A    between atoms: C_21  and  C_28
REMARK    9  A    between atoms: C_26  and  C_29
REMARK                            x       y       z     vdW  Elec       q    Type
REMARK                         _______ _______ _______ _____ _____    ______ ____
ROOT
ATOM      6  N   UNL     1       1.386  -0.147  23.705  0.00  0.00    -0.236 N 
ATOM      7  N   UNL     1       0.656  -1.276  23.738  0.00  0.00    -0.171 NA
ATOM     12  C   UNL     1      -0.659   0.582  23.935  0.00  0.00    +0.003 A 
ATOM     15  C   UNL     1       0.646   0.992  23.820  0.00  0.00    +0.046 A 
ATOM     16  C   UNL     1      -0.592  -0.823  23.878  0.00  0.00    +0.064 A 
ATOM     17  C   UNL     1       1.236   2.346  23.810  0.00  0.00    +0.066 C 
ATOM     18  C   UNL     1      -1.707  -1.785  23.957  0.00  0.00    +0.068 C 
ENDROOT
BRANCH   6  20
ATOM     20  C   UNL     1       2.773  -0.225  23.564  0.00  0.00    +0.066 A 
ATOM     22  C   UNL     1       3.452  -1.370  23.978  0.00  0.00    +0.028 A 
ATOM     23  C   UNL     1       3.479   0.845  23.014  0.00  0.00    +0.028 A 
ATOM     24  C   UNL     1       4.838  -1.447  23.841  0.00  0.00    +0.014 A 
ATOM     25  C   UNL     1       4.865   0.770  22.877  0.00  0.00    +0.014 A 
ATOM     26  C   UNL     1       5.545  -0.377  23.290  0.00  0.00    +0.055 A 
BRANCH  26  29
ATOM      1  F   UNL     1       7.429  -1.194  22.066  0.00  0.00    -0.166 F 
ATOM      2  F   UNL     1       7.631  -1.029  24.225  0.00  0.00    -0.166 F 
ATOM      3  F   UNL     1       7.628   0.759  22.988  0.00  0.00    -0.166 F 
ATOM     29  C   UNL     1       7.027  -0.457  23.143  0.00  0.00    +0.417 C 
ENDBRANCH  26  29
ENDBRANCH   6  20
BRANCH  12   9
ATOM      9  C   UNL     1      -1.889   1.447  24.089  0.00  0.00    +0.047 C 
ATOM     10  C   UNL     1      -1.695   2.610  25.079  0.00  0.00    +0.039 C 
ATOM     11  C   UNL     1      -2.533   3.780  24.536  0.00  0.00    +0.098 C 
ATOM     13  C   UNL     1      -2.315   2.160  22.840  0.00  0.00    -0.021 C 
ATOM     14  C   UNL     1      -2.671   3.425  23.088  0.00  0.00    -0.009 C 
BRANCH  11   5
ATOM      4  O   UNL     1      -4.520   1.687  24.805  0.00  0.00    -0.253 OA
ATOM      5  N   UNL     1      -3.833   3.872  25.190  0.00  0.00    -0.293 N 
ATOM      8  N   UNL     1      -5.894   3.167  25.948  0.00  0.00    -0.297 N 
ATOM     19  C   UNL     1      -4.731   2.805  25.272  0.00  0.00    +0.300 C 
ATOM     30  H   UNL     1      -4.118   4.768  25.573  0.00  0.00    +0.151 HD
ATOM     31  H   UNL     1      -6.006   4.135  26.231  0.00  0.00    +0.150 HD
BRANCH   8  21
ATOM     21  C   UNL     1      -6.987   2.249  26.172  0.00  0.00    +0.068 C 
ATOM     27  C   UNL     1      -6.718   1.397  27.405  0.00  0.00    +0.027 C 
ATOM     28  C   UNL     1      -7.217   1.382  24.941  0.00  0.00    +0.027 C 
ENDBRANCH   8  21
ENDBRANCH  11   5
ENDBRANCH  12   9
TORSDOF 5
ENDMDL
MODEL 3
REMARK VINA RESULT:       9.3      5.456     10.021
REMARK  Name = 40777669
REMARK  9 active torsions:
REMARK  status: ('A' for Active; 'I' for Inactive)
REMARK    1  A    between atoms: N_5  and  C_11
REMARK    2  A    between atoms: N_6  and  C_20
REMARK    3  A    between atoms: N_8  and  C_21
REMARK    4  A    between atoms: C_9  and  C_12
REMARK    5  A    between atoms: C_15  and  C_17
REMARK    6  A    between atoms: C_16  and  C_18
REMARK    7  A    between atoms: C_21  and  C_27
REMARK    8  A    between atoms: C_21  and  C_28
REMARK    9  A    between atoms: C_26  and  C_29
REMARK                            x       y       z     vdW  Elec       q    Type
REMARK                         _______ _______ _______ _____ _____    ______ ____
ROOT
ATOM      6  N   UNL     1      -0.997   0.843  23.651  0.00  0.00    -0.236 N 
ATOM      7  N   UNL     1      -0.933  -0.013  22.616  0.00  0.00    -0.171 NA
ATOM     12  C   UNL     1       1.148   0.634  23.303  0.00  0.00    +0.003 A 
ATOM     15  C   UNL     1       0.221   1.261  24.098  0.00  0.00    +0.046 A 
ATOM     16  C   UNL     1       0.381  -0.137  22.409  0.00  0.00    +0.064 A 
ATOM     17  C   UNL     1       0.392   2.202  25.223  0.00  0.00    +0.066 C 
ATOM     18  C   UNL     1       0.864  -1.015  21.327  0.00  0.00    +0.068 C 
ENDROOT
BRANCH   6  20
ATOM     20  C   UNL     1      -2.241   1.219  24.160  0.00  0.00    +0.066 A 
ATOM     22  C   UNL     1      -3.016   0.296  24.861  0.00  0.00    +0.028 A 
ATOM     23  C   UNL     1      -2.711   2.518  23.964  0.00  0.00    +0.028 A 
ATOM     24  C   UNL     1      -4.261   0.670  25.367  0.00  0.00    +0.014 A 
ATOM     25  C   UNL     1      -3.956   2.893  24.469  0.00  0.00    +0.014 A 
ATOM     26  C   UNL     1      -4.731   1.969  25.171  0.00  0.00    +0.055 A 
BRANCH  26  29
ATOM      1  F   UNL     1      -6.304   1.903  26.972  0.00  0.00    -0.166 F 
ATOM      2  F   UNL     1      -7.097   1.918  24.947  0.00  0.00    -0.166 F 
ATOM      3  F   UNL     1      -6.232   3.724  25.794  0.00  0.00    -0.166 F 
ATOM     29  C   UNL     1      -6.061   2.371  25.712  0.00  0.00    +0.417 C 
ENDBRANCH  26  29
ENDBRANCH   6  20
BRANCH  12   9
ATOM      9  C   UNL     1       2.654   0.749  23.372  0.00  0.00    +0.047 C 
ATOM     10  C   UNL     1       3.356  -0.599  23.618  0.00  0.00    +0.039 C 
ATOM     11  C   UNL     1       4.688  -0.535  22.850  0.00  0.00    +0.098 C 
ATOM     13  C   UNL     1       3.306   1.221  22.106  0.00  0.00    -0.021 C 
ATOM     14  C   UNL     1       4.415   0.526  21.830  0.00  0.00    -0.009 C 
BRANCH  11   5
ATOM      4  O   UNL     1       7.516  -0.636  22.220  0.00  0.00    -0.253 OA
ATOM      5  N   UNL     1       5.802  -0.168  23.716  0.00  0.00    -0.293 N 
ATOM      8  N   UNL     1       7.998   0.162  24.345  0.00  0.00    -0.297 N 
ATOM     19  C   UNL     1       7.141  -0.250  23.325  0.00  0.00    +0.300 C 
ATOM     30  H   UNL     1       5.599   0.127  24.667  0.00  0.00    +0.151 HD
ATOM     31  H   UNL     1       7.596   0.392  25.248  0.00  0.00    +0.150 HD
BRANCH   8  21
ATOM     21  C   UNL     1       9.434   0.175  24.202  0.00  0.00    +0.068 C 
ATOM     27  C   UNL     1       9.984   1.562  24.506  0.00  0.00    +0.027 C 
ATOM     28  C   UNL     1       9.837  -0.285  22.807  0.00  0.00    +0.027 C 
ENDBRANCH   8  21
ENDBRANCH  11   5
ENDBRANCH  12   9
TORSDOF 5
ENDMDL
MODEL 4
REMARK VINA RESULT:      10.2      1.543      2.576
REMARK  Name = 40777669
REMARK  9 active torsions:
REMARK  status: ('A' for Active; 'I' for Inactive)
REMARK    1  A    between atoms: N_5  and  C_11
REMARK    2  A    between atoms: N_6  and  C_20
REMARK    3  A    between atoms: N_8  and  C_21
REMARK    4  A    between atoms: C_9  and  C_12
REMARK    5  A    between atoms: C_15  and  C_17
REMARK    6  A    between atoms: C_16  and  C_18
REMARK    7  A    between atoms: C_21  and  C_27
REMARK    8  A    between atoms: C_21  and  C_28
REMARK    9  A    between atoms: C_26  and  C_29
REMARK                            x       y       z     vdW  Elec       q    Type
REMARK                         _______ _______ _______ _____ _____    ______ ____
ROOT
ATOM      6  N   UNL     1       1.556   0.871  23.822  0.00  0.00    -0.236 N 
ATOM      7  N   UNL     1       1.280   2.186  23.830  0.00  0.00    -0.171 NA
ATOM     12  C   UNL     1      -0.583   0.933  24.256  0.00  0.00    +0.003 A 
ATOM     15  C   UNL     1       0.475   0.078  24.071  0.00  0.00    +0.046 A 
ATOM     16  C   UNL     1      -0.029   2.217  24.096  0.00  0.00    +0.064 A 
ATOM     17  C   UNL     1       0.544  -1.397  24.110  0.00  0.00    +0.066 C 
ATOM     18  C   UNL     1      -0.719   3.517  24.188  0.00  0.00    +0.068 C 
ENDROOT
BRANCH   6  20
ATOM     20  C   UNL     1       2.860   0.440  23.571  0.00  0.00    +0.066 A 
ATOM     22  C   UNL     1       3.247  -0.853  23.923  0.00  0.00    +0.028 A 
ATOM     23  C   UNL     1       3.777   1.305  22.974  0.00  0.00    +0.028 A 
ATOM     24  C   UNL     1       4.551  -1.282  23.676  0.00  0.00    +0.014 A 
ATOM     25  C   UNL     1       5.082   0.876  22.727  0.00  0.00    +0.014 A 
ATOM     26  C   UNL     1       5.469  -0.418  23.078  0.00  0.00    +0.055 A 
BRANCH  26  29
ATOM      1  F   UNL     1       7.245  -0.738  21.508  0.00  0.00    -0.166 F 
ATOM      2  F   UNL     1       7.047  -2.196  23.110  0.00  0.00    -0.166 F 
ATOM      3  F   UNL     1       7.807  -0.203  23.534  0.00  0.00    -0.166 F 
ATOM     29  C   UNL     1       6.863  -0.876  22.812  0.00  0.00    +0.417 C 
ENDBRANCH  26  29
ENDBRANCH   6  20
BRANCH  12   9
ATOM      9  C   UNL     1      -2.019   0.573  24.561  0.00  0.00    +0.047 C 
ATOM     10  C   UNL     1      -2.910   0.510  23.306  0.00  0.00    +0.039 C 
ATOM     11  C   UNL     1      -3.939  -0.603  23.567  0.00  0.00    +0.098 C 
ATOM     13  C   UNL     1      -2.211  -0.790  25.157  0.00  0.00    -0.021 C 
ATOM     14  C   UNL     1      -3.260  -1.423  24.620  0.00  0.00    -0.009 C 
BRANCH  11   5
ATOM      4  O   UNL     1      -4.352   1.664  25.327  0.00  0.00    -0.253 OA
ATOM      5  N   UNL     1      -5.211  -0.071  24.044  0.00  0.00    -0.293 N 
ATOM      8  N   UNL     1      -6.643   1.326  25.192  0.00  0.00    -0.297 N 
ATOM     19  C   UNL     1      -5.314   1.032  24.895  0.00  0.00    +0.300 C 
ATOM     30  H   UNL     1      -6.066  -0.549  23.774  0.00  0.00    +0.151 HD
ATOM     31  H   UNL     1      -7.364   0.701  24.847  0.00  0.00    +0.150 HD
BRANCH   8  21
ATOM     21  C   UNL     1      -7.029   2.420  26.052  0.00  0.00    +0.068 C 
ATOM     27  C   UNL     1      -6.212   3.663  25.726  0.00  0.00    +0.027 C 
ATOM     28  C   UNL     1      -6.878   2.028  27.516  0.00  0.00    +0.027 C 
ENDBRANCH   8  21
ENDBRANCH  11   5
ENDBRANCH  12   9
TORSDOF 5
ENDMDL
