MODEL 1
REMARK VINA RESULT:       4.0      0.000      0.000
REMARK  Name = 11885924
REMARK  3 active torsions:
REMARK  status: ('A' for Active; 'I' for Inactive)
REMARK    1  A    between atoms: N_8  and  C_22
REMARK    2  A    between atoms: N_9  and  C_20
REMARK    3  A    between atoms: C_23  and  C_26
REMARK                            x       y       z     vdW  Elec       q    Type
REMARK                         _______ _______ _______ _____ _____    ______ ____
ROOT
ATOM      3  O   UNL     1       0.211   2.350  26.259  0.00  0.00    -0.266 OA
ATOM      4  O   UNL     1      -4.495   0.102  26.562  0.00  0.00    -0.252 OA
ATOM      6  N   UNL     1      -4.696   2.029  25.298  0.00  0.00    -0.284 N 
ATOM      7  N   UNL     1      -1.701   3.120  25.158  0.00  0.00    -0.310 N 
ATOM      8  N   UNL     1      -4.564  -0.082  24.251  0.00  0.00    -0.269 N 
ATOM     10  C   UNL     1      -3.732   4.055  26.402  0.00  0.00    +0.027 C 
ATOM     11  C   UNL     1      -3.767   3.907  23.949  0.00  0.00    +0.054 C 
ATOM     12  C   UNL     1      -3.972   4.854  25.127  0.00  0.00    +0.018 C 
ATOM     13  C   UNL     1      -4.721   2.880  26.491  0.00  0.00    +0.114 C 
ATOM     14  C   UNL     1      -2.273   3.584  26.428  0.00  0.00    +0.130 C 
ATOM     15  C   UNL     1      -4.793   2.755  24.018  0.00  0.00    +0.119 C 
ATOM     16  C   UNL     1      -2.360   3.335  23.944  0.00  0.00    +0.027 A 
ATOM     17  C   UNL     1      -1.766   3.008  22.785  0.00  0.00    +0.024 A 
ATOM     18  C   UNL     1      -0.415   2.544  25.216  0.00  0.00    +0.273 A 
ATOM     19  C   UNL     1      -4.571   0.631  25.450  0.00  0.00    +0.306 C 
ATOM     20  C   UNL     1       0.202   2.169  23.905  0.00  0.00    +0.099 A 
ATOM     21  C   UNL     1      -0.460   2.412  22.768  0.00  0.00    +0.030 A 
ATOM     33  H   UNL     1      -5.050   0.314  23.454  0.00  0.00    +0.156 HD
ENDROOT
BRANCH   8  22
ATOM      2  F   UNL     1      -2.304  -5.055  23.330  0.00  0.00    -0.205 F 
ATOM     22  C   UNL     1      -3.986  -1.353  24.016  0.00  0.00    +0.035 A 
ATOM     24  C   UNL     1      -4.769  -2.386  23.510  0.00  0.00    +0.026 A 
ATOM     25  C   UNL     1      -2.638  -1.563  24.293  0.00  0.00    +0.026 A 
ATOM     27  C   UNL     1      -4.201  -3.639  23.278  0.00  0.00    +0.040 A 
ATOM     28  C   UNL     1      -2.069  -2.815  24.061  0.00  0.00    +0.040 A 
ATOM     29  C   UNL     1      -2.850  -3.854  23.554  0.00  0.00    +0.124 A 
ENDBRANCH   8  22
BRANCH  20   9
ATOM      5  O   UNL     1       0.976  -0.194  22.504  0.00  0.00    -0.269 OA
ATOM      9  N   UNL     1       1.438   1.594  23.919  0.00  0.00    -0.277 N 
ATOM     23  C   UNL     1       1.754   0.440  23.214  0.00  0.00    +0.255 C 
ATOM     34  H   UNL     1       2.094   1.925  24.622  0.00  0.00    +0.155 HD
BRANCH  23  26
ATOM      1  S   UNL     1       4.371   1.043  22.849  0.00  0.00    -0.092 S 
ATOM     26  C   UNL     1       3.160  -0.023  23.333  0.00  0.00    +0.074 A 
ATOM     30  C   UNL     1       3.579  -1.212  23.792  0.00  0.00    +0.021 A 
ATOM     31  C   UNL     1       5.002  -1.278  23.752  0.00  0.00    +0.008 A 
ATOM     32  C   UNL     1       5.560  -0.118  23.260  0.00  0.00    +0.046 A 
ENDBRANCH  23  26
ENDBRANCH  20   9
TORSDOF 3
ENDMDL
