MODEL 1
REMARK VINA RESULT:       2.7      0.000      0.000
REMARK  Name = 7155387
REMARK  6 active torsions:
REMARK  status: ('A' for Active; 'I' for Inactive)
REMARK    1  A    between atoms: O_5  and  C_23
REMARK    2  A    between atoms: O_6  and  C_31
REMARK    3  A    between atoms: O_6  and  C_33
REMARK    4  A    between atoms: N_7  and  C_16
REMARK    5  A    between atoms: C_16  and  C_21
REMARK    6  A    between atoms: C_17  and  C_22
REMARK                            x       y       z     vdW  Elec       q    Type
REMARK                         _______ _______ _______ _____ _____    ______ ____
ROOT
ATOM      4  O   UNL     1      -3.602   4.751  27.325  0.00  0.00    -0.268 OA
ATOM      7  N   UNL     1      -4.454   0.834  24.360  0.00  0.00    -0.297 NA
ATOM      8  N   UNL     1      -3.096   3.516  25.401  0.00  0.00    -0.311 N 
ATOM      9  C   UNL     1      -4.818   3.166  23.531  0.00  0.00    +0.024 C 
ATOM     10  C   UNL     1      -2.593   2.163  23.344  0.00  0.00    +0.051 C 
ATOM     11  C   UNL     1      -3.596   3.067  22.633  0.00  0.00    +0.017 C 
ATOM     12  C   UNL     1      -5.421   1.767  23.770  0.00  0.00    +0.090 C 
ATOM     13  C   UNL     1      -3.224   0.766  23.559  0.00  0.00    +0.094 C 
ATOM     14  C   UNL     1      -4.408   3.857  24.834  0.00  0.00    +0.130 C 
ATOM     15  C   UNL     1      -2.146   2.769  24.678  0.00  0.00    +0.034 A 
ATOM     17  C   UNL     1      -0.896   2.596  25.181  0.00  0.00    +0.002 A 
ATOM     18  C   UNL     1      -2.815   4.078  26.658  0.00  0.00    +0.252 A 
ATOM     19  C   UNL     1      -0.570   3.157  26.478  0.00  0.00    +0.015 A 
ATOM     20  C   UNL     1      -1.456   3.846  27.198  0.00  0.00    +0.071 A 
ENDROOT
BRANCH  17  22
ATOM     22  C   UNL     1       0.140   1.836  24.448  0.00  0.00    -0.016 A 
ATOM     25  C   UNL     1       1.214   2.510  23.874  0.00  0.00    +0.012 A 
ATOM     26  C   UNL     1       0.035   0.453  24.337  0.00  0.00    +0.012 A 
ATOM     29  C   UNL     1       2.191   1.794  23.183  0.00  0.00    +0.046 A 
ATOM     30  C   UNL     1       1.013  -0.263  23.646  0.00  0.00    +0.046 A 
ATOM     31  C   UNL     1       2.091   0.408  23.069  0.00  0.00    +0.130 A 
BRANCH  31   6
ATOM      6  O   UNL     1       3.045  -0.290  22.396  0.00  0.00    -0.406 OA
BRANCH   6  33
ATOM      1  F   UNL     1       4.476   0.644  23.870  0.00  0.00    -0.133 F 
ATOM      2  F   UNL     1       4.610  -1.511  23.532  0.00  0.00    -0.133 F 
ATOM      3  F   UNL     1       5.285  -0.091  21.978  0.00  0.00    -0.133 F 
ATOM     33  C   UNL     1       4.362  -0.326  22.935  0.00  0.00    +0.575 C 
ENDBRANCH   6  33
ENDBRANCH  31   6
ENDBRANCH  17  22
BRANCH   7  16
ATOM     16  C   UNL     1      -5.043  -0.493  24.530  0.00  0.00    +0.123 C 
BRANCH  16  21
ATOM     21  C   UNL     1      -4.005  -1.577  24.486  0.00  0.00    +0.008 A 
ATOM     23  C   UNL     1      -2.903  -1.534  25.332  0.00  0.00    +0.121 A 
ATOM     24  C   UNL     1      -4.164  -2.624  23.584  0.00  0.00    +0.008 A 
ATOM     27  C   UNL     1      -1.948  -2.549  25.276  0.00  0.00    +0.046 A 
ATOM     28  C   UNL     1      -3.209  -3.640  23.528  0.00  0.00    +0.001 A 
ATOM     32  C   UNL     1      -2.101  -3.601  24.375  0.00  0.00    +0.004 A 
BRANCH  23   5
ATOM      5  O   UNL     1      -2.739  -0.513  26.220  0.00  0.00    -0.506 OA
ATOM     34  H   UNL     1      -1.846  -0.565  26.602  0.00  0.00    +0.292 HD
ENDBRANCH  23   5
ENDBRANCH  16  21
ENDBRANCH   7  16
TORSDOF 6
ENDMDL
