MODEL 1
REMARK VINA RESULT:      -5.0      0.000      0.000
REMARK  Name = 11941993
REMARK  5 active torsions:
REMARK  status: ('A' for Active; 'I' for Inactive)
REMARK    1  A    between atoms: O_3  and  C_24
REMARK    2  A    between atoms: N_6  and  C_16
REMARK    3  A    between atoms: C_10  and  C_17
REMARK    4  A    between atoms: C_11  and  C_16
REMARK    5  A    between atoms: C_23  and  C_24
REMARK                            x       y       z     vdW  Elec       q    Type
REMARK                         _______ _______ _______ _____ _____    ______ ____
ROOT
ATOM      4  N   UNL     1      -0.394   1.804  25.287  0.00  0.00    -0.297 NA
ATOM      9  C   UNL     1      -2.509   3.095  24.493  0.00  0.00    +0.005 C 
ATOM     10  C   UNL     1      -2.882   1.957  25.461  0.00  0.00    +0.092 C 
ATOM     11  C   UNL     1      -0.415   1.879  23.802  0.00  0.00    +0.078 C 
ATOM     12  C   UNL     1      -1.734   2.506  23.298  0.00  0.00    +0.025 C 
ATOM     13  C   UNL     1      -1.544   4.025  25.251  0.00  0.00    +0.020 C 
ATOM     14  C   UNL     1      -1.622   1.135  25.786  0.00  0.00    +0.097 C 
ATOM     15  C   UNL     1      -0.377   3.191  25.814  0.00  0.00    +0.085 C 
ENDROOT
BRANCH  10  17
ATOM      1  O   UNL     1      -4.976   1.632  24.397  0.00  0.00    -0.275 OA
ATOM      2  O   UNL     1      -3.163  -2.970  24.391  0.00  0.00    -0.377 OA
ATOM      5  N   UNL     1      -3.791  -0.283  24.963  0.00  0.00    -0.297 N 
ATOM     17  C   UNL     1      -3.981   1.095  24.892  0.00  0.00    +0.220 C 
ATOM     18  C   UNL     1      -4.806  -1.191  24.430  0.00  0.00    +0.136 C 
ATOM     19  C   UNL     1      -2.686  -0.955  25.655  0.00  0.00    +0.136 C 
ATOM     20  C   UNL     1      -4.152  -2.294  23.610  0.00  0.00    +0.179 C 
ATOM     21  C   UNL     1      -2.122  -2.073  24.788  0.00  0.00    +0.179 C 
ENDBRANCH  10  17
BRANCH  11  16
ATOM     16  C   UNL     1      -0.142   0.523  23.146  0.00  0.00    +0.164 C 
BRANCH  16   6
ATOM      6  N   UNL     1       1.257   0.374  22.777  0.00  0.00    -0.250 N 
ATOM      7  N   UNL     1       1.587  -0.212  21.623  0.00  0.00    -0.065 NA
ATOM      8  N   UNL     1       2.914  -0.212  21.558  0.00  0.00    -0.132 NA
ATOM     22  C   UNL     1       2.338   0.768  23.488  0.00  0.00    +0.136 A 
ATOM     23  C   UNL     1       3.390   0.384  22.693  0.00  0.00    +0.108 A 
BRANCH  23  24
ATOM     24  C   UNL     1       4.831   0.541  22.926  0.00  0.00    +0.214 C 
BRANCH  24   3
ATOM      3  O   UNL     1       5.170   0.543  24.319  0.00  0.00    -0.389 OA
ATOM     25  H   UNL     1       5.708   1.337  24.485  0.00  0.00    +0.210 HD
ENDBRANCH  24   3
ENDBRANCH  23  24
ENDBRANCH  16   6
ENDBRANCH  11  16
TORSDOF 5
ENDMDL
MODEL 2
REMARK VINA RESULT:      -4.4      1.727      3.880
REMARK  Name = 11941993
REMARK  5 active torsions:
REMARK  status: ('A' for Active; 'I' for Inactive)
REMARK    1  A    between atoms: O_3  and  C_24
REMARK    2  A    between atoms: N_6  and  C_16
REMARK    3  A    between atoms: C_10  and  C_17
REMARK    4  A    between atoms: C_11  and  C_16
REMARK    5  A    between atoms: C_23  and  C_24
REMARK                            x       y       z     vdW  Elec       q    Type
REMARK                         _______ _______ _______ _____ _____    ______ ____
ROOT
ATOM      4  N   UNL     1      -2.261  -0.900  23.699  0.00  0.00    -0.297 NA
ATOM      9  C   UNL     1      -3.787  -1.105  25.798  0.00  0.00    +0.005 C 
ATOM     10  C   UNL     1      -4.418  -0.182  24.738  0.00  0.00    +0.092 C 
ATOM     11  C   UNL     1      -1.479  -0.597  24.928  0.00  0.00    +0.078 C 
ATOM     12  C   UNL     1      -2.394  -0.562  26.171  0.00  0.00    +0.025 C 
ATOM     13  C   UNL     1      -3.580  -2.475  25.127  0.00  0.00    +0.020 C 
ATOM     14  C   UNL     1      -3.419   0.023  23.586  0.00  0.00    +0.097 C 
ATOM     15  C   UNL     1      -2.785  -2.284  23.822  0.00  0.00    +0.085 C 
ENDROOT
BRANCH  10  17
ATOM      1  O   UNL     1      -5.758   1.139  26.180  0.00  0.00    -0.275 OA
ATOM      2  O   UNL     1      -2.408   4.449  24.670  0.00  0.00    -0.377 OA
ATOM      5  N   UNL     1      -4.175   2.267  24.910  0.00  0.00    -0.297 N 
ATOM     17  C   UNL     1      -4.850   1.129  25.344  0.00  0.00    +0.220 C 
ATOM     18  C   UNL     1      -4.528   3.580  25.452  0.00  0.00    +0.136 C 
ATOM     19  C   UNL     1      -3.183   2.309  23.831  0.00  0.00    +0.136 C 
ATOM     20  C   UNL     1      -3.273   4.363  25.806  0.00  0.00    +0.179 C 
ATOM     21  C   UNL     1      -1.984   3.150  24.248  0.00  0.00    +0.179 C 
ENDBRANCH  10  17
BRANCH  11  16
ATOM     16  C   UNL     1      -0.654   0.684  24.791  0.00  0.00    +0.164 C 
BRANCH  16   6
ATOM      6  N   UNL     1       0.500   0.494  23.928  0.00  0.00    -0.250 N 
ATOM      7  N   UNL     1       0.475  -0.437  22.969  0.00  0.00    -0.065 NA
ATOM      8  N   UNL     1       1.651  -0.387  22.353  0.00  0.00    -0.132 NA
ATOM     22  C   UNL     1       1.672   1.168  23.965  0.00  0.00    +0.136 A 
ATOM     23  C   UNL     1       2.396   0.591  22.951  0.00  0.00    +0.108 A 
BRANCH  23  24
ATOM     24  C   UNL     1       3.758   0.898  22.496  0.00  0.00    +0.214 C 
BRANCH  24   3
ATOM      3  O   UNL     1       4.728   0.805  23.549  0.00  0.00    -0.389 OA
ATOM     25  H   UNL     1       5.067  -0.107  23.548  0.00  0.00    +0.210 HD
ENDBRANCH  24   3
ENDBRANCH  23  24
ENDBRANCH  16   6
ENDBRANCH  11  16
TORSDOF 5
ENDMDL
MODEL 3
REMARK VINA RESULT:      -4.3      1.900      2.471
REMARK  Name = 11941993
REMARK  5 active torsions:
REMARK  status: ('A' for Active; 'I' for Inactive)
REMARK    1  A    between atoms: O_3  and  C_24
REMARK    2  A    between atoms: N_6  and  C_16
REMARK    3  A    between atoms: C_10  and  C_17
REMARK    4  A    between atoms: C_11  and  C_16
REMARK    5  A    between atoms: C_23  and  C_24
REMARK                            x       y       z     vdW  Elec       q    Type
REMARK                         _______ _______ _______ _____ _____    ______ ____
ROOT
ATOM      4  N   UNL     1      -2.463   3.344  26.289  0.00  0.00    -0.297 NA
ATOM      9  C   UNL     1      -2.809   3.566  23.719  0.00  0.00    +0.005 C 
ATOM     10  C   UNL     1      -3.603   2.375  24.288  0.00  0.00    +0.092 C 
ATOM     11  C   UNL     1      -1.145   3.412  25.602  0.00  0.00    +0.078 C 
ATOM     12  C   UNL     1      -1.319   3.390  24.068  0.00  0.00    +0.025 C 
ATOM     13  C   UNL     1      -3.307   4.823  24.456  0.00  0.00    +0.020 C 
ATOM     14  C   UNL     1      -3.252   2.196  25.775  0.00  0.00    +0.097 C 
ATOM     15  C   UNL     1      -3.205   4.591  25.975  0.00  0.00    +0.085 C 
ENDROOT
BRANCH  10  17
ATOM      1  O   UNL     1      -2.858   1.205  22.364  0.00  0.00    -0.275 OA
ATOM      2  O   UNL     1      -3.582  -2.517  25.538  0.00  0.00    -0.377 OA
ATOM      5  N   UNL     1      -3.667  -0.086  24.115  0.00  0.00    -0.297 N 
ATOM     17  C   UNL     1      -3.341   1.118  23.496  0.00  0.00    +0.220 C 
ATOM     18  C   UNL     1      -3.440  -1.353  23.420  0.00  0.00    +0.136 C 
ATOM     19  C   UNL     1      -4.356  -0.222  25.403  0.00  0.00    +0.136 C 
ATOM     20  C   UNL     1      -2.793  -2.364  24.356  0.00  0.00    +0.179 C 
ATOM     21  C   UNL     1      -3.676  -1.284  26.257  0.00  0.00    +0.179 C 
ENDBRANCH  10  17
BRANCH  11  16
ATOM     16  C   UNL     1      -0.183   2.323  26.082  0.00  0.00    +0.164 C 
BRANCH  16   6
ATOM      6  N   UNL     1       0.103   1.355  25.035  0.00  0.00    -0.250 N 
ATOM      7  N   UNL     1      -0.504   0.165  25.038  0.00  0.00    -0.065 NA
ATOM      8  N   UNL     1      -0.050  -0.500  23.981  0.00  0.00    -0.132 NA
ATOM     22  C   UNL     1       0.956   1.501  23.995  0.00  0.00    +0.136 A 
ATOM     23  C   UNL     1       0.845   0.304  23.332  0.00  0.00    +0.108 A 
BRANCH  23  24
ATOM     24  C   UNL     1       1.529  -0.144  22.112  0.00  0.00    +0.214 C 
BRANCH  24   3
ATOM      3  O   UNL     1       2.864   0.370  22.005  0.00  0.00    -0.389 OA
ATOM     25  H   UNL     1       2.864   1.023  21.284  0.00  0.00    +0.210 HD
ENDBRANCH  24   3
ENDBRANCH  23  24
ENDBRANCH  16   6
ENDBRANCH  11  16
TORSDOF 5
ENDMDL
MODEL 4
REMARK VINA RESULT:      -3.3      2.860      4.756
REMARK  Name = 11941993
REMARK  5 active torsions:
REMARK  status: ('A' for Active; 'I' for Inactive)
REMARK    1  A    between atoms: O_3  and  C_24
REMARK    2  A    between atoms: N_6  and  C_16
REMARK    3  A    between atoms: C_10  and  C_17
REMARK    4  A    between atoms: C_11  and  C_16
REMARK    5  A    between atoms: C_23  and  C_24
REMARK                            x       y       z     vdW  Elec       q    Type
REMARK                         _______ _______ _______ _____ _____    ______ ____
ROOT
ATOM      4  N   UNL     1      -2.028  -2.096  23.928  0.00  0.00    -0.297 NA
ATOM      9  C   UNL     1      -3.546  -0.694  25.511  0.00  0.00    +0.005 C 
ATOM     10  C   UNL     1      -3.693  -0.236  24.048  0.00  0.00    +0.092 C 
ATOM     11  C   UNL     1      -1.223  -1.551  25.054  0.00  0.00    +0.078 C 
ATOM     12  C   UNL     1      -2.064  -0.592  25.923  0.00  0.00    +0.025 C 
ATOM     13  C   UNL     1      -3.930  -2.184  25.550  0.00  0.00    +0.020 C 
ATOM     14  C   UNL     1      -2.674  -0.991  23.176  0.00  0.00    +0.097 C 
ATOM     15  C   UNL     1      -3.098  -2.949  24.504  0.00  0.00    +0.085 C 
ENDROOT
BRANCH  10  17
ATOM      1  O   UNL     1      -2.816   1.721  23.036  0.00  0.00    -0.275 OA
ATOM      2  O   UNL     1      -6.151   3.647  26.140  0.00  0.00    -0.377 OA
ATOM      5  N   UNL     1      -4.234   2.034  24.848  0.00  0.00    -0.297 N 
ATOM     17  C   UNL     1      -3.536   1.259  23.926  0.00  0.00    +0.220 C 
ATOM     18  C   UNL     1      -4.142   3.494  24.797  0.00  0.00    +0.136 C 
ATOM     19  C   UNL     1      -4.994   1.519  25.992  0.00  0.00    +0.136 C 
ATOM     20  C   UNL     1      -5.521   4.119  24.946  0.00  0.00    +0.179 C 
ATOM     21  C   UNL     1      -6.337   2.229  26.096  0.00  0.00    +0.179 C 
ENDBRANCH  10  17
BRANCH  11  16
ATOM     16  C   UNL     1       0.076  -0.897  24.577  0.00  0.00    +0.164 C 
BRANCH  16   6
ATOM      6  N   UNL     1      -0.002   0.554  24.623  0.00  0.00    -0.250 N 
ATOM      7  N   UNL     1       0.443   1.283  23.595  0.00  0.00    -0.065 NA
ATOM      8  N   UNL     1       0.250   2.558  23.916  0.00  0.00    -0.132 NA
ATOM     22  C   UNL     1      -0.491   1.317  25.627  0.00  0.00    +0.136 A 
ATOM     23  C   UNL     1      -0.321   2.596  25.157  0.00  0.00    +0.108 A 
BRANCH  23  24
ATOM     24  C   UNL     1      -0.662   3.871  25.801  0.00  0.00    +0.214 C 
BRANCH  24   3
ATOM      3  O   UNL     1      -0.767   4.954  24.867  0.00  0.00    -0.389 OA
ATOM     25  H   UNL     1      -1.136   4.590  24.043  0.00  0.00    +0.210 HD
ENDBRANCH  24   3
ENDBRANCH  23  24
ENDBRANCH  16   6
ENDBRANCH  11  16
TORSDOF 5
ENDMDL
MODEL 5
REMARK VINA RESULT:      -3.3      2.281      3.449
REMARK  Name = 11941993
REMARK  5 active torsions:
REMARK  status: ('A' for Active; 'I' for Inactive)
REMARK    1  A    between atoms: O_3  and  C_24
REMARK    2  A    between atoms: N_6  and  C_16
REMARK    3  A    between atoms: C_10  and  C_17
REMARK    4  A    between atoms: C_11  and  C_16
REMARK    5  A    between atoms: C_23  and  C_24
REMARK                            x       y       z     vdW  Elec       q    Type
REMARK                         _______ _______ _______ _____ _____    ______ ____
ROOT
ATOM      4  N   UNL     1      -4.021   3.858  25.826  0.00  0.00    -0.297 NA
ATOM      9  C   UNL     1      -4.257   1.893  24.137  0.00  0.00    +0.005 C 
ATOM     10  C   UNL     1      -3.836   1.384  25.529  0.00  0.00    +0.092 C 
ATOM     11  C   UNL     1      -3.228   4.143  24.601  0.00  0.00    +0.078 C 
ATOM     12  C   UNL     1      -3.227   2.929  23.647  0.00  0.00    +0.025 C 
ATOM     13  C   UNL     1      -5.596   2.629  24.321  0.00  0.00    +0.020 C 
ATOM     14  C   UNL     1      -3.568   2.588  26.448  0.00  0.00    +0.097 C 
ATOM     15  C   UNL     1      -5.440   3.694  25.423  0.00  0.00    +0.085 C 
ENDROOT
BRANCH  10  17
ATOM      1  O   UNL     1      -1.617   0.749  26.071  0.00  0.00    -0.275 OA
ATOM      2  O   UNL     1      -3.200  -3.256  23.639  0.00  0.00    -0.377 OA
ATOM      5  N   UNL     1      -2.771  -0.649  24.621  0.00  0.00    -0.297 N 
ATOM     17  C   UNL     1      -2.638   0.473  25.436  0.00  0.00    +0.220 C 
ATOM     18  C   UNL     1      -1.658  -1.588  24.480  0.00  0.00    +0.136 C 
ATOM     19  C   UNL     1      -3.919  -0.941  23.756  0.00  0.00    +0.136 C 
ATOM     20  C   UNL     1      -2.156  -3.022  24.589  0.00  0.00    +0.179 C 
ATOM     21  C   UNL     1      -4.322  -2.404  23.890  0.00  0.00    +0.179 C 
ENDBRANCH  10  17
BRANCH  11  16
ATOM     16  C   UNL     1      -1.808   4.615  24.923  0.00  0.00    +0.164 C 
BRANCH  16   6
ATOM      6  N   UNL     1      -0.844   3.532  24.824  0.00  0.00    -0.250 N 
ATOM      7  N   UNL     1      -0.160   3.142  25.905  0.00  0.00    -0.065 NA
ATOM      8  N   UNL     1       0.638   2.153  25.517  0.00  0.00    -0.132 NA
ATOM     22  C   UNL     1      -0.518   2.823  23.720  0.00  0.00    +0.136 A 
ATOM     23  C   UNL     1       0.431   1.945  24.182  0.00  0.00    +0.108 A 
BRANCH  23  24
ATOM     24  C   UNL     1       1.169   0.910  23.447  0.00  0.00    +0.214 C 
BRANCH  24   3
ATOM      3  O   UNL     1       2.556   1.231  23.280  0.00  0.00    -0.389 OA
ATOM     25  H   UNL     1       3.067   0.585  23.799  0.00  0.00    +0.210 HD
ENDBRANCH  24   3
ENDBRANCH  23  24
ENDBRANCH  16   6
ENDBRANCH  11  16
TORSDOF 5
ENDMDL
MODEL 6
REMARK VINA RESULT:      -3.1      2.955      5.540
REMARK  Name = 11941993
REMARK  5 active torsions:
REMARK  status: ('A' for Active; 'I' for Inactive)
REMARK    1  A    between atoms: O_3  and  C_24
REMARK    2  A    between atoms: N_6  and  C_16
REMARK    3  A    between atoms: C_10  and  C_17
REMARK    4  A    between atoms: C_11  and  C_16
REMARK    5  A    between atoms: C_23  and  C_24
REMARK                            x       y       z     vdW  Elec       q    Type
REMARK                         _______ _______ _______ _____ _____    ______ ____
ROOT
ATOM      4  N   UNL     1      -0.306   3.480  23.779  0.00  0.00    -0.297 NA
ATOM      9  C   UNL     1      -0.699   1.227  25.021  0.00  0.00    +0.005 C 
ATOM     10  C   UNL     1      -1.324   1.203  23.613  0.00  0.00    +0.092 C 
ATOM     11  C   UNL     1      -0.904   3.735  25.116  0.00  0.00    +0.078 C 
ATOM     12  C   UNL     1      -1.288   2.411  25.812  0.00  0.00    +0.025 C 
ATOM     13  C   UNL     1       0.804   1.502  24.836  0.00  0.00    +0.020 C 
ATOM     14  C   UNL     1      -1.193   2.599  22.978  0.00  0.00    +0.097 C 
ATOM     15  C   UNL     1       0.983   2.773  23.983  0.00  0.00    +0.085 C 
ENDROOT
BRANCH  10  17
ATOM      1  O   UNL     1      -3.642   1.462  23.188  0.00  0.00    -0.275 OA
ATOM      2  O   UNL     1      -3.455  -3.242  24.705  0.00  0.00    -0.377 OA
ATOM      5  N   UNL     1      -2.993  -0.500  24.246  0.00  0.00    -0.297 N 
ATOM     17  C   UNL     1      -2.758   0.742  23.660  0.00  0.00    +0.220 C 
ATOM     18  C   UNL     1      -4.356  -1.025  24.328  0.00  0.00    +0.136 C 
ATOM     19  C   UNL     1      -1.989  -1.322  24.929  0.00  0.00    +0.136 C 
ATOM     20  C   UNL     1      -4.385  -2.490  23.919  0.00  0.00    +0.179 C 
ATOM     21  C   UNL     1      -2.118  -2.778  24.500  0.00  0.00    +0.179 C 
ENDBRANCH  10  17
BRANCH  11  16
ATOM     16  C   UNL     1      -2.084   4.707  25.050  0.00  0.00    +0.164 C 
BRANCH  16   6
ATOM      6  N   UNL     1      -3.324   4.082  25.479  0.00  0.00    -0.250 N 
ATOM      7  N   UNL     1      -3.677   4.106  26.768  0.00  0.00    -0.065 NA
ATOM      8  N   UNL     1      -4.836   3.462  26.861  0.00  0.00    -0.132 NA
ATOM     22  C   UNL     1      -4.225   3.433  24.706  0.00  0.00    +0.136 A 
ATOM     23  C   UNL     1      -5.185   3.044  25.607  0.00  0.00    +0.108 A 
BRANCH  23  24
ATOM     24  C   UNL     1      -6.427   2.296  25.370  0.00  0.00    +0.214 C 
BRANCH  24   3
ATOM      3  O   UNL     1      -6.858   1.558  26.522  0.00  0.00    -0.389 OA
ATOM     25  H   UNL     1      -7.237   0.721  26.203  0.00  0.00    +0.210 HD
ENDBRANCH  24   3
ENDBRANCH  23  24
ENDBRANCH  16   6
ENDBRANCH  11  16
TORSDOF 5
ENDMDL
MODEL 7
REMARK VINA RESULT:      -3.0      2.194      3.809
REMARK  Name = 11941993
REMARK  5 active torsions:
REMARK  status: ('A' for Active; 'I' for Inactive)
REMARK    1  A    between atoms: O_3  and  C_24
REMARK    2  A    between atoms: N_6  and  C_16
REMARK    3  A    between atoms: C_10  and  C_17
REMARK    4  A    between atoms: C_11  and  C_16
REMARK    5  A    between atoms: C_23  and  C_24
REMARK                            x       y       z     vdW  Elec       q    Type
REMARK                         _______ _______ _______ _____ _____    ______ ____
ROOT
ATOM      4  N   UNL     1      -1.335  -1.446  23.737  0.00  0.00    -0.297 NA
ATOM      9  C   UNL     1      -1.598   0.258  25.686  0.00  0.00    +0.005 C 
ATOM     10  C   UNL     1      -2.668   0.483  24.601  0.00  0.00    +0.092 C 
ATOM     11  C   UNL     1      -0.038  -0.766  23.995  0.00  0.00    +0.078 C 
ATOM     12  C   UNL     1      -0.201   0.357  25.042  0.00  0.00    +0.025 C 
ATOM     13  C   UNL     1      -1.770  -1.187  26.186  0.00  0.00    +0.020 C 
ATOM     14  C   UNL     1      -2.383  -0.448  23.408  0.00  0.00    +0.097 C 
ATOM     15  C   UNL     1      -1.739  -2.147  24.982  0.00  0.00    +0.085 C 
ENDROOT
BRANCH  10  17
ATOM      1  O   UNL     1      -2.011   2.318  23.251  0.00  0.00    -0.275 OA
ATOM      2  O   UNL     1      -5.834   4.253  25.722  0.00  0.00    -0.377 OA
ATOM      5  N   UNL     1      -3.602   2.749  24.887  0.00  0.00    -0.297 N 
ATOM     17  C   UNL     1      -2.724   1.930  24.181  0.00  0.00    +0.220 C 
ATOM     18  C   UNL     1      -3.722   4.165  24.541  0.00  0.00    +0.136 C 
ATOM     19  C   UNL     1      -4.368   2.353  26.074  0.00  0.00    +0.136 C 
ATOM     20  C   UNL     1      -5.186   4.577  24.489  0.00  0.00    +0.179 C 
ATOM     21  C   UNL     1      -5.805   2.844  25.963  0.00  0.00    +0.179 C 
ENDBRANCH  10  17
BRANCH  11  16
ATOM     16  C   UNL     1       0.618  -0.256  22.710  0.00  0.00    +0.164 C 
BRANCH  16   6
ATOM      6  N   UNL     1       2.008   0.113  22.923  0.00  0.00    -0.250 N 
ATOM      7  N   UNL     1       2.367   1.400  22.926  0.00  0.00    -0.065 NA
ATOM      8  N   UNL     1       3.679   1.433  23.136  0.00  0.00    -0.132 NA
ATOM     22  C   UNL     1       3.055  -0.719  23.128  0.00  0.00    +0.136 A 
ATOM     23  C   UNL     1       4.116   0.144  23.262  0.00  0.00    +0.108 A 
BRANCH  23  24
ATOM     24  C   UNL     1       5.531  -0.162  23.504  0.00  0.00    +0.214 C 
BRANCH  24   3
ATOM      3  O   UNL     1       5.735  -0.939  24.692  0.00  0.00    -0.389 OA
ATOM     25  H   UNL     1       4.880  -1.339  24.927  0.00  0.00    +0.210 HD
ENDBRANCH  24   3
ENDBRANCH  23  24
ENDBRANCH  16   6
ENDBRANCH  11  16
TORSDOF 5
ENDMDL
MODEL 8
REMARK VINA RESULT:      -2.6      3.169      4.905
REMARK  Name = 11941993
REMARK  5 active torsions:
REMARK  status: ('A' for Active; 'I' for Inactive)
REMARK    1  A    between atoms: O_3  and  C_24
REMARK    2  A    between atoms: N_6  and  C_16
REMARK    3  A    between atoms: C_10  and  C_17
REMARK    4  A    between atoms: C_11  and  C_16
REMARK    5  A    between atoms: C_23  and  C_24
REMARK                            x       y       z     vdW  Elec       q    Type
REMARK                         _______ _______ _______ _____ _____    ______ ____
ROOT
ATOM      4  N   UNL     1      -1.524  -0.832  24.393  0.00  0.00    -0.297 NA
ATOM      9  C   UNL     1      -3.845  -1.662  25.227  0.00  0.00    +0.005 C 
ATOM     10  C   UNL     1      -3.976  -0.349  24.433  0.00  0.00    +0.092 C 
ATOM     11  C   UNL     1      -1.474  -1.097  25.856  0.00  0.00    +0.078 C 
ATOM     12  C   UNL     1      -2.875  -1.444  26.404  0.00  0.00    +0.025 C 
ATOM     13  C   UNL     1      -3.196  -2.689  24.282  0.00  0.00    +0.020 C 
ATOM     14  C   UNL     1      -2.571   0.177  24.089  0.00  0.00    +0.097 C 
ATOM     15  C   UNL     1      -1.893  -2.099  23.713  0.00  0.00    +0.085 C 
ENDROOT
BRANCH  10  17
ATOM      1  O   UNL     1      -5.365   0.333  26.230  0.00  0.00    -0.275 OA
ATOM      2  O   UNL     1      -4.325   4.678  24.108  0.00  0.00    -0.377 OA
ATOM      5  N   UNL     1      -4.816   1.960  24.666  0.00  0.00    -0.297 N 
ATOM     17  C   UNL     1      -4.784   0.672  25.195  0.00  0.00    +0.220 C 
ATOM     18  C   UNL     1      -5.572   3.012  25.346  0.00  0.00    +0.136 C 
ATOM     19  C   UNL     1      -4.245   2.366  23.378  0.00  0.00    +0.136 C 
ATOM     20  C   UNL     1      -4.753   4.292  25.417  0.00  0.00    +0.179 C 
ATOM     21  C   UNL     1      -3.485   3.677  23.527  0.00  0.00    +0.179 C 
ENDBRANCH  10  17
BRANCH  11  16
ATOM     16  C   UNL     1      -0.826   0.052  26.633  0.00  0.00    +0.164 C 
BRANCH  16   6
ATOM      6  N   UNL     1      -0.511   1.178  25.769  0.00  0.00    -0.250 N 
ATOM      7  N   UNL     1       0.303   1.014  24.722  0.00  0.00    -0.065 NA
ATOM      8  N   UNL     1       0.409   2.198  24.128  0.00  0.00    -0.132 NA
ATOM     22  C   UNL     1      -0.953   2.451  25.888  0.00  0.00    +0.136 A 
ATOM     23  C   UNL     1      -0.353   3.089  24.830  0.00  0.00    +0.108 A 
BRANCH  23  24
ATOM     24  C   UNL     1      -0.448   4.497  24.425  0.00  0.00    +0.214 C 
BRANCH  24   3
ATOM      3  O   UNL     1      -1.339   5.254  25.256  0.00  0.00    -0.389 OA
ATOM     25  H   UNL     1      -2.232   5.161  24.883  0.00  0.00    +0.210 HD
ENDBRANCH  24   3
ENDBRANCH  23  24
ENDBRANCH  16   6
ENDBRANCH  11  16
TORSDOF 5
ENDMDL
MODEL 9
REMARK VINA RESULT:      -2.6      3.073      4.670
REMARK  Name = 11941993
REMARK  5 active torsions:
REMARK  status: ('A' for Active; 'I' for Inactive)
REMARK    1  A    between atoms: O_3  and  C_24
REMARK    2  A    between atoms: N_6  and  C_16
REMARK    3  A    between atoms: C_10  and  C_17
REMARK    4  A    between atoms: C_11  and  C_16
REMARK    5  A    between atoms: C_23  and  C_24
REMARK                            x       y       z     vdW  Elec       q    Type
REMARK                         _______ _______ _______ _____ _____    ______ ____
ROOT
ATOM      4  N   UNL     1      -0.601   3.064  25.914  0.00  0.00    -0.297 NA
ATOM      9  C   UNL     1      -1.139   2.706  23.393  0.00  0.00    +0.005 C 
ATOM     10  C   UNL     1      -2.390   3.154  24.172  0.00  0.00    +0.092 C 
ATOM     11  C   UNL     1      -0.140   1.718  25.483  0.00  0.00    +0.078 C 
ATOM     12  C   UNL     1      -0.582   1.420  24.034  0.00  0.00    +0.025 C 
ATOM     13  C   UNL     1      -0.080   3.808  23.583  0.00  0.00    +0.020 C 
ATOM     14  C   UNL     1      -2.059   3.210  25.674  0.00  0.00    +0.097 C 
ATOM     15  C   UNL     1       0.106   4.075  25.089  0.00  0.00    +0.085 C 
ENDROOT
BRANCH  10  17
ATOM      1  O   UNL     1      -3.458   1.378  23.019  0.00  0.00    -0.275 OA
ATOM      2  O   UNL     1      -6.725   2.299  26.616  0.00  0.00    -0.377 OA
ATOM      5  N   UNL     1      -4.706   2.452  24.656  0.00  0.00    -0.297 N 
ATOM     17  C   UNL     1      -3.561   2.246  23.890  0.00  0.00    +0.220 C 
ATOM     18  C   UNL     1      -5.886   1.611  24.451  0.00  0.00    +0.136 C 
ATOM     19  C   UNL     1      -4.908   3.550  25.608  0.00  0.00    +0.136 C 
ATOM     20  C   UNL     1      -6.457   1.164  25.788  0.00  0.00    +0.179 C 
ATOM     21  C   UNL     1      -5.525   3.024  26.897  0.00  0.00    +0.179 C 
ENDBRANCH  10  17
BRANCH  11  16
ATOM     16  C   UNL     1      -0.577   0.615  26.450  0.00  0.00    +0.164 C 
BRANCH  16   6
ATOM      6  N   UNL     1      -1.189  -0.504  25.752  0.00  0.00    -0.250 N 
ATOM      7  N   UNL     1      -0.424  -1.452  25.204  0.00  0.00    -0.065 NA
ATOM      8  N   UNL     1      -1.246  -2.330  24.639  0.00  0.00    -0.132 NA
ATOM     22  C   UNL     1      -2.510  -0.729  25.565  0.00  0.00    +0.136 A 
ATOM     23  C   UNL     1      -2.527  -1.902  24.851  0.00  0.00    +0.108 A 
BRANCH  23  24
ATOM     24  C   UNL     1      -3.679  -2.661  24.346  0.00  0.00    +0.214 C 
BRANCH  24   3
ATOM      3  O   UNL     1      -4.680  -1.821  23.756  0.00  0.00    -0.389 OA
ATOM     25  H   UNL     1      -4.477  -0.905  24.014  0.00  0.00    +0.210 HD
ENDBRANCH  24   3
ENDBRANCH  23  24
ENDBRANCH  16   6
ENDBRANCH  11  16
TORSDOF 5
ENDMDL
MODEL 10
REMARK VINA RESULT:      -2.5      2.216      3.053
REMARK  Name = 11941993
REMARK  5 active torsions:
REMARK  status: ('A' for Active; 'I' for Inactive)
REMARK    1  A    between atoms: O_3  and  C_24
REMARK    2  A    between atoms: N_6  and  C_16
REMARK    3  A    between atoms: C_10  and  C_17
REMARK    4  A    between atoms: C_11  and  C_16
REMARK    5  A    between atoms: C_23  and  C_24
REMARK                            x       y       z     vdW  Elec       q    Type
REMARK                         _______ _______ _______ _____ _____    ______ ____
ROOT
ATOM      4  N   UNL     1      -3.138   3.047  25.121  0.00  0.00    -0.297 NA
ATOM      9  C   UNL     1      -5.410   1.778  25.126  0.00  0.00    +0.005 C 
ATOM     10  C   UNL     1      -4.267   0.876  25.629  0.00  0.00    +0.092 C 
ATOM     11  C   UNL     1      -3.787   3.161  23.787  0.00  0.00    +0.078 C 
ATOM     12  C   UNL     1      -5.061   2.292  23.716  0.00  0.00    +0.025 C 
ATOM     13  C   UNL     1      -5.455   3.000  26.061  0.00  0.00    +0.020 C 
ATOM     14  C   UNL     1      -2.928   1.619  25.470  0.00  0.00    +0.097 C 
ATOM     15  C   UNL     1      -4.055   3.638  26.127  0.00  0.00    +0.085 C 
ENDROOT
BRANCH  10  17
ATOM      1  O   UNL     1      -5.172  -0.714  24.121  0.00  0.00    -0.275 OA
ATOM      2  O   UNL     1      -0.765  -2.726  25.116  0.00  0.00    -0.377 OA
ATOM      5  N   UNL     1      -3.198  -1.304  25.190  0.00  0.00    -0.297 N 
ATOM     17  C   UNL     1      -4.261  -0.449  24.910  0.00  0.00    +0.220 C 
ATOM     18  C   UNL     1      -3.112  -2.607  24.531  0.00  0.00    +0.136 C 
ATOM     19  C   UNL     1      -2.169  -1.078  26.211  0.00  0.00    +0.136 C 
ATOM     20  C   UNL     1      -1.695  -2.861  24.038  0.00  0.00    +0.179 C 
ATOM     21  C   UNL     1      -0.790  -1.400  25.652  0.00  0.00    +0.179 C 
ENDBRANCH  10  17
BRANCH  11  16
ATOM     16  C   UNL     1      -2.821   2.851  22.641  0.00  0.00    +0.164 C 
BRANCH  16   6
ATOM      6  N   UNL     1      -1.534   2.384  23.131  0.00  0.00    -0.250 N 
ATOM      7  N   UNL     1      -0.788   3.171  23.912  0.00  0.00    -0.065 NA
ATOM      8  N   UNL     1       0.318   2.492  24.197  0.00  0.00    -0.132 NA
ATOM     22  C   UNL     1      -0.948   1.190  22.887  0.00  0.00    +0.136 A 
ATOM     23  C   UNL     1       0.236   1.277  23.577  0.00  0.00    +0.108 A 
BRANCH  23  24
ATOM     24  C   UNL     1       1.311   0.284  23.697  0.00  0.00    +0.214 C 
BRANCH  24   3
ATOM      3  O   UNL     1       2.499   0.665  22.988  0.00  0.00    -0.389 OA
ATOM     25  H   UNL     1       2.366   0.430  22.054  0.00  0.00    +0.210 HD
ENDBRANCH  24   3
ENDBRANCH  23  24
ENDBRANCH  16   6
ENDBRANCH  11  16
TORSDOF 5
ENDMDL
