MODEL 1
REMARK VINA RESULT:       2.9      0.000      0.000
REMARK  Name = 26742824
REMARK  6 active torsions:
REMARK  status: ('A' for Active; 'I' for Inactive)
REMARK    1  A    between atoms: O_5  and  C_31
REMARK    2  A    between atoms: O_5  and  C_33
REMARK    3  A    between atoms: N_7  and  C_18
REMARK    4  A    between atoms: C_17  and  C_19
REMARK    5  A    between atoms: C_18  and  C_20
REMARK    6  A    between atoms: C_19  and  C_21
REMARK                            x       y       z     vdW  Elec       q    Type
REMARK                         _______ _______ _______ _____ _____    ______ ____
ROOT
ATOM      1  O   UNL     1      -5.784   3.215  26.513  0.00  0.00    -0.276 OA
ATOM      2  O   UNL     1      -0.544  -1.348  25.659  0.00  0.00    -0.275 OA
ATOM      6  N   UNL     1      -2.682  -1.209  24.760  0.00  0.00    -0.301 N 
ATOM      7  N   UNL     1      -4.735   3.202  24.443  0.00  0.00    -0.297 N 
ATOM      8  C   UNL     1      -4.505   0.061  23.639  0.00  0.00    +0.011 C 
ATOM      9  C   UNL     1      -5.224   0.155  25.007  0.00  0.00    +0.004 C 
ATOM     10  C   UNL     1      -4.225   0.089  26.177  0.00  0.00    +0.023 C 
ATOM     11  C   UNL     1      -3.601  -1.189  23.616  0.00  0.00    +0.111 C 
ATOM     12  C   UNL     1      -3.692   1.307  23.239  0.00  0.00    +0.024 C 
ATOM     13  C   UNL     1      -6.202   1.331  25.121  0.00  0.00    +0.100 C 
ATOM     14  C   UNL     1      -3.333  -1.145  26.070  0.00  0.00    +0.108 C 
ATOM     15  C   UNL     1      -4.533   2.573  23.140  0.00  0.00    +0.108 C 
ATOM     16  C   UNL     1      -5.560   2.671  25.429  0.00  0.00    +0.216 C 
ATOM     17  C   UNL     1      -1.293  -1.308  24.680  0.00  0.00    +0.220 C 
ENDROOT
BRANCH   7  18
ATOM     18  C   UNL     1      -4.012   4.443  24.688  0.00  0.00    +0.143 C 
BRANCH  18  20
ATOM      3  O   UNL     1      -0.497   2.026  27.189  0.00  0.00    -0.453 OA
ATOM      4  O   UNL     1       1.260   3.405  26.285  0.00  0.00    -0.453 OA
ATOM     20  C   UNL     1      -2.590   4.194  25.095  0.00  0.00    -0.026 A 
ATOM     22  C   UNL     1      -2.294   3.164  25.993  0.00  0.00    +0.054 A 
ATOM     23  C   UNL     1      -1.564   4.999  24.568  0.00  0.00    +0.009 A 
ATOM     24  C   UNL     1      -0.971   2.973  26.335  0.00  0.00    +0.167 A 
ATOM     27  C   UNL     1      -0.233   4.784  24.931  0.00  0.00    +0.050 A 
ATOM     28  C   UNL     1       0.031   3.760  25.818  0.00  0.00    +0.166 A 
ATOM     32  C   UNL     1       0.917   2.306  27.153  0.00  0.00    +0.466 C 
ENDBRANCH  18  20
ENDBRANCH   7  18
BRANCH  17  19
ATOM     19  C   UNL     1      -0.700  -1.365  23.295  0.00  0.00    +0.131 C 
BRANCH  19  21
ATOM     21  C   UNL     1       0.588  -0.603  23.241  0.00  0.00    -0.038 A 
ATOM     25  C   UNL     1       0.610   0.754  23.562  0.00  0.00    +0.007 A 
ATOM     26  C   UNL     1       1.767  -1.252  22.873  0.00  0.00    +0.007 A 
ATOM     29  C   UNL     1       1.811   1.462  23.513  0.00  0.00    +0.046 A 
ATOM     30  C   UNL     1       2.967  -0.544  22.825  0.00  0.00    +0.046 A 
ATOM     31  C   UNL     1       2.989   0.814  23.145  0.00  0.00    +0.120 A 
BRANCH  31   5
ATOM      5  O   UNL     1       4.161   1.504  23.100  0.00  0.00    -0.495 OA
ATOM     33  C   UNL     1       5.338   0.812  23.518  0.00  0.00    +0.277 C 
ENDBRANCH  31   5
ENDBRANCH  19  21
ENDBRANCH  17  19
TORSDOF 5
ENDMDL
MODEL 2
REMARK VINA RESULT:       2.9      1.861      5.897
REMARK  Name = 26742824
REMARK  6 active torsions:
REMARK  status: ('A' for Active; 'I' for Inactive)
REMARK    1  A    between atoms: O_5  and  C_31
REMARK    2  A    between atoms: O_5  and  C_33
REMARK    3  A    between atoms: N_7  and  C_18
REMARK    4  A    between atoms: C_17  and  C_19
REMARK    5  A    between atoms: C_18  and  C_20
REMARK    6  A    between atoms: C_19  and  C_21
REMARK                            x       y       z     vdW  Elec       q    Type
REMARK                         _______ _______ _______ _____ _____    ______ ____
ROOT
ATOM      1  O   UNL     1      -0.497  -2.243  22.656  0.00  0.00    -0.276 OA
ATOM      2  O   UNL     1      -6.332   1.441  23.834  0.00  0.00    -0.275 OA
ATOM      6  N   UNL     1      -4.996   0.116  25.198  0.00  0.00    -0.301 N 
ATOM      7  N   UNL     1      -0.294  -0.364  24.001  0.00  0.00    -0.297 N 
ATOM      8  C   UNL     1      -2.774  -0.557  26.093  0.00  0.00    +0.011 C 
ATOM      9  C   UNL     1      -2.825  -1.799  25.172  0.00  0.00    +0.004 C 
ATOM     10  C   UNL     1      -3.693  -1.544  23.926  0.00  0.00    +0.023 C 
ATOM     11  C   UNL     1      -4.209  -0.096  26.419  0.00  0.00    +0.111 C 
ATOM     12  C   UNL     1      -1.950   0.627  25.552  0.00  0.00    +0.024 C 
ATOM     13  C   UNL     1      -1.449  -2.385  24.832  0.00  0.00    +0.100 C 
ATOM     14  C   UNL     1      -5.083  -1.049  24.316  0.00  0.00    +0.108 C 
ATOM     15  C   UNL     1      -0.488   0.283  25.296  0.00  0.00    +0.108 C 
ATOM     16  C   UNL     1      -0.701  -1.664  23.726  0.00  0.00    +0.216 C 
ATOM     17  C   UNL     1      -5.656   1.296  24.856  0.00  0.00    +0.220 C 
ENDROOT
BRANCH   7  18
ATOM     18  C   UNL     1       0.356   0.430  22.966  0.00  0.00    +0.143 C 
BRANCH  18  20
ATOM      3  O   UNL     1       4.623  -1.870  23.947  0.00  0.00    -0.453 OA
ATOM      4  O   UNL     1       5.935   0.071  23.384  0.00  0.00    -0.453 OA
ATOM     20  C   UNL     1       1.852   0.370  23.068  0.00  0.00    -0.026 A 
ATOM     22  C   UNL     1       2.472  -0.810  23.487  0.00  0.00    +0.054 A 
ATOM     23  C   UNL     1       2.618   1.503  22.740  0.00  0.00    +0.009 A 
ATOM     24  C   UNL     1       3.850  -0.818  23.562  0.00  0.00    +0.167 A 
ATOM     27  C   UNL     1       4.012   1.468  22.825  0.00  0.00    +0.050 A 
ATOM     28  C   UNL     1       4.599   0.290  23.240  0.00  0.00    +0.166 A 
ATOM     32  C   UNL     1       5.942  -1.299  23.832  0.00  0.00    +0.466 C 
ENDBRANCH  18  20
ENDBRANCH   7  18
BRANCH  17  19
ATOM     19  C   UNL     1      -5.513   2.452  25.815  0.00  0.00    +0.131 C 
BRANCH  19  21
ATOM     21  C   UNL     1      -4.251   3.210  25.543  0.00  0.00    -0.038 A 
ATOM     25  C   UNL     1      -3.559   3.812  26.595  0.00  0.00    +0.007 A 
ATOM     26  C   UNL     1      -3.766   3.313  24.240  0.00  0.00    +0.007 A 
ATOM     29  C   UNL     1      -2.382   4.517  26.341  0.00  0.00    +0.046 A 
ATOM     30  C   UNL     1      -2.590   4.017  23.987  0.00  0.00    +0.046 A 
ATOM     31  C   UNL     1      -1.898   4.619  25.038  0.00  0.00    +0.120 A 
BRANCH  31   5
ATOM      5  O   UNL     1      -0.748   5.305  24.791  0.00  0.00    -0.495 OA
ATOM     33  C   UNL     1       0.172   4.719  23.871  0.00  0.00    +0.277 C 
ENDBRANCH  31   5
ENDBRANCH  19  21
ENDBRANCH  17  19
TORSDOF 5
ENDMDL
MODEL 3
REMARK VINA RESULT:       4.7      1.712      5.370
REMARK  Name = 26742824
REMARK  6 active torsions:
REMARK  status: ('A' for Active; 'I' for Inactive)
REMARK    1  A    between atoms: O_5  and  C_31
REMARK    2  A    between atoms: O_5  and  C_33
REMARK    3  A    between atoms: N_7  and  C_18
REMARK    4  A    between atoms: C_17  and  C_19
REMARK    5  A    between atoms: C_18  and  C_20
REMARK    6  A    between atoms: C_19  and  C_21
REMARK                            x       y       z     vdW  Elec       q    Type
REMARK                         _______ _______ _______ _____ _____    ______ ____
ROOT
ATOM      1  O   UNL     1      -0.795   5.397  25.642  0.00  0.00    -0.276 OA
ATOM      2  O   UNL     1      -6.175   1.077  26.826  0.00  0.00    -0.275 OA
ATOM      6  N   UNL     1      -5.609   2.443  25.034  0.00  0.00    -0.301 N 
ATOM      7  N   UNL     1      -0.891   3.468  24.357  0.00  0.00    -0.297 N 
ATOM      8  C   UNL     1      -3.977   3.281  23.353  0.00  0.00    +0.011 C 
ATOM      9  C   UNL     1      -3.825   4.566  24.202  0.00  0.00    +0.004 C 
ATOM     10  C   UNL     1      -4.129   4.302  25.688  0.00  0.00    +0.023 C 
ATOM     11  C   UNL     1      -5.366   2.658  23.603  0.00  0.00    +0.111 C 
ATOM     12  C   UNL     1      -2.878   2.221  23.565  0.00  0.00    +0.024 C 
ATOM     13  C   UNL     1      -2.500   5.308  23.985  0.00  0.00    +0.100 C 
ATOM     14  C   UNL     1      -5.496   3.645  25.862  0.00  0.00    +0.108 C 
ATOM     15  C   UNL     1      -1.478   2.727  23.242  0.00  0.00    +0.108 C 
ATOM     16  C   UNL     1      -1.314   4.735  24.740  0.00  0.00    +0.216 C 
ATOM     17  C   UNL     1      -5.951   1.226  25.622  0.00  0.00    +0.220 C 
ENDROOT
BRANCH   7  18
ATOM     18  C   UNL     1       0.186   2.808  25.083  0.00  0.00    +0.143 C 
BRANCH  18  20
ATOM      3  O   UNL     1       4.119   1.160  22.578  0.00  0.00    -0.453 OA
ATOM      4  O   UNL     1       2.991  -0.860  21.905  0.00  0.00    -0.453 OA
ATOM     20  C   UNL     1       0.907   1.805  24.231  0.00  0.00    -0.026 A 
ATOM     22  C   UNL     1       2.225   2.049  23.836  0.00  0.00    +0.054 A 
ATOM     23  C   UNL     1       0.248   0.626  23.838  0.00  0.00    +0.009 A 
ATOM     24  C   UNL     1       2.846   1.095  23.055  0.00  0.00    +0.167 A 
ATOM     27  C   UNL     1       0.901  -0.323  23.047  0.00  0.00    +0.050 A 
ATOM     28  C   UNL     1       2.202  -0.058  22.671  0.00  0.00    +0.166 A 
ATOM     32  C   UNL     1       4.204  -0.082  21.851  0.00  0.00    +0.466 C 
ENDBRANCH  18  20
ENDBRANCH   7  18
BRANCH  17  19
ATOM     19  C   UNL     1      -6.043   0.034  24.703  0.00  0.00    +0.131 C 
BRANCH  19  21
ATOM     21  C   UNL     1      -4.754  -0.729  24.697  0.00  0.00    -0.038 A 
ATOM     25  C   UNL     1      -4.601  -1.832  23.857  0.00  0.00    +0.007 A 
ATOM     26  C   UNL     1      -3.707  -0.334  25.529  0.00  0.00    +0.007 A 
ATOM     29  C   UNL     1      -3.400  -2.541  23.851  0.00  0.00    +0.046 A 
ATOM     30  C   UNL     1      -2.506  -1.043  25.522  0.00  0.00    +0.046 A 
ATOM     31  C   UNL     1      -2.352  -2.147  24.683  0.00  0.00    +0.120 A 
BRANCH  31   5
ATOM      5  O   UNL     1      -1.179  -2.837  24.674  0.00  0.00    -0.495 OA
ATOM     33  C   UNL     1      -0.157  -2.388  25.563  0.00  0.00    +0.277 C 
ENDBRANCH  31   5
ENDBRANCH  19  21
ENDBRANCH  17  19
TORSDOF 5
ENDMDL
