MODEL 1
REMARK VINA RESULT:      -4.9      0.000      0.000
REMARK  Name = 71693114
REMARK  12 active torsions:
REMARK  status: ('A' for Active; 'I' for Inactive)
REMARK    1  A    between atoms: O_3  and  C_30
REMARK    2  A    between atoms: N_5  and  C_15
REMARK    3  A    between atoms: C_8  and  C_12
REMARK    4  A    between atoms: C_9  and  C_15
REMARK    5  A    between atoms: C_11  and  C_16
REMARK    6  A    between atoms: C_12  and  C_17
REMARK    7  A    between atoms: C_12  and  C_18
REMARK    8  A    between atoms: C_13  and  C_19
REMARK    9  A    between atoms: C_16  and  C_20
REMARK   10  A    between atoms: C_21  and  C_24
REMARK   11  A    between atoms: C_24  and  C_27
REMARK   12  A    between atoms: C_27  and  C_30
REMARK                            x       y       z     vdW  Elec       q    Type
REMARK                         _______ _______ _______ _____ _____    ______ ____
ROOT
ATOM      8  C   UNL     1      -2.521   2.387  23.723  0.00  0.00    +0.000 C 
ATOM      9  C   UNL     1      -1.353   2.928  24.583  0.00  0.00    +0.032 C 
ATOM     10  C   UNL     1      -3.662   3.414  23.661  0.00  0.00    +0.012 C 
ATOM     11  C   UNL     1      -4.207   3.764  25.058  0.00  0.00    +0.022 C 
ATOM     13  C   UNL     1      -3.091   4.051  26.042  0.00  0.00    -0.073 C 
ATOM     14  C   UNL     1      -1.819   3.683  25.806  0.00  0.00    -0.022 C 
ATOM     19  C   UNL     1      -3.462   4.814  27.283  0.00  0.00    +0.039 C 
ENDROOT
BRANCH   8  12
ATOM     12  C   UNL     1      -2.066   2.031  22.304  0.00  0.00    -0.013 C 
ATOM     17  C   UNL     1      -2.083   0.519  22.103  0.00  0.00    +0.007 C 
ATOM     18  C   UNL     1      -2.952   2.724  21.272  0.00  0.00    +0.007 C 
ENDBRANCH   8  12
BRANCH   9  15
ATOM     15  C   UNL     1      -0.409   1.798  25.010  0.00  0.00    +0.112 C 
BRANCH  15   5
ATOM      2  O   UNL     1       0.820  -0.259  23.389  0.00  0.00    -0.276 OA
ATOM      5  N   UNL     1       0.831   1.879  24.305  0.00  0.00    -0.315 N 
ATOM     21  C   UNL     1       1.356   0.835  23.541  0.00  0.00    +0.214 C 
ATOM     31  H   UNL     1       1.331   2.764  24.318  0.00  0.00    +0.149 HD
BRANCH  21  24
ATOM     24  C   UNL     1       2.686   1.203  22.909  0.00  0.00    +0.107 C 
BRANCH  24  27
ATOM     27  C   UNL     1       3.562  -0.016  22.640  0.00  0.00    +0.129 C 
BRANCH  27  30
ATOM      4  O   UNL     1       5.408   0.770  24.017  0.00  0.00    -0.251 OA
ATOM     30  C   UNL     1       4.681  -0.142  23.647  0.00  0.00    +0.305 C 
BRANCH  30   3
ATOM      3  O   UNL     1       4.793  -1.415  24.110  0.00  0.00    -0.481 OA
ATOM     33  H   UNL     1       5.396  -1.954  23.554  0.00  0.00    +0.295 HD
ENDBRANCH  30   3
ENDBRANCH  27  30
ENDBRANCH  24  27
ENDBRANCH  21  24
ENDBRANCH  15   5
ENDBRANCH   9  15
BRANCH  11  16
ATOM     16  C   UNL     1      -5.131   2.660  25.584  0.00  0.00    +0.082 C 
BRANCH  16  20
ATOM      1  F   UNL     1      -1.336  -3.499  25.021  0.00  0.00    -0.205 F 
ATOM      6  N   UNL     1      -3.435   0.833  25.801  0.00  0.00    -0.342 N 
ATOM      7  N   UNL     1      -5.142   0.415  24.440  0.00  0.00    -0.232 NA
ATOM     20  C   UNL     1      -4.599   1.295  25.251  0.00  0.00    +0.109 A 
ATOM     22  C   UNL     1      -3.213  -0.428  25.312  0.00  0.00    +0.069 A 
ATOM     23  C   UNL     1      -4.292  -0.666  24.465  0.00  0.00    +0.089 A 
ATOM     25  C   UNL     1      -2.193  -1.353  25.531  0.00  0.00    +0.066 A 
ATOM     26  C   UNL     1      -4.373  -1.894  23.787  0.00  0.00    +0.032 A 
ATOM     28  C   UNL     1      -2.290  -2.571  24.849  0.00  0.00    +0.125 A 
ATOM     29  C   UNL     1      -3.360  -2.839  23.992  0.00  0.00    +0.040 A 
ATOM     32  H   UNL     1      -2.843   1.332  26.453  0.00  0.00    +0.167 HD
ENDBRANCH  16  20
ENDBRANCH  11  16
TORSDOF 9
ENDMDL
MODEL 2
REMARK VINA RESULT:      -3.7      3.326      6.908
REMARK  Name = 71693114
REMARK  12 active torsions:
REMARK  status: ('A' for Active; 'I' for Inactive)
REMARK    1  A    between atoms: O_3  and  C_30
REMARK    2  A    between atoms: N_5  and  C_15
REMARK    3  A    between atoms: C_8  and  C_12
REMARK    4  A    between atoms: C_9  and  C_15
REMARK    5  A    between atoms: C_11  and  C_16
REMARK    6  A    between atoms: C_12  and  C_17
REMARK    7  A    between atoms: C_12  and  C_18
REMARK    8  A    between atoms: C_13  and  C_19
REMARK    9  A    between atoms: C_16  and  C_20
REMARK   10  A    between atoms: C_21  and  C_24
REMARK   11  A    between atoms: C_24  and  C_27
REMARK   12  A    between atoms: C_27  and  C_30
REMARK                            x       y       z     vdW  Elec       q    Type
REMARK                         _______ _______ _______ _____ _____    ______ ____
ROOT
ATOM      8  C   UNL     1      -3.196  -1.296  24.394  0.00  0.00    +0.000 C 
ATOM      9  C   UNL     1      -3.760  -0.154  25.276  0.00  0.00    +0.032 C 
ATOM     10  C   UNL     1      -1.788  -1.691  24.865  0.00  0.00    +0.012 C 
ATOM     11  C   UNL     1      -0.804  -0.507  24.817  0.00  0.00    +0.022 C 
ATOM     13  C   UNL     1      -1.398   0.744  25.434  0.00  0.00    -0.073 C 
ATOM     14  C   UNL     1      -2.720   0.878  25.644  0.00  0.00    -0.022 C 
ATOM     19  C   UNL     1      -0.432   1.819  25.848  0.00  0.00    +0.039 C 
ENDROOT
BRANCH   8  12
ATOM     12  C   UNL     1      -4.110  -2.526  24.402  0.00  0.00    -0.013 C 
ATOM     17  C   UNL     1      -4.682  -2.773  23.010  0.00  0.00    +0.007 C 
ATOM     18  C   UNL     1      -3.347  -3.750  24.900  0.00  0.00    +0.007 C 
ENDBRANCH   8  12
BRANCH   9  15
ATOM     15  C   UNL     1      -4.946   0.538  24.594  0.00  0.00    +0.112 C 
BRANCH  15   5
ATOM      2  O   UNL     1      -6.005   2.539  26.395  0.00  0.00    -0.276 OA
ATOM      5  N   UNL     1      -4.741   1.951  24.532  0.00  0.00    -0.315 N 
ATOM     21  C   UNL     1      -5.292   2.852  25.446  0.00  0.00    +0.214 C 
ATOM     31  H   UNL     1      -4.118   2.313  23.816  0.00  0.00    +0.149 HD
BRANCH  21  24
ATOM     24  C   UNL     1      -4.907   4.287  25.134  0.00  0.00    +0.107 C 
BRANCH  24  27
ATOM     27  C   UNL     1      -3.553   4.391  24.442  0.00  0.00    +0.129 C 
BRANCH  27  30
ATOM      4  O   UNL     1      -1.386   5.241  25.152  0.00  0.00    -0.251 OA
ATOM     30  C   UNL     1      -2.437   4.676  25.420  0.00  0.00    +0.305 C 
BRANCH  30   3
ATOM      3  O   UNL     1      -2.740   4.223  26.665  0.00  0.00    -0.481 OA
ATOM     33  H   UNL     1      -3.522   3.631  26.658  0.00  0.00    +0.295 HD
ENDBRANCH  30   3
ENDBRANCH  27  30
ENDBRANCH  24  27
ENDBRANCH  21  24
ENDBRANCH  15   5
ENDBRANCH   9  15
BRANCH  11  16
ATOM     16  C   UNL     1      -0.331  -0.239  23.384  0.00  0.00    +0.082 C 
BRANCH  16  20
ATOM      1  F   UNL     1       6.863  -1.122  23.714  0.00  0.00    -0.205 F 
ATOM      6  N   UNL     1       1.987  -1.111  23.742  0.00  0.00    -0.342 N 
ATOM      7  N   UNL     1       1.841   0.929  22.869  0.00  0.00    -0.232 NA
ATOM     20  C   UNL     1       1.164  -0.105  23.316  0.00  0.00    +0.109 A 
ATOM     22  C   UNL     1       3.281  -0.698  23.557  0.00  0.00    +0.069 A 
ATOM     23  C   UNL     1       3.164   0.577  23.011  0.00  0.00    +0.089 A 
ATOM     25  C   UNL     1       4.507  -1.312  23.812  0.00  0.00    +0.066 A 
ATOM     26  C   UNL     1       4.328   1.297  22.694  0.00  0.00    +0.032 A 
ATOM     28  C   UNL     1       5.656  -0.581  23.490  0.00  0.00    +0.125 A 
ATOM     29  C   UNL     1       5.570   0.701  22.941  0.00  0.00    +0.040 A 
ATOM     32  H   UNL     1       1.695  -2.000  24.125  0.00  0.00    +0.167 HD
ENDBRANCH  16  20
ENDBRANCH  11  16
TORSDOF 9
ENDMDL
MODEL 3
REMARK VINA RESULT:      -3.1      1.417      2.023
REMARK  Name = 71693114
REMARK  12 active torsions:
REMARK  status: ('A' for Active; 'I' for Inactive)
REMARK    1  A    between atoms: O_3  and  C_30
REMARK    2  A    between atoms: N_5  and  C_15
REMARK    3  A    between atoms: C_8  and  C_12
REMARK    4  A    between atoms: C_9  and  C_15
REMARK    5  A    between atoms: C_11  and  C_16
REMARK    6  A    between atoms: C_12  and  C_17
REMARK    7  A    between atoms: C_12  and  C_18
REMARK    8  A    between atoms: C_13  and  C_19
REMARK    9  A    between atoms: C_16  and  C_20
REMARK   10  A    between atoms: C_21  and  C_24
REMARK   11  A    between atoms: C_24  and  C_27
REMARK   12  A    between atoms: C_27  and  C_30
REMARK                            x       y       z     vdW  Elec       q    Type
REMARK                         _______ _______ _______ _____ _____    ______ ____
ROOT
ATOM      8  C   UNL     1      -3.220   2.399  23.850  0.00  0.00    +0.000 C 
ATOM      9  C   UNL     1      -2.940   3.864  24.265  0.00  0.00    +0.032 C 
ATOM     10  C   UNL     1      -4.694   2.225  23.456  0.00  0.00    +0.012 C 
ATOM     11  C   UNL     1      -5.652   2.598  24.603  0.00  0.00    +0.022 C 
ATOM     13  C   UNL     1      -5.274   3.917  25.246  0.00  0.00    -0.073 C 
ATOM     14  C   UNL     1      -4.062   4.475  25.072  0.00  0.00    -0.022 C 
ATOM     19  C   UNL     1      -6.337   4.606  26.055  0.00  0.00    +0.039 C 
ENDROOT
BRANCH   8  12
ATOM     12  C   UNL     1      -2.318   1.952  22.695  0.00  0.00    -0.013 C 
ATOM     17  C   UNL     1      -2.394   0.440  22.513  0.00  0.00    +0.007 C 
ATOM     18  C   UNL     1      -2.708   2.673  21.408  0.00  0.00    +0.007 C 
ENDBRANCH   8  12
BRANCH   9  15
ATOM     15  C   UNL     1      -1.628   3.976  25.050  0.00  0.00    +0.112 C 
BRANCH  15   5
ATOM      2  O   UNL     1       0.056   1.855  26.067  0.00  0.00    -0.276 OA
ATOM      5  N   UNL     1      -0.567   3.311  24.363  0.00  0.00    -0.315 N 
ATOM     21  C   UNL     1       0.201   2.292  24.929  0.00  0.00    +0.214 C 
ATOM     31  H   UNL     1      -0.398   3.557  23.391  0.00  0.00    +0.149 HD
BRANCH  21  24
ATOM     24  C   UNL     1       1.256   1.772  23.969  0.00  0.00    +0.107 C 
BRANCH  24  27
ATOM     27  C   UNL     1       0.941   0.370  23.458  0.00  0.00    +0.129 C 
BRANCH  27  30
ATOM      4  O   UNL     1       1.824  -0.297  21.291  0.00  0.00    -0.251 OA
ATOM     30  C   UNL     1       1.989  -0.130  22.492  0.00  0.00    +0.305 C 
BRANCH  30   3
ATOM      3  O   UNL     1       3.167  -0.380  23.122  0.00  0.00    -0.481 OA
ATOM     33  H   UNL     1       3.630   0.449  23.373  0.00  0.00    +0.295 HD
ENDBRANCH  30   3
ENDBRANCH  27  30
ENDBRANCH  24  27
ENDBRANCH  21  24
ENDBRANCH  15   5
ENDBRANCH   9  15
BRANCH  11  16
ATOM     16  C   UNL     1      -5.723   1.479  25.649  0.00  0.00    +0.082 C 
BRANCH  16  20
ATOM      1  F   UNL     1       0.305  -2.554  25.474  0.00  0.00    -0.205 F 
ATOM      6  N   UNL     1      -3.420   0.555  25.963  0.00  0.00    -0.342 N 
ATOM      7  N   UNL     1      -4.786  -0.653  24.691  0.00  0.00    -0.232 NA
ATOM     20  C   UNL     1      -4.666   0.439  25.412  0.00  0.00    +0.109 A 
ATOM     22  C   UNL     1      -2.687  -0.536  25.571  0.00  0.00    +0.069 A 
ATOM     23  C   UNL     1      -3.561  -1.274  24.778  0.00  0.00    +0.089 A 
ATOM     25  C   UNL     1      -1.374  -0.927  25.834  0.00  0.00    +0.066 A 
ATOM     26  C   UNL     1      -3.116  -2.477  24.205  0.00  0.00    +0.032 A 
ATOM     28  C   UNL     1      -0.948  -2.128  25.256  0.00  0.00    +0.125 A 
ATOM     29  C   UNL     1      -1.802  -2.891  24.455  0.00  0.00    +0.040 A 
ATOM     32  H   UNL     1      -3.096   1.308  26.555  0.00  0.00    +0.167 HD
ENDBRANCH  16  20
ENDBRANCH  11  16
TORSDOF 9
ENDMDL
MODEL 4
REMARK VINA RESULT:      -2.7      2.582      5.106
REMARK  Name = 71693114
REMARK  12 active torsions:
REMARK  status: ('A' for Active; 'I' for Inactive)
REMARK    1  A    between atoms: O_3  and  C_30
REMARK    2  A    between atoms: N_5  and  C_15
REMARK    3  A    between atoms: C_8  and  C_12
REMARK    4  A    between atoms: C_9  and  C_15
REMARK    5  A    between atoms: C_11  and  C_16
REMARK    6  A    between atoms: C_12  and  C_17
REMARK    7  A    between atoms: C_12  and  C_18
REMARK    8  A    between atoms: C_13  and  C_19
REMARK    9  A    between atoms: C_16  and  C_20
REMARK   10  A    between atoms: C_21  and  C_24
REMARK   11  A    between atoms: C_24  and  C_27
REMARK   12  A    between atoms: C_27  and  C_30
REMARK                            x       y       z     vdW  Elec       q    Type
REMARK                         _______ _______ _______ _____ _____    ______ ____
ROOT
ATOM      8  C   UNL     1      -4.039   2.950  25.276  0.00  0.00    +0.000 C 
ATOM      9  C   UNL     1      -3.806   3.458  23.832  0.00  0.00    +0.032 C 
ATOM     10  C   UNL     1      -3.370   3.890  26.290  0.00  0.00    +0.012 C 
ATOM     11  C   UNL     1      -1.853   4.013  26.057  0.00  0.00    +0.022 C 
ATOM     13  C   UNL     1      -1.525   4.250  24.596  0.00  0.00    -0.073 C 
ATOM     14  C   UNL     1      -2.416   4.009  23.617  0.00  0.00    -0.022 C 
ATOM     19  C   UNL     1      -0.166   4.815  24.289  0.00  0.00    +0.039 C 
ENDROOT
BRANCH   8  12
ATOM     12  C   UNL     1      -5.532   2.817  25.598  0.00  0.00    -0.013 C 
ATOM     17  C   UNL     1      -5.732   1.984  26.860  0.00  0.00    +0.007 C 
ATOM     18  C   UNL     1      -6.166   4.196  25.753  0.00  0.00    +0.007 C 
ENDBRANCH   8  12
BRANCH   9  15
ATOM     15  C   UNL     1      -4.081   2.354  22.805  0.00  0.00    +0.112 C 
BRANCH  15   5
ATOM      2  O   UNL     1      -5.379   0.108  24.086  0.00  0.00    -0.276 OA
ATOM      5  N   UNL     1      -3.478   1.123  23.210  0.00  0.00    -0.315 N 
ATOM     21  C   UNL     1      -4.180   0.084  23.825  0.00  0.00    +0.214 C 
ATOM     31  H   UNL     1      -2.498   0.975  22.988  0.00  0.00    +0.149 HD
BRANCH  21  24
ATOM     24  C   UNL     1      -3.284  -1.099  24.144  0.00  0.00    +0.107 C 
BRANCH  24  27
ATOM     27  C   UNL     1      -2.946  -1.193  25.627  0.00  0.00    +0.129 C 
BRANCH  27  30
ATOM      4  O   UNL     1      -0.902  -2.456  25.247  0.00  0.00    -0.251 OA
ATOM     30  C   UNL     1      -1.505  -1.584  25.857  0.00  0.00    +0.305 C 
BRANCH  30   3
ATOM      3  O   UNL     1      -0.938  -0.840  26.842  0.00  0.00    -0.481 OA
ATOM     33  H   UNL     1      -1.583  -0.616  27.548  0.00  0.00    +0.295 HD
ENDBRANCH  30   3
ENDBRANCH  27  30
ENDBRANCH  24  27
ENDBRANCH  21  24
ENDBRANCH  15   5
ENDBRANCH   9  15
BRANCH  11  16
ATOM     16  C   UNL     1      -1.109   2.785  26.593  0.00  0.00    +0.082 C 
BRANCH  16  20
ATOM      1  F   UNL     1       3.578   0.010  21.800  0.00  0.00    -0.205 F 
ATOM      6  N   UNL     1       0.920   2.206  25.249  0.00  0.00    -0.342 N 
ATOM      7  N   UNL     1      -0.962   1.179  24.658  0.00  0.00    -0.232 NA
ATOM     20  C   UNL     1      -0.416   2.038  25.489  0.00  0.00    +0.109 A 
ATOM     22  C   UNL     1       1.258   1.400  24.192  0.00  0.00    +0.069 A 
ATOM     23  C   UNL     1       0.067   0.770  23.841  0.00  0.00    +0.089 A 
ATOM     25  C   UNL     1       2.466   1.176  23.532  0.00  0.00    +0.066 A 
ATOM     26  C   UNL     1       0.063  -0.142  22.772  0.00  0.00    +0.032 A 
ATOM     28  C   UNL     1       2.444   0.265  22.471  0.00  0.00    +0.125 A 
ATOM     29  C   UNL     1       1.265  -0.383  22.095  0.00  0.00    +0.040 A 
ATOM     32  H   UNL     1       1.547   2.814  25.758  0.00  0.00    +0.167 HD
ENDBRANCH  16  20
ENDBRANCH  11  16
TORSDOF 9
ENDMDL
MODEL 5
REMARK VINA RESULT:      -1.4      3.623      6.063
REMARK  Name = 71693114
REMARK  12 active torsions:
REMARK  status: ('A' for Active; 'I' for Inactive)
REMARK    1  A    between atoms: O_3  and  C_30
REMARK    2  A    between atoms: N_5  and  C_15
REMARK    3  A    between atoms: C_8  and  C_12
REMARK    4  A    between atoms: C_9  and  C_15
REMARK    5  A    between atoms: C_11  and  C_16
REMARK    6  A    between atoms: C_12  and  C_17
REMARK    7  A    between atoms: C_12  and  C_18
REMARK    8  A    between atoms: C_13  and  C_19
REMARK    9  A    between atoms: C_16  and  C_20
REMARK   10  A    between atoms: C_21  and  C_24
REMARK   11  A    between atoms: C_24  and  C_27
REMARK   12  A    between atoms: C_27  and  C_30
REMARK                            x       y       z     vdW  Elec       q    Type
REMARK                         _______ _______ _______ _____ _____    ______ ____
ROOT
ATOM      8  C   UNL     1      -1.569   3.268  24.885  0.00  0.00    +0.000 C 
ATOM      9  C   UNL     1      -1.560   2.899  23.381  0.00  0.00    +0.032 C 
ATOM     10  C   UNL     1      -0.152   3.168  25.470  0.00  0.00    +0.012 C 
ATOM     11  C   UNL     1       0.443   1.756  25.318  0.00  0.00    +0.022 C 
ATOM     13  C   UNL     1       0.250   1.211  23.917  0.00  0.00    -0.073 C 
ATOM     14  C   UNL     1      -0.640   1.744  23.061  0.00  0.00    -0.022 C 
ATOM     19  C   UNL     1       1.137   0.069  23.506  0.00  0.00    +0.039 C 
ENDROOT
BRANCH   8  12
ATOM     12  C   UNL     1      -2.132   4.673  25.123  0.00  0.00    -0.013 C 
ATOM     17  C   UNL     1      -2.631   4.810  26.558  0.00  0.00    +0.007 C 
ATOM     18  C   UNL     1      -1.073   5.728  24.814  0.00  0.00    +0.007 C 
ENDBRANCH   8  12
BRANCH   9  15
ATOM     15  C   UNL     1      -2.973   2.579  22.880  0.00  0.00    +0.112 C 
BRANCH  15   5
ATOM      2  O   UNL     1      -4.515   4.974  23.387  0.00  0.00    -0.276 OA
ATOM      5  N   UNL     1      -3.936   2.783  23.915  0.00  0.00    -0.315 N 
ATOM     21  C   UNL     1      -4.640   3.976  24.092  0.00  0.00    +0.214 C 
ATOM     31  H   UNL     1      -4.160   2.000  24.522  0.00  0.00    +0.149 HD
BRANCH  21  24
ATOM     24  C   UNL     1      -5.595   3.907  25.270  0.00  0.00    +0.107 C 
BRANCH  24  27
ATOM     27  C   UNL     1      -5.348   2.686  26.150  0.00  0.00    +0.129 C 
BRANCH  27  30
ATOM      4  O   UNL     1      -6.990   1.185  27.137  0.00  0.00    -0.251 OA
ATOM     30  C   UNL     1      -6.527   1.741  26.150  0.00  0.00    +0.305 C 
BRANCH  30   3
ATOM      3  O   UNL     1      -7.029   1.572  24.899  0.00  0.00    -0.481 OA
ATOM     33  H   UNL     1      -7.992   1.384  24.914  0.00  0.00    +0.295 HD
ENDBRANCH  30   3
ENDBRANCH  27  30
ENDBRANCH  24  27
ENDBRANCH  21  24
ENDBRANCH  15   5
ENDBRANCH   9  15
BRANCH  11  16
ATOM     16  C   UNL     1      -0.136   0.797  26.364  0.00  0.00    +0.082 C 
BRANCH  16  20
ATOM      1  F   UNL     1      -5.771  -2.681  23.400  0.00  0.00    -0.205 F 
ATOM      6  N   UNL     1      -2.366   0.162  25.424  0.00  0.00    -0.342 N 
ATOM      7  N   UNL     1      -0.825  -1.440  25.434  0.00  0.00    -0.232 NA
ATOM     20  C   UNL     1      -1.082  -0.188  25.740  0.00  0.00    +0.109 A 
ATOM     22  C   UNL     1      -2.977  -0.936  24.876  0.00  0.00    +0.069 A 
ATOM     23  C   UNL     1      -1.995  -1.923  24.893  0.00  0.00    +0.089 A 
ATOM     25  C   UNL     1      -4.264  -1.146  24.383  0.00  0.00    +0.066 A 
ATOM     26  C   UNL     1      -2.298  -3.201  24.392  0.00  0.00    +0.032 A 
ATOM     28  C   UNL     1      -4.548  -2.423  23.887  0.00  0.00    +0.125 A 
ATOM     29  C   UNL     1      -3.584  -3.433  23.891  0.00  0.00    +0.040 A 
ATOM     32  H   UNL     1      -2.789   1.069  25.567  0.00  0.00    +0.167 HD
ENDBRANCH  16  20
ENDBRANCH  11  16
TORSDOF 9
ENDMDL
MODEL 6
REMARK VINA RESULT:      -1.4      3.435      7.341
REMARK  Name = 71693114
REMARK  12 active torsions:
REMARK  status: ('A' for Active; 'I' for Inactive)
REMARK    1  A    between atoms: O_3  and  C_30
REMARK    2  A    between atoms: N_5  and  C_15
REMARK    3  A    between atoms: C_8  and  C_12
REMARK    4  A    between atoms: C_9  and  C_15
REMARK    5  A    between atoms: C_11  and  C_16
REMARK    6  A    between atoms: C_12  and  C_17
REMARK    7  A    between atoms: C_12  and  C_18
REMARK    8  A    between atoms: C_13  and  C_19
REMARK    9  A    between atoms: C_16  and  C_20
REMARK   10  A    between atoms: C_21  and  C_24
REMARK   11  A    between atoms: C_24  and  C_27
REMARK   12  A    between atoms: C_27  and  C_30
REMARK                            x       y       z     vdW  Elec       q    Type
REMARK                         _______ _______ _______ _____ _____    ______ ____
ROOT
ATOM      8  C   UNL     1      -2.996  -1.133  24.473  0.00  0.00    +0.000 C 
ATOM      9  C   UNL     1      -3.635   0.066  25.215  0.00  0.00    +0.032 C 
ATOM     10  C   UNL     1      -1.621  -1.465  25.072  0.00  0.00    +0.012 C 
ATOM     11  C   UNL     1      -0.650  -0.272  24.996  0.00  0.00    +0.022 C 
ATOM     13  C   UNL     1      -1.300   1.014  25.465  0.00  0.00    -0.073 C 
ATOM     14  C   UNL     1      -2.635   1.142  25.570  0.00  0.00    -0.022 C 
ATOM     19  C   UNL     1      -0.378   2.135  25.856  0.00  0.00    +0.039 C 
ENDROOT
BRANCH   8  12
ATOM     12  C   UNL     1      -3.895  -2.374  24.517  0.00  0.00    -0.013 C 
ATOM     17  C   UNL     1      -4.493  -2.648  23.141  0.00  0.00    +0.007 C 
ATOM     18  C   UNL     1      -3.107  -3.582  25.016  0.00  0.00    +0.007 C 
ENDBRANCH   8  12
BRANCH   9  15
ATOM     15  C   UNL     1      -4.776   0.680  24.396  0.00  0.00    +0.112 C 
BRANCH  15   5
ATOM      2  O   UNL     1      -3.451   2.489  22.568  0.00  0.00    -0.276 OA
ATOM      5  N   UNL     1      -4.740   2.107  24.467  0.00  0.00    -0.315 N 
ATOM     21  C   UNL     1      -4.074   2.910  23.538  0.00  0.00    +0.214 C 
ATOM     31  H   UNL     1      -5.273   2.563  25.201  0.00  0.00    +0.149 HD
BRANCH  21  24
ATOM     24  C   UNL     1      -4.204   4.387  23.864  0.00  0.00    +0.107 C 
BRANCH  24  27
ATOM     27  C   UNL     1      -4.409   4.640  25.354  0.00  0.00    +0.129 C 
BRANCH  27  30
ATOM      4  O   UNL     1      -6.115   3.139  26.223  0.00  0.00    -0.251 OA
ATOM     30  C   UNL     1      -5.793   4.245  25.811  0.00  0.00    +0.305 C 
BRANCH  30   3
ATOM      3  O   UNL     1      -6.665   5.283  25.711  0.00  0.00    -0.481 OA
ATOM     33  H   UNL     1      -6.325   5.991  25.124  0.00  0.00    +0.295 HD
ENDBRANCH  30   3
ENDBRANCH  27  30
ENDBRANCH  24  27
ENDBRANCH  21  24
ENDBRANCH  15   5
ENDBRANCH   9  15
BRANCH  11  16
ATOM     16  C   UNL     1      -0.078  -0.114  23.583  0.00  0.00    +0.082 C 
BRANCH  16  20
ATOM      1  F   UNL     1       7.130   0.402  22.937  0.00  0.00    -0.205 F 
ATOM      6  N   UNL     1       2.266   0.653  23.160  0.00  0.00    -0.342 N 
ATOM      7  N   UNL     1       2.047  -1.427  23.914  0.00  0.00    -0.232 NA
ATOM     20  C   UNL     1       1.408  -0.332  23.566  0.00  0.00    +0.109 A 
ATOM     22  C   UNL     1       3.542   0.161  23.253  0.00  0.00    +0.069 A 
ATOM     23  C   UNL     1       3.379  -1.138  23.726  0.00  0.00    +0.089 A 
ATOM     25  C   UNL     1       4.787   0.723  22.973  0.00  0.00    +0.066 A 
ATOM     26  C   UNL     1       4.514  -1.938  23.938  0.00  0.00    +0.032 A 
ATOM     28  C   UNL     1       5.907  -0.087  23.190  0.00  0.00    +0.125 A 
ATOM     29  C   UNL     1       5.775  -1.395  23.664  0.00  0.00    +0.040 A 
ATOM     32  H   UNL     1       2.006   1.579  22.847  0.00  0.00    +0.167 HD
ENDBRANCH  16  20
ENDBRANCH  11  16
TORSDOF 9
ENDMDL
