MODEL 1
REMARK VINA RESULT:       0.7      0.000      0.000
REMARK  Name = 11886118
REMARK  5 active torsions:
REMARK  status: ('A' for Active; 'I' for Inactive)
REMARK    1  A    between atoms: N_7  and  C_15
REMARK    2  A    between atoms: N_8  and  C_16
REMARK    3  A    between atoms: N_12  and  C_24
REMARK    4  A    between atoms: C_19  and  C_21
REMARK    5  A    between atoms: C_30  and  C_33
REMARK                            x       y       z     vdW  Elec       q    Type
REMARK                         _______ _______ _______ _____ _____    ______ ____
ROOT
ATOM      4  O   UNL     1      -4.434  -0.265  23.558  0.00  0.00    -0.370 OA
ATOM      5  O   UNL     1      -3.459  -0.855  26.489  0.00  0.00    -0.370 OA
ATOM     13  C   UNL     1      -3.473   0.321  25.660  0.00  0.00    +0.176 C 
ATOM     14  C   UNL     1      -3.178  -0.127  24.241  0.00  0.00    +0.171 C 
ATOM     15  C   UNL     1      -4.876   0.893  25.598  0.00  0.00    +0.168 C 
ATOM     16  C   UNL     1      -2.521  -1.479  24.406  0.00  0.00    +0.131 C 
ATOM     17  C   UNL     1      -5.499   0.148  24.424  0.00  0.00    +0.190 C 
ATOM     18  C   UNL     1      -3.166  -1.999  25.676  0.00  0.00    +0.185 C 
ENDROOT
BRANCH  16   8
ATOM      6  O   UNL     1      -0.671  -0.480  22.460  0.00  0.00    -0.252 OA
ATOM      8  N   UNL     1      -1.092  -1.350  24.560  0.00  0.00    -0.292 N 
ATOM     12  N   UNL     1       1.074  -0.842  23.988  0.00  0.00    -0.269 N 
ATOM     20  C   UNL     1      -0.256  -0.850  23.555  0.00  0.00    +0.304 C 
ATOM     34  H   UNL     1      -0.682  -1.571  25.462  0.00  0.00    +0.151 HD
ATOM     35  H   UNL     1       1.248  -1.186  24.929  0.00  0.00    +0.156 HD
BRANCH  12  24
ATOM     24  C   UNL     1       2.217  -0.414  23.272  0.00  0.00    +0.035 A 
ATOM     27  C   UNL     1       3.450  -0.410  23.904  0.00  0.00    +0.035 A 
ATOM     29  C   UNL     1       2.079  -0.009  21.955  0.00  0.00    +0.023 A 
ATOM     30  C   UNL     1       4.577   0.010  23.198  0.00  0.00    +0.057 A 
ATOM     31  C   UNL     1       3.207   0.412  21.249  0.00  0.00    +0.002 A 
ATOM     32  C   UNL     1       4.456   0.422  21.870  0.00  0.00    +0.012 A 
BRANCH  30  33
ATOM      1  F   UNL     1       6.943  -0.292  23.020  0.00  0.00    -0.166 F 
ATOM      2  F   UNL     1       6.018  -0.863  24.897  0.00  0.00    -0.166 F 
ATOM      3  F   UNL     1       6.227   1.241  24.388  0.00  0.00    -0.166 F 
ATOM     33  C   UNL     1       5.913   0.021  23.861  0.00  0.00    +0.417 C 
ENDBRANCH  30  33
ENDBRANCH  12  24
ENDBRANCH  16   8
BRANCH  15   7
ATOM      7  N   UNL     1      -4.884   2.354  25.480  0.00  0.00    -0.217 N 
ATOM      9  N   UNL     1      -6.035   3.032  25.532  0.00  0.00    -0.043 NA
ATOM     10  N   UNL     1      -4.318   4.429  25.257  0.00  0.00    -0.108 NA
ATOM     11  N   UNL     1      -5.682   4.305  25.395  0.00  0.00    -0.023 NA
ATOM     19  C   UNL     1      -3.844   3.205  25.313  0.00  0.00    +0.182 A 
BRANCH  19  21
ATOM     21  C   UNL     1      -2.464   2.806  25.216  0.00  0.00    +0.021 A 
ATOM     22  C   UNL     1      -1.862   2.664  23.965  0.00  0.00    +0.011 A 
ATOM     23  C   UNL     1      -1.724   2.560  26.374  0.00  0.00    +0.011 A 
ATOM     25  C   UNL     1      -0.525   2.278  23.871  0.00  0.00    +0.001 A 
ATOM     26  C   UNL     1      -0.387   2.173  26.280  0.00  0.00    +0.001 A 
ATOM     28  C   UNL     1       0.213   2.032  25.029  0.00  0.00    +0.000 A 
ENDBRANCH  19  21
ENDBRANCH  15   7
TORSDOF 5
ENDMDL
MODEL 2
REMARK VINA RESULT:       0.9      2.231      3.583
REMARK  Name = 11886118
REMARK  5 active torsions:
REMARK  status: ('A' for Active; 'I' for Inactive)
REMARK    1  A    between atoms: N_7  and  C_15
REMARK    2  A    between atoms: N_8  and  C_16
REMARK    3  A    between atoms: N_12  and  C_24
REMARK    4  A    between atoms: C_19  and  C_21
REMARK    5  A    between atoms: C_30  and  C_33
REMARK                            x       y       z     vdW  Elec       q    Type
REMARK                         _______ _______ _______ _____ _____    ______ ____
ROOT
ATOM      4  O   UNL     1      -2.488   3.951  27.175  0.00  0.00    -0.370 OA
ATOM      5  O   UNL     1      -2.943   5.197  24.324  0.00  0.00    -0.370 OA
ATOM     13  C   UNL     1      -3.243   3.920  24.914  0.00  0.00    +0.176 C 
ATOM     14  C   UNL     1      -2.096   3.576  25.845  0.00  0.00    +0.171 C 
ATOM     15  C   UNL     1      -4.452   4.041  25.822  0.00  0.00    +0.168 C 
ATOM     16  C   UNL     1      -0.955   4.447  25.369  0.00  0.00    +0.131 C 
ATOM     17  C   UNL     1      -3.838   4.432  27.160  0.00  0.00    +0.190 C 
ATOM     18  C   UNL     1      -1.681   5.661  24.823  0.00  0.00    +0.185 C 
ENDROOT
BRANCH  16   8
ATOM      6  O   UNL     1       0.572   2.038  25.645  0.00  0.00    -0.252 OA
ATOM      8  N   UNL     1      -0.190   3.787  24.339  0.00  0.00    -0.292 N 
ATOM     12  N   UNL     1       1.172   2.205  23.382  0.00  0.00    -0.269 N 
ATOM     20  C   UNL     1       0.532   2.608  24.558  0.00  0.00    +0.304 C 
ATOM     34  H   UNL     1      -0.229   4.160  23.396  0.00  0.00    +0.151 HD
ATOM     35  H   UNL     1       1.036   2.794  22.564  0.00  0.00    +0.156 HD
BRANCH  12  24
ATOM     24  C   UNL     1       1.994   1.070  23.186  0.00  0.00    +0.035 A 
ATOM     27  C   UNL     1       3.332   1.134  23.539  0.00  0.00    +0.035 A 
ATOM     29  C   UNL     1       1.443  -0.081  22.648  0.00  0.00    +0.023 A 
ATOM     30  C   UNL     1       4.143   0.014  23.349  0.00  0.00    +0.057 A 
ATOM     31  C   UNL     1       2.254  -1.201  22.457  0.00  0.00    +0.002 A 
ATOM     32  C   UNL     1       3.603  -1.154  22.807  0.00  0.00    +0.012 A 
BRANCH  30  33
ATOM      1  F   UNL     1       6.023   1.317  24.047  0.00  0.00    -0.166 F 
ATOM      2  F   UNL     1       6.424  -0.361  22.733  0.00  0.00    -0.166 F 
ATOM      3  F   UNL     1       5.873  -0.716  24.806  0.00  0.00    -0.166 F 
ATOM     33  C   UNL     1       5.585   0.064  23.723  0.00  0.00    +0.417 C 
ENDBRANCH  30  33
ENDBRANCH  12  24
ENDBRANCH  16   8
BRANCH  15   7
ATOM      7  N   UNL     1      -5.264   2.821  25.844  0.00  0.00    -0.217 N 
ATOM      9  N   UNL     1      -6.392   2.771  26.560  0.00  0.00    -0.043 NA
ATOM     10  N   UNL     1      -6.038   0.828  25.524  0.00  0.00    -0.108 NA
ATOM     11  N   UNL     1      -6.864   1.546  26.360  0.00  0.00    -0.023 NA
ATOM     19  C   UNL     1      -5.052   1.640  25.217  0.00  0.00    +0.182 A 
BRANCH  19  21
ATOM     21  C   UNL     1      -3.927   1.353  24.365  0.00  0.00    +0.021 A 
ATOM     22  C   UNL     1      -3.766   2.042  23.162  0.00  0.00    +0.011 A 
ATOM     23  C   UNL     1      -2.994   0.386  24.741  0.00  0.00    +0.011 A 
ATOM     25  C   UNL     1      -2.676   1.765  22.337  0.00  0.00    +0.001 A 
ATOM     26  C   UNL     1      -1.904   0.108  23.915  0.00  0.00    +0.001 A 
ATOM     28  C   UNL     1      -1.745   0.798  22.713  0.00  0.00    +0.000 A 
ENDBRANCH  19  21
ENDBRANCH  15   7
TORSDOF 5
ENDMDL
MODEL 3
REMARK VINA RESULT:       4.5      1.859      3.407
REMARK  Name = 11886118
REMARK  5 active torsions:
REMARK  status: ('A' for Active; 'I' for Inactive)
REMARK    1  A    between atoms: N_7  and  C_15
REMARK    2  A    between atoms: N_8  and  C_16
REMARK    3  A    between atoms: N_12  and  C_24
REMARK    4  A    between atoms: C_19  and  C_21
REMARK    5  A    between atoms: C_30  and  C_33
REMARK                            x       y       z     vdW  Elec       q    Type
REMARK                         _______ _______ _______ _____ _____    ______ ____
ROOT
ATOM      4  O   UNL     1      -2.645   3.897  24.809  0.00  0.00    -0.370 OA
ATOM      5  O   UNL     1      -3.570   2.273  22.280  0.00  0.00    -0.370 OA
ATOM     13  C   UNL     1      -3.645   2.040  23.698  0.00  0.00    +0.176 C 
ATOM     14  C   UNL     1      -2.366   2.580  24.310  0.00  0.00    +0.171 C 
ATOM     15  C   UNL     1      -4.748   2.888  24.303  0.00  0.00    +0.168 C 
ATOM     16  C   UNL     1      -1.400   2.653  23.149  0.00  0.00    +0.131 C 
ATOM     17  C   UNL     1      -4.036   4.195  24.630  0.00  0.00    +0.190 C 
ATOM     18  C   UNL     1      -2.323   2.913  21.974  0.00  0.00    +0.185 C 
ENDROOT
BRANCH  16   8
ATOM      6  O   UNL     1       1.251   2.069  24.065  0.00  0.00    -0.252 OA
ATOM      8  N   UNL     1      -0.684   1.410  22.986  0.00  0.00    -0.292 N 
ATOM     12  N   UNL     1       1.047  -0.088  23.162  0.00  0.00    -0.269 N 
ATOM     20  C   UNL     1       0.615   1.206  23.466  0.00  0.00    +0.304 C 
ATOM     34  H   UNL     1      -1.170   0.626  22.561  0.00  0.00    +0.151 HD
ATOM     35  H   UNL     1       0.393  -0.680  22.656  0.00  0.00    +0.156 HD
BRANCH  12  24
ATOM     24  C   UNL     1       2.294  -0.682  23.472  0.00  0.00    +0.035 A 
ATOM     27  C   UNL     1       3.459   0.038  23.261  0.00  0.00    +0.035 A 
ATOM     29  C   UNL     1       2.323  -1.969  23.981  0.00  0.00    +0.023 A 
ATOM     30  C   UNL     1       4.687  -0.546  23.569  0.00  0.00    +0.057 A 
ATOM     31  C   UNL     1       3.552  -2.554  24.288  0.00  0.00    +0.002 A 
ATOM     32  C   UNL     1       4.734  -1.843  24.082  0.00  0.00    +0.012 A 
BRANCH  30  33
ATOM      1  F   UNL     1       6.507   0.007  22.119  0.00  0.00    -0.166 F 
ATOM      2  F   UNL     1       6.938  -0.093  24.243  0.00  0.00    -0.166 F 
ATOM      3  F   UNL     1       5.775   1.565  23.449  0.00  0.00    -0.166 F 
ATOM     33  C   UNL     1       5.952   0.214  23.350  0.00  0.00    +0.417 C 
ENDBRANCH  30  33
ENDBRANCH  12  24
ENDBRANCH  16   8
BRANCH  15   7
ATOM      7  N   UNL     1      -5.400   2.234  25.442  0.00  0.00    -0.217 N 
ATOM      9  N   UNL     1      -6.268   2.908  26.203  0.00  0.00    -0.043 NA
ATOM     10  N   UNL     1      -6.040   0.816  26.943  0.00  0.00    -0.108 NA
ATOM     11  N   UNL     1      -6.658   2.033  27.123  0.00  0.00    -0.023 NA
ATOM     19  C   UNL     1      -5.264   0.965  25.893  0.00  0.00    +0.182 A 
BRANCH  19  21
ATOM     21  C   UNL     1      -4.406  -0.029  25.302  0.00  0.00    +0.021 A 
ATOM     22  C   UNL     1      -3.110  -0.213  25.787  0.00  0.00    +0.011 A 
ATOM     23  C   UNL     1      -4.869  -0.812  24.243  0.00  0.00    +0.011 A 
ATOM     25  C   UNL     1      -2.279  -1.176  25.215  0.00  0.00    +0.001 A 
ATOM     26  C   UNL     1      -4.037  -1.775  23.671  0.00  0.00    +0.001 A 
ATOM     28  C   UNL     1      -2.742  -1.958  24.157  0.00  0.00    +0.000 A 
ENDBRANCH  19  21
ENDBRANCH  15   7
TORSDOF 5
ENDMDL
