MODEL 1
REMARK VINA RESULT:      -6.0      0.000      0.000
REMARK  Name = 75367811
REMARK  6 active torsions:
REMARK  status: ('A' for Active; 'I' for Inactive)
REMARK    1  A    between atoms: O_3  and  C_11
REMARK    2  A    between atoms: O_3  and  C_16
REMARK    3  A    between atoms: O_4  and  C_17
REMARK    4  A    between atoms: O_4  and  C_18
REMARK    5  A    between atoms: N_5  and  C_6
REMARK    6  A    between atoms: C_16  and  C_17
REMARK                            x       y       z     vdW  Elec       q    Type
REMARK                         _______ _______ _______ _____ _____    ______ ____
ROOT
ATOM      2  O   UNL     1       0.749   2.367  24.658  0.00  0.00    -0.376 OA
ATOM      5  N   UNL     1      -2.346   2.286  24.286  0.00  0.00    -0.295 NA
ATOM      9  C   UNL     1      -2.090   0.844  24.385  0.00  0.00    +0.118 C 
ATOM     10  C   UNL     1      -1.547   3.105  25.199  0.00  0.00    +0.113 C 
ATOM     11  C   UNL     1      -0.644   0.389  24.641  0.00  0.00    +0.158 C 
ATOM     14  C   UNL     1      -0.194   3.426  24.562  0.00  0.00    +0.175 C 
ATOM     15  C   UNL     1       0.411   1.205  23.909  0.00  0.00    +0.192 C 
ENDROOT
BRANCH   5   6
ATOM      1  O   UNL     1      -6.085   2.729  26.148  0.00  0.00    -0.380 OA
ATOM      6  C   UNL     1      -3.776   2.555  24.437  0.00  0.00    +0.061 C 
ATOM      7  C   UNL     1      -4.018   3.745  25.371  0.00  0.00    +0.047 C 
ATOM      8  C   UNL     1      -4.498   1.314  24.971  0.00  0.00    +0.047 C 
ATOM     12  C   UNL     1      -5.510   3.926  25.622  0.00  0.00    +0.161 C 
ATOM     13  C   UNL     1      -5.964   1.631  25.244  0.00  0.00    +0.161 C 
ENDBRANCH   5   6
BRANCH  11   3
ATOM      3  O   UNL     1      -0.525  -0.969  24.215  0.00  0.00    -0.371 OA
BRANCH   3  16
ATOM     16  C   UNL     1      -1.117  -1.856  25.151  0.00  0.00    +0.188 C 
BRANCH  16  17
ATOM     17  C   UNL     1      -2.107  -2.749  24.429  0.00  0.00    +0.187 C 
BRANCH  17   4
ATOM      4  O   UNL     1      -3.418  -2.468  24.905  0.00  0.00    -0.381 OA
ATOM     18  C   UNL     1      -4.298  -2.132  23.842  0.00  0.00    +0.194 C 
ENDBRANCH  17   4
ENDBRANCH  16  17
ENDBRANCH   3  16
ENDBRANCH  11   3
TORSDOF 5
ENDMDL
MODEL 2
REMARK VINA RESULT:      -5.9      1.351      5.282
REMARK  Name = 75367811
REMARK  6 active torsions:
REMARK  status: ('A' for Active; 'I' for Inactive)
REMARK    1  A    between atoms: O_3  and  C_11
REMARK    2  A    between atoms: O_3  and  C_16
REMARK    3  A    between atoms: O_4  and  C_17
REMARK    4  A    between atoms: O_4  and  C_18
REMARK    5  A    between atoms: N_5  and  C_6
REMARK    6  A    between atoms: C_16  and  C_17
REMARK                            x       y       z     vdW  Elec       q    Type
REMARK                         _______ _______ _______ _____ _____    ______ ____
ROOT
ATOM      2  O   UNL     1      -5.667   3.317  25.597  0.00  0.00    -0.376 OA
ATOM      5  N   UNL     1      -3.933   1.069  24.307  0.00  0.00    -0.295 NA
ATOM      9  C   UNL     1      -2.864   2.018  24.643  0.00  0.00    +0.118 C 
ATOM     10  C   UNL     1      -4.982   0.958  25.321  0.00  0.00    +0.113 C 
ATOM     11  C   UNL     1      -3.257   3.308  25.380  0.00  0.00    +0.158 C 
ATOM     14  C   UNL     1      -6.039   2.040  25.097  0.00  0.00    +0.175 C 
ATOM     15  C   UNL     1      -4.572   3.920  24.917  0.00  0.00    +0.192 C 
ENDROOT
BRANCH   5   6
ATOM      1  O   UNL     1      -2.596  -2.877  24.840  0.00  0.00    -0.380 OA
ATOM      6  C   UNL     1      -3.361  -0.238  23.982  0.00  0.00    +0.061 C 
ATOM      7  C   UNL     1      -4.383  -1.358  24.204  0.00  0.00    +0.047 C 
ATOM      8  C   UNL     1      -2.109  -0.497  24.824  0.00  0.00    +0.047 C 
ATOM     12  C   UNL     1      -3.732  -2.719  23.989  0.00  0.00    +0.161 C 
ATOM     13  C   UNL     1      -1.585  -1.906  24.575  0.00  0.00    +0.161 C 
ENDBRANCH   5   6
BRANCH  11   3
ATOM      3  O   UNL     1      -2.225   4.271  25.168  0.00  0.00    -0.371 OA
BRANCH   3  16
ATOM     16  C   UNL     1      -1.015   3.649  24.763  0.00  0.00    +0.188 C 
BRANCH  16  17
ATOM     17  C   UNL     1      -0.321   3.076  25.984  0.00  0.00    +0.187 C 
BRANCH  17   4
ATOM      4  O   UNL     1       0.618   2.092  25.566  0.00  0.00    -0.381 OA
ATOM     18  C   UNL     1       0.593   1.914  24.157  0.00  0.00    +0.194 C 
ENDBRANCH  17   4
ENDBRANCH  16  17
ENDBRANCH   3  16
ENDBRANCH  11   3
TORSDOF 5
ENDMDL
MODEL 3
REMARK VINA RESULT:      -5.8      1.790      4.264
REMARK  Name = 75367811
REMARK  6 active torsions:
REMARK  status: ('A' for Active; 'I' for Inactive)
REMARK    1  A    between atoms: O_3  and  C_11
REMARK    2  A    between atoms: O_3  and  C_16
REMARK    3  A    between atoms: O_4  and  C_17
REMARK    4  A    between atoms: O_4  and  C_18
REMARK    5  A    between atoms: N_5  and  C_6
REMARK    6  A    between atoms: C_16  and  C_17
REMARK                            x       y       z     vdW  Elec       q    Type
REMARK                         _______ _______ _______ _____ _____    ______ ____
ROOT
ATOM      2  O   UNL     1      -2.225  -2.861  24.550  0.00  0.00    -0.376 OA
ATOM      5  N   UNL     1      -3.056   0.142  24.684  0.00  0.00    -0.295 NA
ATOM      9  C   UNL     1      -1.664   0.310  24.249  0.00  0.00    +0.118 C 
ATOM     10  C   UNL     1      -3.753  -0.981  24.057  0.00  0.00    +0.113 C 
ATOM     11  C   UNL     1      -0.838  -0.960  23.984  0.00  0.00    +0.158 C 
ATOM     14  C   UNL     1      -3.482  -2.266  24.842  0.00  0.00    +0.175 C 
ATOM     15  C   UNL     1      -1.099  -2.095  24.965  0.00  0.00    +0.192 C 
ENDROOT
BRANCH   5   6
ATOM      1  O   UNL     1      -4.875   3.800  25.660  0.00  0.00    -0.380 OA
ATOM      6  C   UNL     1      -3.792   1.395  24.508  0.00  0.00    +0.061 C 
ATOM      7  C   UNL     1      -2.917   2.602  24.860  0.00  0.00    +0.047 C 
ATOM      8  C   UNL     1      -5.058   1.395  25.370  0.00  0.00    +0.047 C 
ATOM     12  C   UNL     1      -3.738   3.885  24.801  0.00  0.00    +0.161 C 
ATOM     13  C   UNL     1      -5.759   2.745  25.282  0.00  0.00    +0.161 C 
ENDBRANCH   5   6
BRANCH  11   3
ATOM      3  O   UNL     1       0.544  -0.615  24.069  0.00  0.00    -0.371 OA
BRANCH   3  16
ATOM     16  C   UNL     1       0.893   0.356  23.094  0.00  0.00    +0.188 C 
BRANCH  16  17
ATOM     17  C   UNL     1       2.279   0.047  22.562  0.00  0.00    +0.187 C 
BRANCH  17   4
ATOM      4  O   UNL     1       3.182   1.052  23.009  0.00  0.00    -0.381 OA
ATOM     18  C   UNL     1       4.513   0.560  23.083  0.00  0.00    +0.194 C 
ENDBRANCH  17   4
ENDBRANCH  16  17
ENDBRANCH   3  16
ENDBRANCH  11   3
TORSDOF 5
ENDMDL
MODEL 4
REMARK VINA RESULT:      -5.7      1.327      4.688
REMARK  Name = 75367811
REMARK  6 active torsions:
REMARK  status: ('A' for Active; 'I' for Inactive)
REMARK    1  A    between atoms: O_3  and  C_11
REMARK    2  A    between atoms: O_3  and  C_16
REMARK    3  A    between atoms: O_4  and  C_17
REMARK    4  A    between atoms: O_4  and  C_18
REMARK    5  A    between atoms: N_5  and  C_6
REMARK    6  A    between atoms: C_16  and  C_17
REMARK                            x       y       z     vdW  Elec       q    Type
REMARK                         _______ _______ _______ _____ _____    ______ ____
ROOT
ATOM      2  O   UNL     1      -0.159   3.449  25.430  0.00  0.00    -0.376 OA
ATOM      5  N   UNL     1      -1.857   0.930  24.724  0.00  0.00    -0.295 NA
ATOM      9  C   UNL     1      -2.789   1.968  24.268  0.00  0.00    +0.118 C 
ATOM     10  C   UNL     1      -0.451   1.208  24.428  0.00  0.00    +0.113 C 
ATOM     11  C   UNL     1      -2.335   3.433  24.369  0.00  0.00    +0.158 C 
ATOM     14  C   UNL     1       0.155   2.068  25.538  0.00  0.00    +0.175 C 
ATOM     15  C   UNL     1      -1.535   3.758  25.623  0.00  0.00    +0.192 C 
ENDROOT
BRANCH   5   6
ATOM      1  O   UNL     1      -3.500  -2.935  24.665  0.00  0.00    -0.380 OA
ATOM      6  C   UNL     1      -2.265  -0.376  24.205  0.00  0.00    +0.061 C 
ATOM      7  C   UNL     1      -3.785  -0.551  24.288  0.00  0.00    +0.047 C 
ATOM      8  C   UNL     1      -1.565  -1.499  24.976  0.00  0.00    +0.047 C 
ATOM     12  C   UNL     1      -4.178  -1.963  23.869  0.00  0.00    +0.161 C 
ATOM     13  C   UNL     1      -2.082  -2.858  24.519  0.00  0.00    +0.161 C 
ENDBRANCH   5   6
BRANCH  11   3
ATOM      3  O   UNL     1      -3.499   4.259  24.363  0.00  0.00    -0.371 OA
BRANCH   3  16
ATOM     16  C   UNL     1      -4.682   3.481  24.456  0.00  0.00    +0.188 C 
BRANCH  16  17
ATOM     17  C   UNL     1      -5.466   3.917  25.680  0.00  0.00    +0.187 C 
BRANCH  17   4
ATOM      4  O   UNL     1      -5.816   2.767  26.440  0.00  0.00    -0.381 OA
ATOM     18  C   UNL     1      -6.170   1.676  25.602  0.00  0.00    +0.194 C 
ENDBRANCH  17   4
ENDBRANCH  16  17
ENDBRANCH   3  16
ENDBRANCH  11   3
TORSDOF 5
ENDMDL
MODEL 5
REMARK VINA RESULT:      -5.3      2.098      4.492
REMARK  Name = 75367811
REMARK  6 active torsions:
REMARK  status: ('A' for Active; 'I' for Inactive)
REMARK    1  A    between atoms: O_3  and  C_11
REMARK    2  A    between atoms: O_3  and  C_16
REMARK    3  A    between atoms: O_4  and  C_17
REMARK    4  A    between atoms: O_4  and  C_18
REMARK    5  A    between atoms: N_5  and  C_6
REMARK    6  A    between atoms: C_16  and  C_17
REMARK                            x       y       z     vdW  Elec       q    Type
REMARK                         _______ _______ _______ _____ _____    ______ ____
ROOT
ATOM      2  O   UNL     1      -1.158   4.145  24.872  0.00  0.00    -0.376 OA
ATOM      5  N   UNL     1      -2.407   1.298  24.631  0.00  0.00    -0.295 NA
ATOM      9  C   UNL     1      -0.990   0.934  24.521  0.00  0.00    +0.118 C 
ATOM     10  C   UNL     1      -2.687   2.348  25.611  0.00  0.00    +0.113 C 
ATOM     11  C   UNL     1       0.050   2.060  24.648  0.00  0.00    +0.158 C 
ATOM     14  C   UNL     1      -2.512   3.723  24.964  0.00  0.00    +0.175 C 
ATOM     15  C   UNL     1      -0.357   3.369  23.988  0.00  0.00    +0.192 C 
ENDROOT
BRANCH   5   6
ATOM      1  O   UNL     1      -3.604  -2.728  24.533  0.00  0.00    -0.380 OA
ATOM      6  C   UNL     1      -3.215   0.103  24.882  0.00  0.00    +0.061 C 
ATOM      7  C   UNL     1      -2.425  -0.939  25.680  0.00  0.00    +0.047 C 
ATOM      8  C   UNL     1      -3.695  -0.503  23.560  0.00  0.00    +0.047 C 
ATOM     12  C   UNL     1      -3.232  -2.225  25.816  0.00  0.00    +0.161 C 
ATOM     13  C   UNL     1      -4.431  -1.813  23.815  0.00  0.00    +0.161 C 
ENDBRANCH   5   6
BRANCH  11   3
ATOM      3  O   UNL     1       1.261   1.616  24.036  0.00  0.00    -0.371 OA
BRANCH   3  16
ATOM     16  C   UNL     1       1.058   0.417  23.304  0.00  0.00    +0.188 C 
BRANCH  16  17
ATOM     17  C   UNL     1       2.326   0.081  22.543  0.00  0.00    +0.187 C 
BRANCH  17   4
ATOM      4  O   UNL     1       3.307   1.076  22.813  0.00  0.00    -0.381 OA
ATOM     18  C   UNL     1       4.577   0.498  23.077  0.00  0.00    +0.194 C 
ENDBRANCH  17   4
ENDBRANCH  16  17
ENDBRANCH   3  16
ENDBRANCH  11   3
TORSDOF 5
ENDMDL
MODEL 6
REMARK VINA RESULT:      -5.0      1.246      3.885
REMARK  Name = 75367811
REMARK  6 active torsions:
REMARK  status: ('A' for Active; 'I' for Inactive)
REMARK    1  A    between atoms: O_3  and  C_11
REMARK    2  A    between atoms: O_3  and  C_16
REMARK    3  A    between atoms: O_4  and  C_17
REMARK    4  A    between atoms: O_4  and  C_18
REMARK    5  A    between atoms: N_5  and  C_6
REMARK    6  A    between atoms: C_16  and  C_17
REMARK                            x       y       z     vdW  Elec       q    Type
REMARK                         _______ _______ _______ _____ _____    ______ ____
ROOT
ATOM      2  O   UNL     1      -1.929  -2.538  24.501  0.00  0.00    -0.376 OA
ATOM      5  N   UNL     1      -3.458   0.163  24.801  0.00  0.00    -0.295 NA
ATOM      9  C   UNL     1      -2.124   0.690  24.489  0.00  0.00    +0.118 C 
ATOM     10  C   UNL     1      -3.831  -1.029  24.037  0.00  0.00    +0.113 C 
ATOM     11  C   UNL     1      -1.006  -0.322  24.192  0.00  0.00    +0.158 C 
ATOM     14  C   UNL     1      -3.306  -2.282  24.740  0.00  0.00    +0.175 C 
ATOM     15  C   UNL     1      -1.044  -1.573  25.059  0.00  0.00    +0.192 C 
ENDROOT
BRANCH   5   6
ATOM      1  O   UNL     1      -5.815   3.494  25.800  0.00  0.00    -0.380 OA
ATOM      6  C   UNL     1      -4.461   1.221  24.666  0.00  0.00    +0.061 C 
ATOM      7  C   UNL     1      -3.814   2.607  24.743  0.00  0.00    +0.047 C 
ATOM      8  C   UNL     1      -5.533   1.081  25.750  0.00  0.00    +0.047 C 
ATOM     12  C   UNL     1      -4.884   3.692  24.735  0.00  0.00    +0.161 C 
ATOM     13  C   UNL     1      -6.507   2.251  25.686  0.00  0.00    +0.161 C 
ENDBRANCH   5   6
BRANCH  11   3
ATOM      3  O   UNL     1       0.247   0.326  24.409  0.00  0.00    -0.371 OA
BRANCH   3  16
ATOM     16  C   UNL     1       0.119   1.737  24.325  0.00  0.00    +0.188 C 
BRANCH  16  17
ATOM     17  C   UNL     1       0.305   2.334  25.706  0.00  0.00    +0.187 C 
BRANCH  17   4
ATOM      4  O   UNL     1      -0.740   3.267  25.953  0.00  0.00    -0.381 OA
ATOM     18  C   UNL     1      -0.724   4.329  25.010  0.00  0.00    +0.194 C 
ENDBRANCH  17   4
ENDBRANCH  16  17
ENDBRANCH   3  16
ENDBRANCH  11   3
TORSDOF 5
ENDMDL
MODEL 7
REMARK VINA RESULT:      -4.8      1.327      4.547
REMARK  Name = 75367811
REMARK  6 active torsions:
REMARK  status: ('A' for Active; 'I' for Inactive)
REMARK    1  A    between atoms: O_3  and  C_11
REMARK    2  A    between atoms: O_3  and  C_16
REMARK    3  A    between atoms: O_4  and  C_17
REMARK    4  A    between atoms: O_4  and  C_18
REMARK    5  A    between atoms: N_5  and  C_6
REMARK    6  A    between atoms: C_16  and  C_17
REMARK                            x       y       z     vdW  Elec       q    Type
REMARK                         _______ _______ _______ _____ _____    ______ ____
ROOT
ATOM      2  O   UNL     1       0.847   2.538  23.979  0.00  0.00    -0.376 OA
ATOM      5  N   UNL     1      -1.448   0.642  24.909  0.00  0.00    -0.295 NA
ATOM      9  C   UNL     1      -2.170   1.919  24.965  0.00  0.00    +0.118 C 
ATOM     10  C   UNL     1      -0.547   0.508  23.763  0.00  0.00    +0.113 C 
ATOM     11  C   UNL     1      -1.422   3.186  24.518  0.00  0.00    +0.158 C 
ATOM     14  C   UNL     1       0.813   1.123  24.096  0.00  0.00    +0.175 C 
ATOM     15  C   UNL     1       0.043   3.228  24.930  0.00  0.00    +0.192 C 
ENDROOT
BRANCH   5   6
ATOM      1  O   UNL     1      -3.731  -2.659  23.671  0.00  0.00    -0.380 OA
ATOM      6  C   UNL     1      -2.393  -0.473  24.981  0.00  0.00    +0.061 C 
ATOM      7  C   UNL     1      -1.695  -1.806  24.688  0.00  0.00    +0.047 C 
ATOM      8  C   UNL     1      -3.547  -0.258  23.999  0.00  0.00    +0.047 C 
ATOM     12  C   UNL     1      -2.716  -2.936  24.636  0.00  0.00    +0.161 C 
ATOM     13  C   UNL     1      -4.464  -1.476  23.985  0.00  0.00    +0.161 C 
ENDBRANCH   5   6
BRANCH  11   3
ATOM      3  O   UNL     1      -2.076   4.314  25.099  0.00  0.00    -0.371 OA
BRANCH   3  16
ATOM     16  C   UNL     1      -3.091   3.911  26.005  0.00  0.00    +0.188 C 
BRANCH  16  17
ATOM     17  C   UNL     1      -4.414   3.840  25.265  0.00  0.00    +0.187 C 
BRANCH  17   4
ATOM      4  O   UNL     1      -5.292   2.969  25.968  0.00  0.00    -0.381 OA
ATOM     18  C   UNL     1      -5.873   2.004  25.102  0.00  0.00    +0.194 C 
ENDBRANCH  17   4
ENDBRANCH  16  17
ENDBRANCH   3  16
ENDBRANCH  11   3
TORSDOF 5
ENDMDL
MODEL 8
REMARK VINA RESULT:      -4.5     15.341     18.352
REMARK  Name = 75367811
REMARK  6 active torsions:
REMARK  status: ('A' for Active; 'I' for Inactive)
REMARK    1  A    between atoms: O_3  and  C_11
REMARK    2  A    between atoms: O_3  and  C_16
REMARK    3  A    between atoms: O_4  and  C_17
REMARK    4  A    between atoms: O_4  and  C_18
REMARK    5  A    between atoms: N_5  and  C_6
REMARK    6  A    between atoms: C_16  and  C_17
REMARK                            x       y       z     vdW  Elec       q    Type
REMARK                         _______ _______ _______ _____ _____    ______ ____
ROOT
ATOM      2  O   UNL     1      13.671   8.665  16.197  0.00  0.00    -0.376 OA
ATOM      5  N   UNL     1      12.102   7.801  18.750  0.00  0.00    -0.295 NA
ATOM      9  C   UNL     1      13.452   7.403  19.167  0.00  0.00    +0.118 C 
ATOM     10  C   UNL     1      12.044   9.065  18.015  0.00  0.00    +0.113 C 
ATOM     11  C   UNL     1      14.615   7.702  18.207  0.00  0.00    +0.158 C 
ATOM     14  C   UNL     1      12.297   8.815  16.528  0.00  0.00    +0.175 C 
ATOM     15  C   UNL     1      14.284   7.498  16.735  0.00  0.00    +0.192 C 
ENDROOT
BRANCH   5   6
ATOM      1  O   UNL     1      10.856   7.871  22.761  0.00  0.00    -0.380 OA
ATOM      6  C   UNL     1      11.202   7.810  19.904  0.00  0.00    +0.061 C 
ATOM      7  C   UNL     1      11.370   9.093  20.724  0.00  0.00    +0.047 C 
ATOM      8  C   UNL     1      11.455   6.585  20.787  0.00  0.00    +0.047 C 
ATOM     12  C   UNL     1      10.524   9.026  21.990  0.00  0.00    +0.161 C 
ATOM     13  C   UNL     1      10.605   6.659  22.050  0.00  0.00    +0.161 C 
ENDBRANCH   5   6
BRANCH  11   3
ATOM      3  O   UNL     1      15.698   6.833  18.538  0.00  0.00    -0.371 OA
BRANCH   3  16
ATOM     16  C   UNL     1      15.668   6.474  19.911  0.00  0.00    +0.188 C 
BRANCH  16  17
ATOM     17  C   UNL     1      17.091   6.313  20.412  0.00  0.00    +0.187 C 
BRANCH  17   4
ATOM      4  O   UNL     1      17.368   7.338  21.359  0.00  0.00    -0.381 OA
ATOM     18  C   UNL     1      16.280   8.241  21.483  0.00  0.00    +0.194 C 
ENDBRANCH  17   4
ENDBRANCH  16  17
ENDBRANCH   3  16
ENDBRANCH  11   3
TORSDOF 5
ENDMDL
MODEL 9
REMARK VINA RESULT:      -4.5      1.783      3.258
REMARK  Name = 75367811
REMARK  6 active torsions:
REMARK  status: ('A' for Active; 'I' for Inactive)
REMARK    1  A    between atoms: O_3  and  C_11
REMARK    2  A    between atoms: O_3  and  C_16
REMARK    3  A    between atoms: O_4  and  C_17
REMARK    4  A    between atoms: O_4  and  C_18
REMARK    5  A    between atoms: N_5  and  C_6
REMARK    6  A    between atoms: C_16  and  C_17
REMARK                            x       y       z     vdW  Elec       q    Type
REMARK                         _______ _______ _______ _____ _____    ______ ____
ROOT
ATOM      2  O   UNL     1       0.670   2.788  25.341  0.00  0.00    -0.376 OA
ATOM      5  N   UNL     1      -2.308   2.395  24.505  0.00  0.00    -0.295 NA
ATOM      9  C   UNL     1      -1.804   1.052  24.193  0.00  0.00    +0.118 C 
ATOM     10  C   UNL     1      -1.763   2.973  25.734  0.00  0.00    +0.113 C 
ATOM     11  C   UNL     1      -0.331   0.748  24.509  0.00  0.00    +0.158 C 
ATOM     14  C   UNL     1      -0.437   3.674  25.437  0.00  0.00    +0.175 C 
ATOM     15  C   UNL     1       0.622   1.901  24.229  0.00  0.00    +0.192 C 
ENDROOT
BRANCH   5   6
ATOM      1  O   UNL     1      -6.225   2.010  25.973  0.00  0.00    -0.380 OA
ATOM      6  C   UNL     1      -3.772   2.393  24.517  0.00  0.00    +0.061 C 
ATOM      7  C   UNL     1      -4.317   3.438  25.496  0.00  0.00    +0.047 C 
ATOM      8  C   UNL     1      -4.300   1.003  24.885  0.00  0.00    +0.047 C 
ATOM     12  C   UNL     1      -5.834   3.330  25.594  0.00  0.00    +0.161 C 
ATOM     13  C   UNL     1      -5.818   1.032  25.017  0.00  0.00    +0.161 C 
ENDBRANCH   5   6
BRANCH  11   3
ATOM      3  O   UNL     1       0.074  -0.362  23.709  0.00  0.00    -0.371 OA
BRANCH   3  16
ATOM     16  C   UNL     1       0.892   0.055  22.626  0.00  0.00    +0.188 C 
BRANCH  16  17
ATOM     17  C   UNL     1       2.310  -0.425  22.864  0.00  0.00    +0.187 C 
BRANCH  17   4
ATOM      4  O   UNL     1       3.220   0.553  22.374  0.00  0.00    -0.381 OA
ATOM     18  C   UNL     1       4.462   0.500  23.060  0.00  0.00    +0.194 C 
ENDBRANCH  17   4
ENDBRANCH  16  17
ENDBRANCH   3  16
ENDBRANCH  11   3
TORSDOF 5
ENDMDL
MODEL 10
REMARK VINA RESULT:      -4.2      1.678      4.560
REMARK  Name = 75367811
REMARK  6 active torsions:
REMARK  status: ('A' for Active; 'I' for Inactive)
REMARK    1  A    between atoms: O_3  and  C_11
REMARK    2  A    between atoms: O_3  and  C_16
REMARK    3  A    between atoms: O_4  and  C_17
REMARK    4  A    between atoms: O_4  and  C_18
REMARK    5  A    between atoms: N_5  and  C_6
REMARK    6  A    between atoms: C_16  and  C_17
REMARK                            x       y       z     vdW  Elec       q    Type
REMARK                         _______ _______ _______ _____ _____    ______ ____
ROOT
ATOM      2  O   UNL     1      -1.842   5.467  24.875  0.00  0.00    -0.376 OA
ATOM      5  N   UNL     1      -1.121   2.447  25.174  0.00  0.00    -0.295 NA
ATOM      9  C   UNL     1      -2.548   2.311  24.857  0.00  0.00    +0.118 C 
ATOM     10  C   UNL     1      -0.431   3.490  24.414  0.00  0.00    +0.113 C 
ATOM     11  C   UNL     1      -3.341   3.593  24.559  0.00  0.00    +0.158 C 
ATOM     14  C   UNL     1      -0.590   4.839  25.117  0.00  0.00    +0.175 C 
ATOM     15  C   UNL     1      -2.961   4.783  25.429  0.00  0.00    +0.192 C 
ENDROOT
BRANCH   5   6
ATOM      1  O   UNL     1      -0.473  -1.544  24.035  0.00  0.00    -0.380 OA
ATOM      6  C   UNL     1      -0.450   1.154  25.040  0.00  0.00    +0.061 C 
ATOM      7  C   UNL     1      -0.178   0.823  23.569  0.00  0.00    +0.047 C 
ATOM      8  C   UNL     1      -1.293   0.047  25.679  0.00  0.00    +0.047 C 
ATOM     12  C   UNL     1       0.398  -0.582  23.440  0.00  0.00    +0.161 C 
ATOM     13  C   UNL     1      -0.655  -1.315  25.432  0.00  0.00    +0.161 C 
ENDBRANCH   5   6
BRANCH  11   3
ATOM      3  O   UNL     1      -4.726   3.317  24.771  0.00  0.00    -0.371 OA
BRANCH   3  16
ATOM     16  C   UNL     1      -4.902   2.218  25.652  0.00  0.00    +0.188 C 
BRANCH  16  17
ATOM     17  C   UNL     1      -5.382   1.019  24.858  0.00  0.00    +0.187 C 
BRANCH  17   4
ATOM      4  O   UNL     1      -4.619  -0.122  25.232  0.00  0.00    -0.381 OA
ATOM     18  C   UNL     1      -4.339  -0.951  24.113  0.00  0.00    +0.194 C 
ENDBRANCH  17   4
ENDBRANCH  16  17
ENDBRANCH   3  16
ENDBRANCH  11   3
TORSDOF 5
ENDMDL
