MODEL 1
REMARK VINA RESULT:      -2.8      0.000      0.000
REMARK  Name = 7143818
REMARK  5 active torsions:
REMARK  status: ('A' for Active; 'I' for Inactive)
REMARK    1  A    between atoms: S_1  and  N_7
REMARK    2  A    between atoms: S_1  and  C_20
REMARK    3  A    between atoms: O_6  and  C_27
REMARK    4  A    between atoms: O_6  and  C_30
REMARK    5  A    between atoms: C_18  and  C_21
REMARK                            x       y       z     vdW  Elec       q    Type
REMARK                         _______ _______ _______ _____ _____    ______ ____
ROOT
ATOM      4  O   UNL     1      10.658  -7.077  30.993  0.00  0.00    -0.267 OA
ATOM      7  N   UNL     1      15.441  -7.936  29.884  0.00  0.00    -0.176 NA
ATOM      8  N   UNL     1      12.860  -7.481  31.648  0.00  0.00    -0.311 N 
ATOM      9  C   UNL     1      14.776  -5.867  31.113  0.00  0.00    +0.025 C 
ATOM     10  C   UNL     1      15.233  -7.932  32.361  0.00  0.00    +0.052 C 
ATOM     11  C   UNL     1      15.405  -6.416  32.387  0.00  0.00    +0.017 C 
ATOM     12  C   UNL     1      15.475  -6.445  29.872  0.00  0.00    +0.114 C 
ATOM     13  C   UNL     1      15.982  -8.515  31.150  0.00  0.00    +0.119 C 
ATOM     14  C   UNL     1      13.272  -6.168  31.132  0.00  0.00    +0.130 C 
ATOM     15  C   UNL     1      13.766  -8.314  32.308  0.00  0.00    +0.026 A 
ATOM     16  C   UNL     1      13.341  -9.456  32.873  0.00  0.00    +0.022 A 
ATOM     17  C   UNL     1      11.493  -7.803  31.537  0.00  0.00    +0.262 A 
ATOM     18  C   UNL     1      11.055  -9.106  32.149  0.00  0.00    +0.082 A 
ATOM     19  C   UNL     1      11.966  -9.857  32.784  0.00  0.00    +0.018 A 
ENDROOT
BRANCH  18  21
ATOM      5  O   UNL     1       8.617  -8.876  32.604  0.00  0.00    -0.463 OA
ATOM     21  C   UNL     1       9.657  -9.564  32.050  0.00  0.00    +0.140 A 
ATOM     26  C   UNL     1       9.184 -10.697  31.416  0.00  0.00    +0.050 A 
ATOM     28  C   UNL     1       7.781 -10.701  31.594  0.00  0.00    +0.042 A 
ATOM     29  C   UNL     1       7.485  -9.572  32.323  0.00  0.00    +0.196 A 
ENDBRANCH  18  21
BRANCH   7   1
ATOM      1  S   UNL     1      15.956  -8.699  28.442  0.00  0.00    +0.061 S 
ATOM      2  O   UNL     1      14.821  -9.339  27.813  0.00  0.00    -0.153 OA
ATOM      3  O   UNL     1      17.174  -9.436  28.708  0.00  0.00    -0.153 OA
BRANCH   1  20
ATOM     20  C   UNL     1      16.380  -7.283  27.477  0.00  0.00    +0.106 A 
ATOM     22  C   UNL     1      16.018  -7.239  26.141  0.00  0.00    +0.032 A 
ATOM     23  C   UNL     1      17.069  -6.238  28.073  0.00  0.00    +0.032 A 
ATOM     24  C   UNL     1      16.353  -6.120  25.378  0.00  0.00    +0.047 A 
ATOM     25  C   UNL     1      17.405  -5.119  27.310  0.00  0.00    +0.047 A 
ATOM     27  C   UNL     1      17.046  -5.060  25.963  0.00  0.00    +0.120 A 
BRANCH  27   6
ATOM      6  O   UNL     1      17.373  -3.967  25.219  0.00  0.00    -0.495 OA
ATOM     30  C   UNL     1      17.040  -4.002  23.833  0.00  0.00    +0.277 C 
ENDBRANCH  27   6
ENDBRANCH   1  20
ENDBRANCH   7   1
TORSDOF 4
ENDMDL
MODEL 2
REMARK VINA RESULT:       1.1     17.342     20.484
REMARK  Name = 7143818
REMARK  5 active torsions:
REMARK  status: ('A' for Active; 'I' for Inactive)
REMARK    1  A    between atoms: S_1  and  N_7
REMARK    2  A    between atoms: S_1  and  C_20
REMARK    3  A    between atoms: O_6  and  C_27
REMARK    4  A    between atoms: O_6  and  C_30
REMARK    5  A    between atoms: C_18  and  C_21
REMARK                            x       y       z     vdW  Elec       q    Type
REMARK                         _______ _______ _______ _____ _____    ______ ____
ROOT
ATOM      4  O   UNL     1       0.267   1.968  25.978  0.00  0.00    -0.267 OA
ATOM      7  N   UNL     1      -4.641   2.692  25.500  0.00  0.00    -0.176 NA
ATOM      8  N   UNL     1      -1.541   3.167  25.122  0.00  0.00    -0.311 N 
ATOM      9  C   UNL     1      -3.210   4.403  26.621  0.00  0.00    +0.025 C 
ATOM     10  C   UNL     1      -3.489   4.457  24.182  0.00  0.00    +0.052 C 
ATOM     11  C   UNL     1      -3.378   5.333  25.427  0.00  0.00    +0.017 C 
ATOM     12  C   UNL     1      -4.424   3.468  26.754  0.00  0.00    +0.114 C 
ATOM     13  C   UNL     1      -4.737   3.563  24.291  0.00  0.00    +0.119 C 
ATOM     14  C   UNL     1      -1.892   3.633  26.471  0.00  0.00    +0.130 C 
ATOM     15  C   UNL     1      -2.246   3.607  23.999  0.00  0.00    +0.026 A 
ATOM     16  C   UNL     1      -1.835   3.261  22.768  0.00  0.00    +0.022 A 
ATOM     17  C   UNL     1      -0.401   2.347  25.014  0.00  0.00    +0.262 A 
ATOM     18  C   UNL     1       0.013   1.946  23.623  0.00  0.00    +0.082 A 
ATOM     19  C   UNL     1      -0.692   2.413  22.583  0.00  0.00    +0.018 A 
ENDROOT
BRANCH  18  21
ATOM      5  O   UNL     1       2.453   1.496  23.411  0.00  0.00    -0.463 OA
ATOM     21  C   UNL     1       1.163   1.052  23.397  0.00  0.00    +0.140 A 
ATOM     26  C   UNL     1       1.138  -0.307  23.148  0.00  0.00    +0.050 A 
ATOM     28  C   UNL     1       2.485  -0.714  23.003  0.00  0.00    +0.042 A 
ATOM     29  C   UNL     1       3.246   0.419  23.172  0.00  0.00    +0.196 A 
ENDBRANCH  18  21
BRANCH   7   1
ATOM      1  S   UNL     1      -5.798   1.434  25.600  0.00  0.00    +0.061 S 
ATOM      2  O   UNL     1      -6.754   1.583  24.523  0.00  0.00    -0.153 OA
ATOM      3  O   UNL     1      -6.237   1.307  26.974  0.00  0.00    -0.153 OA
BRANCH   1  20
ATOM     20  C   UNL     1      -4.777   0.044  25.226  0.00  0.00    +0.106 A 
ATOM     22  C   UNL     1      -5.071  -0.736  24.120  0.00  0.00    +0.032 A 
ATOM     23  C   UNL     1      -3.697  -0.245  26.046  0.00  0.00    +0.032 A 
ATOM     24  C   UNL     1      -4.264  -1.835  23.825  0.00  0.00    +0.047 A 
ATOM     25  C   UNL     1      -2.890  -1.344  25.751  0.00  0.00    +0.047 A 
ATOM     27  C   UNL     1      -3.174  -2.139  24.640  0.00  0.00    +0.120 A 
BRANCH  27   6
ATOM      6  O   UNL     1      -2.386  -3.211  24.352  0.00  0.00    -0.495 OA
ATOM     30  C   UNL     1      -0.983  -2.975  24.244  0.00  0.00    +0.277 C 
ENDBRANCH  27   6
ENDBRANCH   1  20
ENDBRANCH   7   1
TORSDOF 4
ENDMDL
