MODEL 1
REMARK VINA RESULT:      -2.7      0.000      0.000
REMARK  Name = 45784297
REMARK  5 active torsions:
REMARK  status: ('A' for Active; 'I' for Inactive)
REMARK    1  A    between atoms: O_1  and  C_19
REMARK    2  A    between atoms: O_1  and  C_23
REMARK    3  A    between atoms: N_2  and  C_11
REMARK    4  A    between atoms: C_6  and  C_10
REMARK    5  A    between atoms: C_11  and  C_12
REMARK                            x       y       z     vdW  Elec       q    Type
REMARK                         _______ _______ _______ _____ _____    ______ ____
ROOT
ATOM      2  N   UNL     1      -3.712   1.844  25.181  0.00  0.00    -0.297 NA
ATOM      6  C   UNL     1      -1.455   2.247  24.687  0.00  0.00    +0.070 C 
ATOM      7  C   UNL     1      -2.345   3.100  23.765  0.00  0.00    +0.028 C 
ATOM      8  C   UNL     1      -2.403   1.193  25.275  0.00  0.00    +0.096 C 
ATOM      9  C   UNL     1      -3.728   2.469  23.859  0.00  0.00    +0.085 C 
ENDROOT
BRANCH   6  10
ATOM      3  N   UNL     1       1.024   2.012  24.373  0.00  0.00    -0.341 N 
ATOM      4  N   UNL     1      -0.242   0.737  23.064  0.00  0.00    -0.232 NA
ATOM     10  C   UNL     1      -0.243   1.641  24.017  0.00  0.00    +0.113 A 
ATOM     13  C   UNL     1       1.901   1.298  23.597  0.00  0.00    +0.070 A 
ATOM     14  C   UNL     1       1.087   0.510  22.789  0.00  0.00    +0.089 A 
ATOM     15  C   UNL     1       3.295   1.276  23.536  0.00  0.00    +0.073 A 
ATOM     16  C   UNL     1       1.681  -0.359  21.859  0.00  0.00    +0.033 A 
ATOM     19  C   UNL     1       3.869   0.405  22.603  0.00  0.00    +0.122 A 
ATOM     20  C   UNL     1       3.078  -0.398  21.779  0.00  0.00    +0.048 A 
ATOM     24  H   UNL     1       1.274   2.690  25.080  0.00  0.00    +0.167 HD
BRANCH  19   1
ATOM      1  O   UNL     1       5.228   0.341  22.499  0.00  0.00    -0.495 OA
ATOM     23  C   UNL     1       5.938  -0.179  23.622  0.00  0.00    +0.277 C 
ENDBRANCH  19   1
ENDBRANCH   6  10
BRANCH   2  11
ATOM     11  C   UNL     1      -4.811   0.908  25.365  0.00  0.00    +0.121 C 
BRANCH  11  12
ATOM      5  N   UNL     1      -3.320  -2.539  25.833  0.00  0.00    -0.263 NA
ATOM     12  C   UNL     1      -4.395  -0.510  25.078  0.00  0.00    -0.015 A 
ATOM     17  C   UNL     1      -4.673  -1.105  23.852  0.00  0.00    +0.008 A 
ATOM     18  C   UNL     1      -3.722  -1.263  26.026  0.00  0.00    +0.115 A 
ATOM     21  C   UNL     1      -4.274  -2.416  23.615  0.00  0.00    +0.020 A 
ATOM     22  C   UNL     1      -3.607  -3.083  24.629  0.00  0.00    +0.111 A 
ENDBRANCH  11  12
ENDBRANCH   2  11
TORSDOF 4
ENDMDL
MODEL 2
REMARK VINA RESULT:      -2.1      3.419      7.893
REMARK  Name = 45784297
REMARK  5 active torsions:
REMARK  status: ('A' for Active; 'I' for Inactive)
REMARK    1  A    between atoms: O_1  and  C_19
REMARK    2  A    between atoms: O_1  and  C_23
REMARK    3  A    between atoms: N_2  and  C_11
REMARK    4  A    between atoms: C_6  and  C_10
REMARK    5  A    between atoms: C_11  and  C_12
REMARK                            x       y       z     vdW  Elec       q    Type
REMARK                         _______ _______ _______ _____ _____    ______ ____
ROOT
ATOM      2  N   UNL     1       0.718  -0.658  23.690  0.00  0.00    -0.297 NA
ATOM      6  C   UNL     1      -1.148  -0.304  25.065  0.00  0.00    +0.070 C 
ATOM      7  C   UNL     1      -1.231  -1.706  24.436  0.00  0.00    +0.028 C 
ATOM      8  C   UNL     1      -0.093   0.435  24.229  0.00  0.00    +0.096 C 
ATOM      9  C   UNL     1      -0.248  -1.674  23.273  0.00  0.00    +0.085 C 
ENDROOT
BRANCH   6  10
ATOM      3  N   UNL     1      -2.511   1.769  25.448  0.00  0.00    -0.341 N 
ATOM      4  N   UNL     1      -3.660  -0.064  24.938  0.00  0.00    -0.232 NA
ATOM     10  C   UNL     1      -2.463   0.437  25.141  0.00  0.00    +0.113 A 
ATOM     13  C   UNL     1      -3.828   2.152  25.441  0.00  0.00    +0.070 A 
ATOM     14  C   UNL     1      -4.525   0.990  25.121  0.00  0.00    +0.089 A 
ATOM     15  C   UNL     1      -4.450   3.378  25.683  0.00  0.00    +0.073 A 
ATOM     16  C   UNL     1      -5.926   1.036  25.029  0.00  0.00    +0.033 A 
ATOM     19  C   UNL     1      -5.845   3.404  25.587  0.00  0.00    +0.122 A 
ATOM     20  C   UNL     1      -6.572   2.255  25.267  0.00  0.00    +0.048 A 
ATOM     24  H   UNL     1      -1.720   2.367  25.645  0.00  0.00    +0.167 HD
BRANCH  19   1
ATOM      1  O   UNL     1      -6.507   4.576  25.812  0.00  0.00    -0.495 OA
ATOM     23  C   UNL     1      -6.068   5.717  25.078  0.00  0.00    +0.277 C 
ENDBRANCH  19   1
ENDBRANCH   6  10
BRANCH   2  11
ATOM     11  C   UNL     1       1.574  -0.226  22.595  0.00  0.00    +0.121 C 
BRANCH  11  12
ATOM      5  N   UNL     1       4.933  -1.332  23.946  0.00  0.00    -0.263 NA
ATOM     12  C   UNL     1       3.025  -0.191  22.996  0.00  0.00    -0.015 A 
ATOM     17  C   UNL     1       3.792   0.953  22.811  0.00  0.00    +0.008 A 
ATOM     18  C   UNL     1       3.636  -1.297  23.563  0.00  0.00    +0.115 A 
ATOM     21  C   UNL     1       5.129   0.957  23.193  0.00  0.00    +0.020 A 
ATOM     22  C   UNL     1       5.646  -0.200  23.751  0.00  0.00    +0.111 A 
ENDBRANCH  11  12
ENDBRANCH   2  11
TORSDOF 4
ENDMDL
MODEL 3
REMARK VINA RESULT:      -1.8      1.594      3.485
REMARK  Name = 45784297
REMARK  5 active torsions:
REMARK  status: ('A' for Active; 'I' for Inactive)
REMARK    1  A    between atoms: O_1  and  C_19
REMARK    2  A    between atoms: O_1  and  C_23
REMARK    3  A    between atoms: N_2  and  C_11
REMARK    4  A    between atoms: C_6  and  C_10
REMARK    5  A    between atoms: C_11  and  C_12
REMARK                            x       y       z     vdW  Elec       q    Type
REMARK                         _______ _______ _______ _____ _____    ______ ____
ROOT
ATOM      2  N   UNL     1      -4.479  -0.644  24.692  0.00  0.00    -0.297 NA
ATOM      6  C   UNL     1      -2.232  -1.146  24.244  0.00  0.00    +0.070 C 
ATOM      7  C   UNL     1      -2.517  -1.353  25.742  0.00  0.00    +0.028 C 
ATOM      8  C   UNL     1      -3.421  -0.319  23.733  0.00  0.00    +0.096 C 
ATOM      9  C   UNL     1      -3.825  -0.616  26.000  0.00  0.00    +0.085 C 
ENDROOT
BRANCH   6  10
ATOM      3  N   UNL     1       0.171  -1.264  23.532  0.00  0.00    -0.341 N 
ATOM      4  N   UNL     1      -0.599   0.767  24.004  0.00  0.00    -0.232 NA
ATOM     10  C   UNL     1      -0.897  -0.511  23.934  0.00  0.00    +0.113 A 
ATOM     13  C   UNL     1       1.229  -0.414  23.329  0.00  0.00    +0.070 A 
ATOM     14  C   UNL     1       0.723   0.847  23.631  0.00  0.00    +0.089 A 
ATOM     15  C   UNL     1       2.545  -0.636  22.921  0.00  0.00    +0.073 A 
ATOM     16  C   UNL     1       1.566   1.966  23.524  0.00  0.00    +0.033 A 
ATOM     19  C   UNL     1       3.369   0.490  22.820  0.00  0.00    +0.122 A 
ATOM     20  C   UNL     1       2.891   1.768  23.116  0.00  0.00    +0.048 A 
ATOM     24  H   UNL     1       0.184  -2.267  23.405  0.00  0.00    +0.167 HD
BRANCH  19   1
ATOM      1  O   UNL     1       4.666   0.335  22.425  0.00  0.00    -0.495 OA
ATOM     23  C   UNL     1       5.620   0.036  23.442  0.00  0.00    +0.277 C 
ENDBRANCH  19   1
ENDBRANCH   6  10
BRANCH   2  11
ATOM     11  C   UNL     1      -5.601   0.279  24.614  0.00  0.00    +0.121 C 
BRANCH  11  12
ATOM      5  N   UNL     1      -5.403   3.768  26.071  0.00  0.00    -0.263 NA
ATOM     12  C   UNL     1      -5.170   1.706  24.830  0.00  0.00    -0.015 A 
ATOM     17  C   UNL     1      -4.188   2.286  24.036  0.00  0.00    +0.008 A 
ATOM     18  C   UNL     1      -5.742   2.482  25.825  0.00  0.00    +0.115 A 
ATOM     21  C   UNL     1      -3.812   3.606  24.258  0.00  0.00    +0.020 A 
ATOM     22  C   UNL     1      -4.444   4.297  25.278  0.00  0.00    +0.111 A 
ENDBRANCH  11  12
ENDBRANCH   2  11
TORSDOF 4
ENDMDL
MODEL 4
REMARK VINA RESULT:      -0.5      1.635      3.629
REMARK  Name = 45784297
REMARK  5 active torsions:
REMARK  status: ('A' for Active; 'I' for Inactive)
REMARK    1  A    between atoms: O_1  and  C_19
REMARK    2  A    between atoms: O_1  and  C_23
REMARK    3  A    between atoms: N_2  and  C_11
REMARK    4  A    between atoms: C_6  and  C_10
REMARK    5  A    between atoms: C_11  and  C_12
REMARK                            x       y       z     vdW  Elec       q    Type
REMARK                         _______ _______ _______ _____ _____    ______ ____
ROOT
ATOM      2  N   UNL     1      -3.506  -0.407  24.816  0.00  0.00    -0.297 NA
ATOM      6  C   UNL     1      -1.437  -1.028  23.902  0.00  0.00    +0.070 C 
ATOM      7  C   UNL     1      -1.639  -1.739  25.252  0.00  0.00    +0.028 C 
ATOM      8  C   UNL     1      -2.484   0.096  23.895  0.00  0.00    +0.096 C 
ATOM      9  C   UNL     1      -2.758  -0.969  25.940  0.00  0.00    +0.085 C 
ENDROOT
BRANCH   6  10
ATOM      3  N   UNL     1       1.045  -1.360  23.752  0.00  0.00    -0.341 N 
ATOM      4  N   UNL     1       0.317   0.697  23.326  0.00  0.00    -0.232 NA
ATOM     10  C   UNL     1      -0.034  -0.527  23.651  0.00  0.00    +0.113 A 
ATOM     13  C   UNL     1       2.168  -0.623  23.471  0.00  0.00    +0.070 A 
ATOM     14  C   UNL     1       1.687   0.656  23.209  0.00  0.00    +0.089 A 
ATOM     15  C   UNL     1       3.523  -0.957  23.427  0.00  0.00    +0.073 A 
ATOM     16  C   UNL     1       2.596   1.676  22.880  0.00  0.00    +0.033 A 
ATOM     19  C   UNL     1       4.413   0.070  23.098  0.00  0.00    +0.122 A 
ATOM     20  C   UNL     1       3.961   1.363  22.829  0.00  0.00    +0.048 A 
ATOM     24  H   UNL     1       1.025  -2.342  23.990  0.00  0.00    +0.167 HD
BRANCH  19   1
ATOM      1  O   UNL     1       5.749  -0.199  23.039  0.00  0.00    -0.495 OA
ATOM     23  C   UNL     1       6.346  -0.769  24.202  0.00  0.00    +0.277 C 
ENDBRANCH  19   1
ENDBRANCH   6  10
BRANCH   2  11
ATOM     11  C   UNL     1      -4.435   0.632  25.234  0.00  0.00    +0.121 C 
BRANCH  11  12
ATOM      5  N   UNL     1      -4.010   4.232  24.140  0.00  0.00    -0.263 NA
ATOM     12  C   UNL     1      -3.845   2.009  25.077  0.00  0.00    -0.015 A 
ATOM     17  C   UNL     1      -2.641   2.346  25.684  0.00  0.00    +0.008 A 
ATOM     18  C   UNL     1      -4.485   2.979  24.322  0.00  0.00    +0.115 A 
ATOM     21  C   UNL     1      -2.119   3.624  25.520  0.00  0.00    +0.020 A 
ATOM     22  C   UNL     1      -2.836   4.522  24.745  0.00  0.00    +0.111 A 
ENDBRANCH  11  12
ENDBRANCH   2  11
TORSDOF 4
ENDMDL
MODEL 5
REMARK VINA RESULT:      -0.4      3.415      7.919
REMARK  Name = 45784297
REMARK  5 active torsions:
REMARK  status: ('A' for Active; 'I' for Inactive)
REMARK    1  A    between atoms: O_1  and  C_19
REMARK    2  A    between atoms: O_1  and  C_23
REMARK    3  A    between atoms: N_2  and  C_11
REMARK    4  A    between atoms: C_6  and  C_10
REMARK    5  A    between atoms: C_11  and  C_12
REMARK                            x       y       z     vdW  Elec       q    Type
REMARK                         _______ _______ _______ _____ _____    ______ ____
ROOT
ATOM      2  N   UNL     1       1.269  -0.540  23.052  0.00  0.00    -0.297 NA
ATOM      6  C   UNL     1      -0.524  -0.045  24.481  0.00  0.00    +0.070 C 
ATOM      7  C   UNL     1      -1.008  -0.967  23.348  0.00  0.00    +0.028 C 
ATOM      8  C   UNL     1       0.829   0.492  23.993  0.00  0.00    +0.096 C 
ATOM      9  C   UNL     1       0.074  -0.879  22.279  0.00  0.00    +0.085 C 
ENDROOT
BRANCH   6  10
ATOM      3  N   UNL     1      -2.837   0.909  24.678  0.00  0.00    -0.341 N 
ATOM      4  N   UNL     1      -1.187   2.218  25.390  0.00  0.00    -0.232 NA
ATOM     10  C   UNL     1      -1.490   1.053  24.863  0.00  0.00    +0.113 A 
ATOM     13  C   UNL     1      -3.443   2.060  25.115  0.00  0.00    +0.070 A 
ATOM     14  C   UNL     1      -2.393   2.860  25.554  0.00  0.00    +0.089 A 
ATOM     15  C   UNL     1      -4.780   2.456  25.161  0.00  0.00    +0.073 A 
ATOM     16  C   UNL     1      -2.673   4.134  26.074  0.00  0.00    +0.033 A 
ATOM     19  C   UNL     1      -5.041   3.728  25.682  0.00  0.00    +0.122 A 
ATOM     20  C   UNL     1      -4.008   4.553  26.131  0.00  0.00    +0.048 A 
ATOM     24  H   UNL     1      -3.306   0.103  24.289  0.00  0.00    +0.167 HD
BRANCH  19   1
ATOM      1  O   UNL     1      -6.331   4.168  25.752  0.00  0.00    -0.495 OA
ATOM     23  C   UNL     1      -6.584   5.499  25.307  0.00  0.00    +0.277 C 
ENDBRANCH  19   1
ENDBRANCH   6  10
BRANCH   2  11
ATOM     11  C   UNL     1       2.365  -0.090  22.207  0.00  0.00    +0.121 C 
BRANCH  11  12
ATOM      5  N   UNL     1       5.790   0.832  23.531  0.00  0.00    -0.263 NA
ATOM     12  C   UNL     1       3.694  -0.199  22.907  0.00  0.00    -0.015 A 
ATOM     17  C   UNL     1       4.069  -1.370  23.554  0.00  0.00    +0.008 A 
ATOM     18  C   UNL     1       4.582   0.864  22.924  0.00  0.00    +0.115 A 
ATOM     21  C   UNL     1       5.304  -1.443  24.190  0.00  0.00    +0.020 A 
ATOM     22  C   UNL     1       6.119  -0.324  24.150  0.00  0.00    +0.111 A 
ENDBRANCH  11  12
ENDBRANCH   2  11
TORSDOF 4
ENDMDL
MODEL 6
REMARK VINA RESULT:       0.0      1.872      3.868
REMARK  Name = 45784297
REMARK  5 active torsions:
REMARK  status: ('A' for Active; 'I' for Inactive)
REMARK    1  A    between atoms: O_1  and  C_19
REMARK    2  A    between atoms: O_1  and  C_23
REMARK    3  A    between atoms: N_2  and  C_11
REMARK    4  A    between atoms: C_6  and  C_10
REMARK    5  A    between atoms: C_11  and  C_12
REMARK                            x       y       z     vdW  Elec       q    Type
REMARK                         _______ _______ _______ _____ _____    ______ ____
ROOT
ATOM      2  N   UNL     1      -4.831   0.746  24.690  0.00  0.00    -0.297 NA
ATOM      6  C   UNL     1      -2.998  -0.544  24.002  0.00  0.00    +0.070 C 
ATOM      7  C   UNL     1      -3.507  -1.057  25.361  0.00  0.00    +0.028 C 
ATOM      8  C   UNL     1      -3.639   0.841  23.844  0.00  0.00    +0.096 C 
ATOM      9  C   UNL     1      -4.379   0.068  25.904  0.00  0.00    +0.085 C 
ENDROOT
BRANCH   6  10
ATOM      3  N   UNL     1      -0.836   0.627  23.499  0.00  0.00    -0.341 N 
ATOM      4  N   UNL     1      -0.668  -1.521  24.042  0.00  0.00    -0.232 NA
ATOM     10  C   UNL     1      -1.494  -0.517  23.858  0.00  0.00    +0.113 A 
ATOM     13  C   UNL     1       0.504   0.341  23.450  0.00  0.00    +0.070 A 
ATOM     14  C   UNL     1       0.584  -1.006  23.793  0.00  0.00    +0.089 A 
ATOM     15  C   UNL     1       1.620   1.121  23.143  0.00  0.00    +0.073 A 
ATOM     16  C   UNL     1       1.842  -1.628  23.839  0.00  0.00    +0.033 A 
ATOM     19  C   UNL     1       2.865   0.485  23.194  0.00  0.00    +0.122 A 
ATOM     20  C   UNL     1       2.976  -0.865  23.535  0.00  0.00    +0.048 A 
ATOM     24  H   UNL     1      -1.258   1.525  23.304  0.00  0.00    +0.167 HD
BRANCH  19   1
ATOM      1  O   UNL     1       3.991   1.198  22.905  0.00  0.00    -0.495 OA
ATOM     23  C   UNL     1       5.224   0.695  23.416  0.00  0.00    +0.277 C 
ENDBRANCH  19   1
ENDBRANCH   6  10
BRANCH   2  11
ATOM     11  C   UNL     1      -5.419   2.048  24.969  0.00  0.00    +0.121 C 
BRANCH  11  12
ATOM      5  N   UNL     1      -2.842   4.687  24.120  0.00  0.00    -0.263 NA
ATOM     12  C   UNL     1      -4.368   3.114  25.138  0.00  0.00    -0.015 A 
ATOM     17  C   UNL     1      -3.948   3.512  26.402  0.00  0.00    +0.008 A 
ATOM     18  C   UNL     1      -3.789   3.726  24.039  0.00  0.00    +0.115 A 
ATOM     21  C   UNL     1      -2.975   4.497  26.527  0.00  0.00    +0.020 A 
ATOM     22  C   UNL     1      -2.458   5.048  25.365  0.00  0.00    +0.111 A 
ENDBRANCH  11  12
ENDBRANCH   2  11
TORSDOF 4
ENDMDL
MODEL 7
REMARK VINA RESULT:       0.5      3.532      5.777
REMARK  Name = 45784297
REMARK  5 active torsions:
REMARK  status: ('A' for Active; 'I' for Inactive)
REMARK    1  A    between atoms: O_1  and  C_19
REMARK    2  A    between atoms: O_1  and  C_23
REMARK    3  A    between atoms: N_2  and  C_11
REMARK    4  A    between atoms: C_6  and  C_10
REMARK    5  A    between atoms: C_11  and  C_12
REMARK                            x       y       z     vdW  Elec       q    Type
REMARK                         _______ _______ _______ _____ _____    ______ ____
ROOT
ATOM      2  N   UNL     1      -5.119   4.054  25.268  0.00  0.00    -0.297 NA
ATOM      6  C   UNL     1      -5.328   1.809  24.621  0.00  0.00    +0.070 C 
ATOM      7  C   UNL     1      -6.111   2.044  25.924  0.00  0.00    +0.028 C 
ATOM      8  C   UNL     1      -4.409   3.033  24.493  0.00  0.00    +0.096 C 
ATOM      9  C   UNL     1      -5.578   3.361  26.472  0.00  0.00    +0.085 C 
ENDROOT
BRANCH   6  10
ATOM      3  N   UNL     1      -3.275   0.409  24.970  0.00  0.00    -0.341 N 
ATOM      4  N   UNL     1      -5.037  -0.652  24.127  0.00  0.00    -0.232 NA
ATOM     10  C   UNL     1      -4.576   0.500  24.558  0.00  0.00    +0.113 A 
ATOM     13  C   UNL     1      -2.872  -0.891  24.793  0.00  0.00    +0.070 A 
ATOM     14  C   UNL     1      -3.989  -1.532  24.266  0.00  0.00    +0.089 A 
ATOM     15  C   UNL     1      -1.661  -1.539  25.040  0.00  0.00    +0.073 A 
ATOM     16  C   UNL     1      -3.913  -2.901  23.963  0.00  0.00    +0.033 A 
ATOM     19  C   UNL     1      -1.604  -2.902  24.732  0.00  0.00    +0.122 A 
ATOM     20  C   UNL     1      -2.708  -3.573  24.203  0.00  0.00    +0.048 A 
ATOM     24  H   UNL     1      -2.709   1.160  25.339  0.00  0.00    +0.167 HD
BRANCH  19   1
ATOM      1  O   UNL     1      -0.445  -3.588  24.954  0.00  0.00    -0.495 OA
ATOM     23  C   UNL     1       0.648  -2.851  25.496  0.00  0.00    +0.277 C 
ENDBRANCH  19   1
ENDBRANCH   6  10
BRANCH   2  11
ATOM     11  C   UNL     1      -4.277   5.201  25.576  0.00  0.00    +0.121 C 
BRANCH  11  12
ATOM      5  N   UNL     1      -0.983   3.369  25.933  0.00  0.00    -0.263 NA
ATOM     12  C   UNL     1      -2.813   4.873  25.449  0.00  0.00    -0.015 A 
ATOM     17  C   UNL     1      -1.946   5.720  24.767  0.00  0.00    +0.008 A 
ATOM     18  C   UNL     1      -2.287   3.721  26.009  0.00  0.00    +0.115 A 
ATOM     21  C   UNL     1      -0.598   5.393  24.667  0.00  0.00    +0.020 A 
ATOM     22  C   UNL     1      -0.172   4.217  25.262  0.00  0.00    +0.111 A 
ENDBRANCH  11  12
ENDBRANCH   2  11
TORSDOF 4
ENDMDL
MODEL 8
REMARK VINA RESULT:       1.1      2.152      3.547
REMARK  Name = 45784297
REMARK  5 active torsions:
REMARK  status: ('A' for Active; 'I' for Inactive)
REMARK    1  A    between atoms: O_1  and  C_19
REMARK    2  A    between atoms: O_1  and  C_23
REMARK    3  A    between atoms: N_2  and  C_11
REMARK    4  A    between atoms: C_6  and  C_10
REMARK    5  A    between atoms: C_11  and  C_12
REMARK                            x       y       z     vdW  Elec       q    Type
REMARK                         _______ _______ _______ _____ _____    ______ ____
ROOT
ATOM      2  N   UNL     1      -1.692   1.526  24.208  0.00  0.00    -0.297 NA
ATOM      6  C   UNL     1       0.048   0.328  23.191  0.00  0.00    +0.070 C 
ATOM      7  C   UNL     1      -0.881  -0.647  23.936  0.00  0.00    +0.028 C 
ATOM      8  C   UNL     1      -0.315   1.712  23.747  0.00  0.00    +0.096 C 
ATOM      9  C   UNL     1      -1.692   0.228  24.883  0.00  0.00    +0.085 C 
ENDROOT
BRANCH   6  10
ATOM      3  N   UNL     1       2.470   0.983  23.128  0.00  0.00    -0.341 N 
ATOM      4  N   UNL     1       2.058  -1.154  23.579  0.00  0.00    -0.232 NA
ATOM     10  C   UNL     1       1.522   0.014  23.308  0.00  0.00    +0.113 A 
ATOM     13  C   UNL     1       3.700   0.400  23.295  0.00  0.00    +0.070 A 
ATOM     14  C   UNL     1       3.416  -0.934  23.576  0.00  0.00    +0.089 A 
ATOM     15  C   UNL     1       4.998   0.909  23.225  0.00  0.00    +0.073 A 
ATOM     16  C   UNL     1       4.477  -1.826  23.804  0.00  0.00    +0.033 A 
ATOM     19  C   UNL     1       6.041   0.006  23.456  0.00  0.00    +0.122 A 
ATOM     20  C   UNL     1       5.787  -1.337  23.740  0.00  0.00    +0.048 A 
ATOM     24  H   UNL     1       2.300   1.956  22.911  0.00  0.00    +0.167 HD
BRANCH  19   1
ATOM      1  O   UNL     1       7.330   0.449  23.402  0.00  0.00    -0.495 OA
ATOM     23  C   UNL     1       8.305  -0.464  22.901  0.00  0.00    +0.277 C 
ENDBRANCH  19   1
ENDBRANCH   6  10
BRANCH   2  11
ATOM     11  C   UNL     1      -2.135   2.603  25.081  0.00  0.00    +0.121 C 
BRANCH  11  12
ATOM      5  N   UNL     1      -5.623   3.878  25.818  0.00  0.00    -0.263 NA
ATOM     12  C   UNL     1      -3.636   2.647  25.201  0.00  0.00    -0.015 A 
ATOM     17  C   UNL     1      -4.416   1.557  24.834  0.00  0.00    +0.008 A 
ATOM     18  C   UNL     1      -4.281   3.774  25.684  0.00  0.00    +0.115 A 
ATOM     21  C   UNL     1      -5.799   1.626  24.958  0.00  0.00    +0.020 A 
ATOM     22  C   UNL     1      -6.348   2.798  25.451  0.00  0.00    +0.111 A 
ENDBRANCH  11  12
ENDBRANCH   2  11
TORSDOF 4
ENDMDL
MODEL 9
REMARK VINA RESULT:       1.1      3.443      7.903
REMARK  Name = 45784297
REMARK  5 active torsions:
REMARK  status: ('A' for Active; 'I' for Inactive)
REMARK    1  A    between atoms: O_1  and  C_19
REMARK    2  A    between atoms: O_1  and  C_23
REMARK    3  A    between atoms: N_2  and  C_11
REMARK    4  A    between atoms: C_6  and  C_10
REMARK    5  A    between atoms: C_11  and  C_12
REMARK                            x       y       z     vdW  Elec       q    Type
REMARK                         _______ _______ _______ _____ _____    ______ ____
ROOT
ATOM      2  N   UNL     1       0.941   0.901  22.987  0.00  0.00    -0.297 NA
ATOM      6  C   UNL     1      -0.878   2.359  23.238  0.00  0.00    +0.070 C 
ATOM      7  C   UNL     1       0.323   2.891  24.040  0.00  0.00    +0.028 C 
ATOM      8  C   UNL     1      -0.522   0.898  22.929  0.00  0.00    +0.096 C 
ATOM      9  C   UNL     1       1.271   1.705  24.163  0.00  0.00    +0.085 C 
ENDROOT
BRANCH   6  10
ATOM      3  N   UNL     1      -2.913   1.414  24.361  0.00  0.00    -0.341 N 
ATOM      4  N   UNL     1      -2.850   3.628  24.179  0.00  0.00    -0.232 NA
ATOM     10  C   UNL     1      -2.216   2.506  23.925  0.00  0.00    +0.113 A 
ATOM     13  C   UNL     1      -4.076   1.863  24.936  0.00  0.00    +0.070 A 
ATOM     14  C   UNL     1      -4.012   3.248  24.809  0.00  0.00    +0.089 A 
ATOM     15  C   UNL     1      -5.144   1.196  25.536  0.00  0.00    +0.073 A 
ATOM     16  C   UNL     1      -5.068   4.030  25.306  0.00  0.00    +0.033 A 
ATOM     19  C   UNL     1      -6.187   1.990  26.024  0.00  0.00    +0.122 A 
ATOM     20  C   UNL     1      -6.152   3.382  25.912  0.00  0.00    +0.048 A 
ATOM     24  H   UNL     1      -2.628   0.448  24.278  0.00  0.00    +0.167 HD
BRANCH  19   1
ATOM      1  O   UNL     1      -7.258   1.392  26.622  0.00  0.00    -0.495 OA
ATOM     23  C   UNL     1      -7.093   0.978  27.976  0.00  0.00    +0.277 C 
ENDBRANCH  19   1
ENDBRANCH   6  10
BRANCH   2  11
ATOM     11  C   UNL     1       1.496  -0.442  23.061  0.00  0.00    +0.121 C 
BRANCH  11  12
ATOM      5  N   UNL     1       4.984  -1.552  24.029  0.00  0.00    -0.263 NA
ATOM     12  C   UNL     1       2.989  -0.423  23.262  0.00  0.00    -0.015 A 
ATOM     17  C   UNL     1       3.747   0.683  22.895  0.00  0.00    +0.008 A 
ATOM     18  C   UNL     1       3.648  -1.505  23.821  0.00  0.00    +0.115 A 
ATOM     21  C   UNL     1       5.123   0.673  23.094  0.00  0.00    +0.020 A 
ATOM     22  C   UNL     1       5.687  -0.458  23.660  0.00  0.00    +0.111 A 
ENDBRANCH  11  12
ENDBRANCH   2  11
TORSDOF 4
ENDMDL
