MODEL 1
REMARK VINA RESULT:      -4.3      0.000      0.000
REMARK  Name = 38027630
REMARK  16 active torsions:
REMARK  status: ('A' for Active; 'I' for Inactive)
REMARK    1  A    between atoms: S_1  and  N_7
REMARK    2  A    between atoms: S_1  and  C_22
REMARK    3  A    between atoms: O_5  and  C_26
REMARK    4  A    between atoms: O_5  and  C_30
REMARK    5  A    between atoms: O_6  and  C_29
REMARK    6  A    between atoms: O_6  and  C_31
REMARK    7  A    between atoms: N_7  and  C_16
REMARK    8  A    between atoms: N_8  and  C_23
REMARK    9  A    between atoms: C_9  and  C_13
REMARK   10  A    between atoms: C_10  and  C_16
REMARK   11  A    between atoms: C_12  and  C_17
REMARK   12  A    between atoms: C_13  and  C_18
REMARK   13  A    between atoms: C_13  and  C_19
REMARK   14  A    between atoms: C_14  and  C_20
REMARK   15  A    between atoms: C_17  and  C_21
REMARK   16  A    between atoms: C_23  and  C_26
REMARK                            x       y       z     vdW  Elec       q    Type
REMARK                         _______ _______ _______ _____ _____    ______ ____
ROOT
ATOM      9  C   UNL     1      -2.420  -1.453  24.123  0.00  0.00    +0.000 C 
ATOM     10  C   UNL     1      -3.052  -0.528  25.193  0.00  0.00    +0.030 C 
ATOM     11  C   UNL     1      -0.903  -1.570  24.343  0.00  0.00    +0.012 C 
ATOM     12  C   UNL     1      -0.199  -0.201  24.283  0.00  0.00    +0.023 C 
ATOM     14  C   UNL     1      -0.925   0.842  25.108  0.00  0.00    -0.073 C 
ATOM     15  C   UNL     1      -2.195   0.673  25.518  0.00  0.00    -0.023 C 
ATOM     20  C   UNL     1      -0.142   2.067  25.491  0.00  0.00    +0.039 C 
ENDROOT
BRANCH   9  13
ATOM     13  C   UNL     1      -3.053  -2.848  24.132  0.00  0.00    -0.013 C 
ATOM     18  C   UNL     1      -3.250  -3.334  25.564  0.00  0.00    +0.007 C 
ATOM     19  C   UNL     1      -4.377  -2.837  23.377  0.00  0.00    +0.007 C 
ENDBRANCH   9  13
BRANCH  10  16
ATOM     16  C   UNL     1      -4.447  -0.060  24.765  0.00  0.00    +0.113 C 
BRANCH  16   7
ATOM      7  N   UNL     1      -5.127   0.543  25.923  0.00  0.00    -0.189 NA
ATOM     32  H   UNL     1      -5.497  -0.103  26.630  0.00  0.00    +0.148 HD
BRANCH   7   1
ATOM      1  S   UNL     1      -5.865   2.072  25.782  0.00  0.00    +0.058 S 
ATOM      3  O   UNL     1      -6.468   2.431  27.052  0.00  0.00    -0.153 OA
ATOM      4  O   UNL     1      -6.652   2.110  24.564  0.00  0.00    -0.153 OA
BRANCH   1  22
ATOM     22  C   UNL     1      -4.468   3.125  25.527  0.00  0.00    +0.105 A 
ATOM     24  C   UNL     1      -3.817   3.698  26.620  0.00  0.00    +0.032 A 
ATOM     25  C   UNL     1      -4.016   3.383  24.233  0.00  0.00    +0.032 A 
ATOM     27  C   UNL     1      -2.716   4.529  26.419  0.00  0.00    +0.047 A 
ATOM     28  C   UNL     1      -2.914   4.214  24.032  0.00  0.00    +0.047 A 
ATOM     29  C   UNL     1      -2.264   4.787  25.125  0.00  0.00    +0.120 A 
BRANCH  29   6
ATOM      6  O   UNL     1      -1.187   5.597  24.930  0.00  0.00    -0.495 OA
ATOM     31  C   UNL     1      -0.190   5.142  24.016  0.00  0.00    +0.277 C 
ENDBRANCH  29   6
ENDBRANCH   1  22
ENDBRANCH   7   1
ENDBRANCH  16   7
ENDBRANCH  10  16
BRANCH  12  17
ATOM     17  C   UNL     1      -0.027   0.268  22.833  0.00  0.00    +0.103 C 
BRANCH  17  21
ATOM      2  O   UNL     1       1.423  -0.598  21.100  0.00  0.00    -0.276 OA
ATOM      8  N   UNL     1       2.320  -0.034  23.170  0.00  0.00    -0.313 N 
ATOM     21  C   UNL     1       1.294  -0.174  22.246  0.00  0.00    +0.214 C 
ATOM     33  H   UNL     1       2.116   0.330  24.095  0.00  0.00    +0.149 HD
BRANCH   8  23
ATOM     23  C   UNL     1       3.693  -0.381  22.882  0.00  0.00    +0.132 C 
BRANCH  23  26
ATOM     26  C   UNL     1       4.601   0.834  22.948  0.00  0.00    +0.178 C 
BRANCH  26   5
ATOM      5  O   UNL     1       5.439   0.735  24.091  0.00  0.00    -0.381 OA
ATOM     30  C   UNL     1       5.684  -0.621  24.443  0.00  0.00    +0.194 C 
ENDBRANCH  26   5
ENDBRANCH  23  26
ENDBRANCH   8  23
ENDBRANCH  17  21
ENDBRANCH  12  17
TORSDOF 11
ENDMDL
MODEL 2
REMARK VINA RESULT:      -2.7      1.871      4.843
REMARK  Name = 38027630
REMARK  16 active torsions:
REMARK  status: ('A' for Active; 'I' for Inactive)
REMARK    1  A    between atoms: S_1  and  N_7
REMARK    2  A    between atoms: S_1  and  C_22
REMARK    3  A    between atoms: O_5  and  C_26
REMARK    4  A    between atoms: O_5  and  C_30
REMARK    5  A    between atoms: O_6  and  C_29
REMARK    6  A    between atoms: O_6  and  C_31
REMARK    7  A    between atoms: N_7  and  C_16
REMARK    8  A    between atoms: N_8  and  C_23
REMARK    9  A    between atoms: C_9  and  C_13
REMARK   10  A    between atoms: C_10  and  C_16
REMARK   11  A    between atoms: C_12  and  C_17
REMARK   12  A    between atoms: C_13  and  C_18
REMARK   13  A    between atoms: C_13  and  C_19
REMARK   14  A    between atoms: C_14  and  C_20
REMARK   15  A    between atoms: C_17  and  C_21
REMARK   16  A    between atoms: C_23  and  C_26
REMARK                            x       y       z     vdW  Elec       q    Type
REMARK                         _______ _______ _______ _____ _____    ______ ____
ROOT
ATOM      9  C   UNL     1      -2.165   3.476  24.935  0.00  0.00    +0.000 C 
ATOM     10  C   UNL     1      -3.305   3.812  23.942  0.00  0.00    +0.030 C 
ATOM     11  C   UNL     1      -0.897   3.058  24.174  0.00  0.00    +0.012 C 
ATOM     12  C   UNL     1      -1.136   1.833  23.272  0.00  0.00    +0.023 C 
ATOM     14  C   UNL     1      -2.402   1.977  22.451  0.00  0.00    -0.073 C 
ATOM     15  C   UNL     1      -3.353   2.876  22.757  0.00  0.00    -0.023 C 
ATOM     20  C   UNL     1      -2.527   1.092  21.241  0.00  0.00    +0.039 C 
ENDROOT
BRANCH   9  13
ATOM     13  C   UNL     1      -1.849   4.656  25.859  0.00  0.00    -0.013 C 
ATOM     18  C   UNL     1      -1.632   5.927  25.044  0.00  0.00    +0.007 C 
ATOM     19  C   UNL     1      -2.969   4.850  26.876  0.00  0.00    +0.007 C 
ENDBRANCH   9  13
BRANCH  10  16
ATOM     16  C   UNL     1      -4.668   3.818  24.644  0.00  0.00    +0.113 C 
BRANCH  16   7
ATOM      7  N   UNL     1      -4.686   2.760  25.666  0.00  0.00    -0.189 NA
ATOM     32  H   UNL     1      -3.798   2.562  26.143  0.00  0.00    +0.148 HD
BRANCH   7   1
ATOM      1  S   UNL     1      -5.836   1.506  25.581  0.00  0.00    +0.058 S 
ATOM      3  O   UNL     1      -6.663   1.694  24.403  0.00  0.00    -0.153 OA
ATOM      4  O   UNL     1      -6.450   1.336  26.884  0.00  0.00    -0.153 OA
BRANCH   1  22
ATOM     22  C   UNL     1      -4.809   0.094  25.305  0.00  0.00    +0.105 A 
ATOM     24  C   UNL     1      -3.974  -0.369  26.322  0.00  0.00    +0.032 A 
ATOM     25  C   UNL     1      -4.833  -0.557  24.072  0.00  0.00    +0.032 A 
ATOM     27  C   UNL     1      -3.163  -1.483  26.105  0.00  0.00    +0.047 A 
ATOM     28  C   UNL     1      -4.022  -1.671  23.855  0.00  0.00    +0.047 A 
ATOM     29  C   UNL     1      -3.187  -2.134  24.872  0.00  0.00    +0.120 A 
BRANCH  29   6
ATOM      6  O   UNL     1      -2.397  -3.222  24.662  0.00  0.00    -0.495 OA
ATOM     31  C   UNL     1      -1.779  -3.339  23.382  0.00  0.00    +0.277 C 
ENDBRANCH  29   6
ENDBRANCH   1  22
ENDBRANCH   7   1
ENDBRANCH  16   7
ENDBRANCH  10  16
BRANCH  12  17
ATOM     17  C   UNL     1      -1.158   0.539  24.093  0.00  0.00    +0.103 C 
BRANCH  17  21
ATOM      2  O   UNL     1       0.358  -1.288  24.563  0.00  0.00    -0.276 OA
ATOM      8  N   UNL     1       0.995   0.376  23.069  0.00  0.00    -0.313 N 
ATOM     21  C   UNL     1       0.128  -0.243  23.957  0.00  0.00    +0.214 C 
ATOM     33  H   UNL     1       0.714   1.238  22.612  0.00  0.00    +0.149 HD
BRANCH   8  23
ATOM     23  C   UNL     1       2.301  -0.149  22.745  0.00  0.00    +0.132 C 
BRANCH  23  26
ATOM     26  C   UNL     1       3.360   0.938  22.766  0.00  0.00    +0.178 C 
BRANCH  26   5
ATOM      5  O   UNL     1       4.641   0.352  22.573  0.00  0.00    -0.381 OA
ATOM     30  C   UNL     1       5.332   0.191  23.805  0.00  0.00    +0.194 C 
ENDBRANCH  26   5
ENDBRANCH  23  26
ENDBRANCH   8  23
ENDBRANCH  17  21
ENDBRANCH  12  17
TORSDOF 11
ENDMDL
MODEL 3
REMARK VINA RESULT:      -1.1      2.092      6.910
REMARK  Name = 38027630
REMARK  16 active torsions:
REMARK  status: ('A' for Active; 'I' for Inactive)
REMARK    1  A    between atoms: S_1  and  N_7
REMARK    2  A    between atoms: S_1  and  C_22
REMARK    3  A    between atoms: O_5  and  C_26
REMARK    4  A    between atoms: O_5  and  C_30
REMARK    5  A    between atoms: O_6  and  C_29
REMARK    6  A    between atoms: O_6  and  C_31
REMARK    7  A    between atoms: N_7  and  C_16
REMARK    8  A    between atoms: N_8  and  C_23
REMARK    9  A    between atoms: C_9  and  C_13
REMARK   10  A    between atoms: C_10  and  C_16
REMARK   11  A    between atoms: C_12  and  C_17
REMARK   12  A    between atoms: C_13  and  C_18
REMARK   13  A    between atoms: C_13  and  C_19
REMARK   14  A    between atoms: C_14  and  C_20
REMARK   15  A    between atoms: C_17  and  C_21
REMARK   16  A    between atoms: C_23  and  C_26
REMARK                            x       y       z     vdW  Elec       q    Type
REMARK                         _______ _______ _______ _____ _____    ______ ____
ROOT
ATOM      9  C   UNL     1      -3.187  -0.889  24.913  0.00  0.00    +0.000 C 
ATOM     10  C   UNL     1      -2.025  -0.304  24.074  0.00  0.00    +0.030 C 
ATOM     11  C   UNL     1      -4.541  -0.525  24.281  0.00  0.00    +0.012 C 
ATOM     12  C   UNL     1      -4.739   0.998  24.167  0.00  0.00    +0.023 C 
ATOM     14  C   UNL     1      -3.516   1.684  23.591  0.00  0.00    -0.073 C 
ATOM     15  C   UNL     1      -2.315   1.081  23.545  0.00  0.00    -0.023 C 
ATOM     20  C   UNL     1      -3.717   3.063  23.027  0.00  0.00    +0.039 C 
ENDROOT
BRANCH   9  13
ATOM     13  C   UNL     1      -3.076  -2.410  25.057  0.00  0.00    -0.013 C 
ATOM     18  C   UNL     1      -4.147  -3.104  24.221  0.00  0.00    +0.007 C 
ATOM     19  C   UNL     1      -1.684  -2.883  24.653  0.00  0.00    +0.007 C 
ENDBRANCH   9  13
BRANCH  10  16
ATOM     16  C   UNL     1      -0.719  -0.281  24.877  0.00  0.00    +0.113 C 
BRANCH  16   7
ATOM      7  N   UNL     1       0.369  -0.813  24.041  0.00  0.00    -0.189 NA
ATOM     32  H   UNL     1       0.950  -1.553  24.454  0.00  0.00    +0.148 HD
BRANCH   7   1
ATOM      1  S   UNL     1       1.064   0.153  22.823  0.00  0.00    +0.058 S 
ATOM      3  O   UNL     1       0.718   1.542  23.057  0.00  0.00    -0.153 OA
ATOM      4  O   UNL     1       0.807  -0.455  21.531  0.00  0.00    -0.153 OA
BRANCH   1  22
ATOM     22  C   UNL     1       2.791  -0.041  23.151  0.00  0.00    +0.105 A 
ATOM     24  C   UNL     1       3.668   1.018  22.916  0.00  0.00    +0.032 A 
ATOM     25  C   UNL     1       3.275  -1.252  23.643  0.00  0.00    +0.032 A 
ATOM     27  C   UNL     1       5.030   0.865  23.174  0.00  0.00    +0.047 A 
ATOM     28  C   UNL     1       4.637  -1.406  23.900  0.00  0.00    +0.047 A 
ATOM     29  C   UNL     1       5.515  -0.347  23.666  0.00  0.00    +0.120 A 
BRANCH  29   6
ATOM      6  O   UNL     1       6.844  -0.494  23.919  0.00  0.00    -0.495 OA
ATOM     31  C   UNL     1       7.709  -0.629  22.794  0.00  0.00    +0.277 C 
ENDBRANCH  29   6
ENDBRANCH   1  22
ENDBRANCH   7   1
ENDBRANCH  16   7
ENDBRANCH  10  16
BRANCH  12  17
ATOM     17  C   UNL     1      -5.123   1.607  25.521  0.00  0.00    +0.103 C 
BRANCH  17  21
ATOM      2  O   UNL     1      -5.499   3.993  25.363  0.00  0.00    -0.276 OA
ATOM      8  N   UNL     1      -3.418   3.202  26.031  0.00  0.00    -0.313 N 
ATOM     21  C   UNL     1      -4.735   3.065  25.619  0.00  0.00    +0.214 C 
ATOM     33  H   UNL     1      -2.863   2.373  26.224  0.00  0.00    +0.149 HD
BRANCH   8  23
ATOM     23  C   UNL     1      -2.776   4.484  26.211  0.00  0.00    +0.132 C 
BRANCH  23  26
ATOM     26  C   UNL     1      -1.462   4.561  25.456  0.00  0.00    +0.178 C 
BRANCH  26   5
ATOM      5  O   UNL     1      -0.957   3.249  25.253  0.00  0.00    -0.381 OA
ATOM     30  C   UNL     1      -0.023   2.888  26.262  0.00  0.00    +0.194 C 
ENDBRANCH  26   5
ENDBRANCH  23  26
ENDBRANCH   8  23
ENDBRANCH  17  21
ENDBRANCH  12  17
TORSDOF 11
ENDMDL
