MODEL 1
REMARK VINA RESULT:      -4.7      0.000      0.000
REMARK  Name = 75536769
REMARK  7 active torsions:
REMARK  status: ('A' for Active; 'I' for Inactive)
REMARK    1  A    between atoms: O_2  and  C_9
REMARK    2  A    between atoms: N_4  and  C_8
REMARK    3  A    between atoms: N_4  and  C_13
REMARK    4  A    between atoms: N_5  and  C_12
REMARK    5  A    between atoms: N_6  and  C_18
REMARK    6  A    between atoms: C_10  and  C_12
REMARK    7  A    between atoms: C_13  and  C_14
REMARK                            x       y       z     vdW  Elec       q    Type
REMARK                         _______ _______ _______ _____ _____    ______ ____
ROOT
ATOM      1  O   UNL     1      -4.707   0.037  25.198  0.00  0.00    -0.371 OA
ATOM      8  C   UNL     1      -4.796   2.228  24.284  0.00  0.00    +0.111 C 
ATOM      9  C   UNL     1      -3.461   1.601  23.934  0.00  0.00    +0.164 C 
ATOM     10  C   UNL     1      -3.779   0.121  24.104  0.00  0.00    +0.165 C 
ATOM     11  C   UNL     1      -5.250   1.348  25.438  0.00  0.00    +0.181 C 
ENDROOT
BRANCH   9   2
ATOM      2  O   UNL     1      -3.045   1.902  22.615  0.00  0.00    -0.388 OA
ATOM     27  H   UNL     1      -3.489   2.719  22.334  0.00  0.00    +0.210 HD
ENDBRANCH   9   2
BRANCH   8   4
ATOM      4  N   UNL     1      -4.704   3.633  24.647  0.00  0.00    -0.303 NA
ATOM     26  H   UNL     1      -5.645   4.011  24.763  0.00  0.00    +0.123 HD
BRANCH   4  13
ATOM     13  C   UNL     1      -3.970   3.807  25.895  0.00  0.00    +0.137 C 
BRANCH  13  14
ATOM      7  N   UNL     1      -1.819   2.708  26.184  0.00  0.00    -0.259 NA
ATOM     14  C   UNL     1      -2.480   3.772  25.679  0.00  0.00    +0.055 A 
ATOM     16  C   UNL     1      -1.872   4.808  24.987  0.00  0.00    +0.024 A 
ATOM     17  C   UNL     1      -0.495   4.746  24.802  0.00  0.00    +0.003 A 
ATOM     19  C   UNL     1      -0.481   2.683  25.985  0.00  0.00    +0.111 A 
ATOM     20  C   UNL     1       0.221   3.667  25.308  0.00  0.00    +0.020 A 
ENDBRANCH  13  14
ENDBRANCH   4  13
ENDBRANCH   8   4
BRANCH  10  12
ATOM     12  C   UNL     1      -2.554  -0.725  24.404  0.00  0.00    +0.140 C 
BRANCH  12   5
ATOM      3  O   UNL     1       0.188  -1.276  25.018  0.00  0.00    -0.253 OA
ATOM      5  N   UNL     1      -1.403  -0.250  23.691  0.00  0.00    -0.297 N 
ATOM      6  N   UNL     1       0.825   0.039  23.180  0.00  0.00    -0.269 N 
ATOM     15  C   UNL     1      -0.084  -0.564  24.055  0.00  0.00    +0.304 C 
ATOM     28  H   UNL     1      -1.553   0.356  22.890  0.00  0.00    +0.150 HD
ATOM     29  H   UNL     1       0.431   0.600  22.430  0.00  0.00    +0.156 HD
BRANCH   6  18
ATOM     18  C   UNL     1       2.237  -0.036  23.209  0.00  0.00    +0.035 A 
ATOM     21  C   UNL     1       3.001   1.068  22.832  0.00  0.00    +0.023 A 
ATOM     22  C   UNL     1       2.865  -1.214  23.614  0.00  0.00    +0.023 A 
ATOM     23  C   UNL     1       4.394   0.996  22.861  0.00  0.00    +0.002 A 
ATOM     24  C   UNL     1       4.258  -1.286  23.643  0.00  0.00    +0.002 A 
ATOM     25  C   UNL     1       5.022  -0.182  23.266  0.00  0.00    +0.000 A 
ENDBRANCH   6  18
ENDBRANCH  12   5
ENDBRANCH  10  12
TORSDOF 7
ENDMDL
MODEL 2
REMARK VINA RESULT:      -4.5     15.685     18.138
REMARK  Name = 75536769
REMARK  7 active torsions:
REMARK  status: ('A' for Active; 'I' for Inactive)
REMARK    1  A    between atoms: O_2  and  C_9
REMARK    2  A    between atoms: N_4  and  C_8
REMARK    3  A    between atoms: N_4  and  C_13
REMARK    4  A    between atoms: N_5  and  C_12
REMARK    5  A    between atoms: N_6  and  C_18
REMARK    6  A    between atoms: C_10  and  C_12
REMARK    7  A    between atoms: C_13  and  C_14
REMARK                            x       y       z     vdW  Elec       q    Type
REMARK                         _______ _______ _______ _____ _____    ______ ____
ROOT
ATOM      1  O   UNL     1      -6.360  -8.333  10.612  0.00  0.00    -0.371 OA
ATOM      8  C   UNL     1      -4.194  -8.918   9.831  0.00  0.00    +0.111 C 
ATOM      9  C   UNL     1      -5.126 -10.099   9.636  0.00  0.00    +0.164 C 
ATOM     10  C   UNL     1      -6.483  -9.410   9.669  0.00  0.00    +0.165 C 
ATOM     11  C   UNL     1      -4.962  -8.094  10.853  0.00  0.00    +0.181 C 
ENDROOT
BRANCH   9   2
ATOM      2  O   UNL     1      -4.905 -10.771   8.410  0.00  0.00    -0.388 OA
ATOM     27  H   UNL     1      -4.711 -11.704   8.603  0.00  0.00    +0.210 HD
ENDBRANCH   9   2
BRANCH   8   4
ATOM      4  N   UNL     1      -2.865  -9.292  10.289  0.00  0.00    -0.303 NA
ATOM     26  H   UNL     1      -2.553  -8.621  10.991  0.00  0.00    +0.123 HD
BRANCH   4  13
ATOM     13  C   UNL     1      -2.869 -10.625  10.880  0.00  0.00    +0.137 C 
BRANCH  13  14
ATOM      7  N   UNL     1      -1.645 -10.321  12.960  0.00  0.00    -0.259 NA
ATOM     14  C   UNL     1      -2.842 -10.571  12.384  0.00  0.00    +0.055 A 
ATOM     16  C   UNL     1      -4.017 -10.775  13.091  0.00  0.00    +0.024 A 
ATOM     17  C   UNL     1      -3.959 -10.717  14.479  0.00  0.00    +0.003 A 
ATOM     19  C   UNL     1      -1.629 -10.272  14.312  0.00  0.00    +0.111 A 
ATOM     20  C   UNL     1      -2.746 -10.461  15.109  0.00  0.00    +0.020 A 
ENDBRANCH  13  14
ENDBRANCH   4  13
ENDBRANCH   8   4
BRANCH  10  12
ATOM     12  C   UNL     1      -7.614 -10.332  10.087  0.00  0.00    +0.140 C 
BRANCH  12   5
ATOM      3  O   UNL     1      -9.059  -9.299  12.333  0.00  0.00    -0.253 OA
ATOM      5  N   UNL     1      -7.478 -10.740  11.455  0.00  0.00    -0.297 N 
ATOM      6  N   UNL     1      -7.877 -10.776  13.724  0.00  0.00    -0.269 N 
ATOM     15  C   UNL     1      -8.224 -10.183  12.506  0.00  0.00    +0.304 C 
ATOM     28  H   UNL     1      -6.794 -11.458  11.675  0.00  0.00    +0.150 HD
ATOM     29  H   UNL     1      -7.162 -11.497  13.692  0.00  0.00    +0.156 HD
BRANCH   6  18
ATOM     18  C   UNL     1      -8.401 -10.492  15.007  0.00  0.00    +0.035 A 
ATOM     21  C   UNL     1      -9.736 -10.775  15.293  0.00  0.00    +0.023 A 
ATOM     22  C   UNL     1      -7.582  -9.929  15.986  0.00  0.00    +0.023 A 
ATOM     23  C   UNL     1     -10.254 -10.496  16.558  0.00  0.00    +0.002 A 
ATOM     24  C   UNL     1      -8.100  -9.650  17.251  0.00  0.00    +0.002 A 
ATOM     25  C   UNL     1      -9.436  -9.932  17.537  0.00  0.00    +0.000 A 
ENDBRANCH   6  18
ENDBRANCH  12   5
ENDBRANCH  10  12
TORSDOF 7
ENDMDL
MODEL 3
REMARK VINA RESULT:      -4.2      2.189      5.483
REMARK  Name = 75536769
REMARK  7 active torsions:
REMARK  status: ('A' for Active; 'I' for Inactive)
REMARK    1  A    between atoms: O_2  and  C_9
REMARK    2  A    between atoms: N_4  and  C_8
REMARK    3  A    between atoms: N_4  and  C_13
REMARK    4  A    between atoms: N_5  and  C_12
REMARK    5  A    between atoms: N_6  and  C_18
REMARK    6  A    between atoms: C_10  and  C_12
REMARK    7  A    between atoms: C_13  and  C_14
REMARK                            x       y       z     vdW  Elec       q    Type
REMARK                         _______ _______ _______ _____ _____    ______ ____
ROOT
ATOM      1  O   UNL     1      -3.608   4.025  26.815  0.00  0.00    -0.371 OA
ATOM      8  C   UNL     1      -1.929   4.615  25.242  0.00  0.00    +0.111 C 
ATOM      9  C   UNL     1      -3.231   4.368  24.505  0.00  0.00    +0.164 C 
ATOM     10  C   UNL     1      -4.242   4.538  25.632  0.00  0.00    +0.165 C 
ATOM     11  C   UNL     1      -2.195   3.918  26.567  0.00  0.00    +0.181 C 
ENDROOT
BRANCH   9   2
ATOM      2  O   UNL     1      -3.450   5.293  23.458  0.00  0.00    -0.388 OA
ATOM     27  H   UNL     1      -4.339   5.142  23.096  0.00  0.00    +0.210 HD
ENDBRANCH   9   2
BRANCH   8   4
ATOM      4  N   UNL     1      -0.760   4.092  24.552  0.00  0.00    -0.303 NA
ATOM     26  H   UNL     1      -0.128   4.863  24.335  0.00  0.00    +0.123 HD
BRANCH   4  13
ATOM     13  C   UNL     1      -0.052   3.121  25.379  0.00  0.00    +0.137 C 
BRANCH  13  14
ATOM      7  N   UNL     1       1.203   1.697  23.859  0.00  0.00    -0.259 NA
ATOM     14  C   UNL     1       0.128   1.806  24.670  0.00  0.00    +0.055 A 
ATOM     16  C   UNL     1      -0.794   0.792  24.877  0.00  0.00    +0.024 A 
ATOM     17  C   UNL     1      -0.599  -0.411  24.209  0.00  0.00    +0.003 A 
ATOM     19  C   UNL     1       1.359   0.512  23.226  0.00  0.00    +0.111 A 
ATOM     20  C   UNL     1       0.496  -0.562  23.365  0.00  0.00    +0.020 A 
ENDBRANCH  13  14
ENDBRANCH   4  13
ENDBRANCH   8   4
BRANCH  10  12
ATOM     12  C   UNL     1      -5.545   3.799  25.386  0.00  0.00    +0.140 C 
BRANCH  12   5
ATOM      3  O   UNL     1      -4.087   1.766  23.992  0.00  0.00    -0.253 OA
ATOM      5  N   UNL     1      -5.439   2.416  25.752  0.00  0.00    -0.297 N 
ATOM      6  N   UNL     1      -4.781   0.212  25.610  0.00  0.00    -0.269 N 
ATOM     15  C   UNL     1      -4.702   1.475  25.015  0.00  0.00    +0.304 C 
ATOM     28  H   UNL     1      -5.934   2.101  26.581  0.00  0.00    +0.150 HD
ATOM     29  H   UNL     1      -5.336   0.143  26.459  0.00  0.00    +0.156 HD
BRANCH   6  18
ATOM     18  C   UNL     1      -4.181  -0.991  25.173  0.00  0.00    +0.035 A 
ATOM     21  C   UNL     1      -4.494  -1.512  23.918  0.00  0.00    +0.023 A 
ATOM     22  C   UNL     1      -3.275  -1.659  25.998  0.00  0.00    +0.023 A 
ATOM     23  C   UNL     1      -3.902  -2.699  23.486  0.00  0.00    +0.002 A 
ATOM     24  C   UNL     1      -2.683  -2.846  25.566  0.00  0.00    +0.002 A 
ATOM     25  C   UNL     1      -2.997  -3.366  24.311  0.00  0.00    +0.000 A 
ENDBRANCH   6  18
ENDBRANCH  12   5
ENDBRANCH  10  12
TORSDOF 7
ENDMDL
MODEL 4
REMARK VINA RESULT:      -4.0      2.090      4.140
REMARK  Name = 75536769
REMARK  7 active torsions:
REMARK  status: ('A' for Active; 'I' for Inactive)
REMARK    1  A    between atoms: O_2  and  C_9
REMARK    2  A    between atoms: N_4  and  C_8
REMARK    3  A    between atoms: N_4  and  C_13
REMARK    4  A    between atoms: N_5  and  C_12
REMARK    5  A    between atoms: N_6  and  C_18
REMARK    6  A    between atoms: C_10  and  C_12
REMARK    7  A    between atoms: C_13  and  C_14
REMARK                            x       y       z     vdW  Elec       q    Type
REMARK                         _______ _______ _______ _____ _____    ______ ____
ROOT
ATOM      1  O   UNL     1      -3.402   4.214  23.886  0.00  0.00    -0.371 OA
ATOM      8  C   UNL     1      -4.833   2.927  25.279  0.00  0.00    +0.111 C 
ATOM      9  C   UNL     1      -3.627   3.370  26.084  0.00  0.00    +0.164 C 
ATOM     10  C   UNL     1      -3.141   4.553  25.257  0.00  0.00    +0.165 C 
ATOM     11  C   UNL     1      -4.331   3.116  23.856  0.00  0.00    +0.181 C 
ENDROOT
BRANCH   9   2
ATOM      2  O   UNL     1      -3.963   3.753  27.404  0.00  0.00    -0.388 OA
ATOM     27  H   UNL     1      -4.915   3.608  27.532  0.00  0.00    +0.210 HD
ENDBRANCH   9   2
BRANCH   8   4
ATOM      4  N   UNL     1      -5.250   1.562  25.555  0.00  0.00    -0.303 NA
ATOM     26  H   UNL     1      -6.230   1.564  25.840  0.00  0.00    +0.123 HD
BRANCH   4  13
ATOM     13  C   UNL     1      -5.105   0.718  24.374  0.00  0.00    +0.137 C 
BRANCH  13  14
ATOM      7  N   UNL     1      -2.916   0.042  25.193  0.00  0.00    -0.259 NA
ATOM     14  C   UNL     1      -4.052  -0.340  24.569  0.00  0.00    +0.055 A 
ATOM     16  C   UNL     1      -4.291  -1.626  24.110  0.00  0.00    +0.024 A 
ATOM     17  C   UNL     1      -3.300  -2.581  24.306  0.00  0.00    +0.003 A 
ATOM     19  C   UNL     1      -1.976  -0.914  25.366  0.00  0.00    +0.111 A 
ATOM     20  C   UNL     1      -2.117  -2.227  24.945  0.00  0.00    +0.020 A 
ENDBRANCH  13  14
ENDBRANCH   4  13
ENDBRANCH   8   4
BRANCH  10  12
ATOM     12  C   UNL     1      -1.663   4.847  25.441  0.00  0.00    +0.140 C 
BRANCH  12   5
ATOM      3  O   UNL     1      -0.202   3.808  23.208  0.00  0.00    -0.253 OA
ATOM      5  N   UNL     1      -0.883   3.643  25.412  0.00  0.00    -0.297 N 
ATOM      6  N   UNL     1       0.476   1.998  24.542  0.00  0.00    -0.269 N 
ATOM     15  C   UNL     1      -0.193   3.197  24.274  0.00  0.00    +0.304 C 
ATOM     28  H   UNL     1      -0.842   3.079  26.255  0.00  0.00    +0.150 HD
ATOM     29  H   UNL     1       0.379   1.623  25.482  0.00  0.00    +0.156 HD
BRANCH   6  18
ATOM     18  C   UNL     1       1.277   1.236  23.661  0.00  0.00    +0.035 A 
ATOM     21  C   UNL     1       2.624   1.555  23.490  0.00  0.00    +0.023 A 
ATOM     22  C   UNL     1       0.720   0.165  22.961  0.00  0.00    +0.023 A 
ATOM     23  C   UNL     1       3.415   0.804  22.621  0.00  0.00    +0.002 A 
ATOM     24  C   UNL     1       1.511  -0.586  22.092  0.00  0.00    +0.002 A 
ATOM     25  C   UNL     1       2.858  -0.267  21.921  0.00  0.00    +0.000 A 
ENDBRANCH   6  18
ENDBRANCH  12   5
ENDBRANCH  10  12
TORSDOF 7
ENDMDL
MODEL 5
REMARK VINA RESULT:      -3.6     15.317     17.609
REMARK  Name = 75536769
REMARK  7 active torsions:
REMARK  status: ('A' for Active; 'I' for Inactive)
REMARK    1  A    between atoms: O_2  and  C_9
REMARK    2  A    between atoms: N_4  and  C_8
REMARK    3  A    between atoms: N_4  and  C_13
REMARK    4  A    between atoms: N_5  and  C_12
REMARK    5  A    between atoms: N_6  and  C_18
REMARK    6  A    between atoms: C_10  and  C_12
REMARK    7  A    between atoms: C_13  and  C_14
REMARK                            x       y       z     vdW  Elec       q    Type
REMARK                         _______ _______ _______ _____ _____    ______ ____
ROOT
ATOM      1  O   UNL     1      -6.841  -8.402  11.900  0.00  0.00    -0.371 OA
ATOM      8  C   UNL     1      -5.734  -8.861   9.849  0.00  0.00    +0.111 C 
ATOM      9  C   UNL     1      -6.948  -9.763   9.968  0.00  0.00    +0.164 C 
ATOM     10  C   UNL     1      -7.779  -9.001  10.992  0.00  0.00    +0.165 C 
ATOM     11  C   UNL     1      -5.537  -8.428  11.293  0.00  0.00    +0.181 C 
ENDROOT
BRANCH   9   2
ATOM      2  O   UNL     1      -7.635  -9.919   8.742  0.00  0.00    -0.388 OA
ATOM     27  H   UNL     1      -7.104 -10.491   8.163  0.00  0.00    +0.210 HD
ENDBRANCH   9   2
BRANCH   8   4
ATOM      4  N   UNL     1      -4.566  -9.525   9.292  0.00  0.00    -0.303 NA
ATOM     26  H   UNL     1      -3.786  -8.867   9.273  0.00  0.00    +0.123 HD
BRANCH   4  13
ATOM     13  C   UNL     1      -4.187 -10.681  10.095  0.00  0.00    +0.137 C 
BRANCH  13  14
ATOM      7  N   UNL     1      -3.382 -10.776  12.389  0.00  0.00    -0.259 NA
ATOM     14  C   UNL     1      -3.155 -10.329  11.134  0.00  0.00    +0.055 A 
ATOM     16  C   UNL     1      -2.049  -9.581  10.764  0.00  0.00    +0.024 A 
ATOM     17  C   UNL     1      -1.114  -9.273  11.746  0.00  0.00    +0.003 A 
ATOM     19  C   UNL     1      -2.451 -10.457  13.316  0.00  0.00    +0.111 A 
ATOM     20  C   UNL     1      -1.312  -9.715  13.049  0.00  0.00    +0.020 A 
ENDBRANCH  13  14
ENDBRANCH   4  13
ENDBRANCH   8   4
BRANCH  10  12
ATOM     12  C   UNL     1      -8.744  -9.887  11.760  0.00  0.00    +0.140 C 
BRANCH  12   5
ATOM      3  O   UNL     1      -8.723  -8.921  14.456  0.00  0.00    -0.253 OA
ATOM      5  N   UNL     1      -8.104 -10.503  12.887  0.00  0.00    -0.297 N 
ATOM      6  N   UNL     1      -7.429 -10.781  15.072  0.00  0.00    -0.269 N 
ATOM     15  C   UNL     1      -8.138  -9.966  14.184  0.00  0.00    +0.304 C 
ATOM     28  H   UNL     1      -7.589 -11.365  12.732  0.00  0.00    +0.150 HD
ATOM     29  H   UNL     1      -7.001 -11.616  14.681  0.00  0.00    +0.156 HD
BRANCH   6  18
ATOM     18  C   UNL     1      -7.231 -10.586  16.458  0.00  0.00    +0.035 A 
ATOM     21  C   UNL     1      -5.949 -10.341  16.952  0.00  0.00    +0.023 A 
ATOM     22  C   UNL     1      -8.316 -10.638  17.333  0.00  0.00    +0.023 A 
ATOM     23  C   UNL     1      -5.753 -10.147  18.319  0.00  0.00    +0.002 A 
ATOM     24  C   UNL     1      -8.120 -10.445  18.700  0.00  0.00    +0.002 A 
ATOM     25  C   UNL     1      -6.838 -10.200  19.194  0.00  0.00    +0.000 A 
ENDBRANCH   6  18
ENDBRANCH  12   5
ENDBRANCH  10  12
TORSDOF 7
ENDMDL
MODEL 6
REMARK VINA RESULT:      -3.2      1.843      3.770
REMARK  Name = 75536769
REMARK  7 active torsions:
REMARK  status: ('A' for Active; 'I' for Inactive)
REMARK    1  A    between atoms: O_2  and  C_9
REMARK    2  A    between atoms: N_4  and  C_8
REMARK    3  A    between atoms: N_4  and  C_13
REMARK    4  A    between atoms: N_5  and  C_12
REMARK    5  A    between atoms: N_6  and  C_18
REMARK    6  A    between atoms: C_10  and  C_12
REMARK    7  A    between atoms: C_13  and  C_14
REMARK                            x       y       z     vdW  Elec       q    Type
REMARK                         _______ _______ _______ _____ _____    ______ ____
ROOT
ATOM      1  O   UNL     1      -2.583   2.537  22.985  0.00  0.00    -0.371 OA
ATOM      8  C   UNL     1      -4.500   1.988  24.276  0.00  0.00    +0.111 C 
ATOM      9  C   UNL     1      -3.469   2.644  25.176  0.00  0.00    +0.164 C 
ATOM     10  C   UNL     1      -2.610   3.375  24.152  0.00  0.00    +0.165 C 
ATOM     11  C   UNL     1      -3.644   1.571  23.091  0.00  0.00    +0.181 C 
ENDROOT
BRANCH   9   2
ATOM      2  O   UNL     1      -4.049   3.535  26.109  0.00  0.00    -0.388 OA
ATOM     27  H   UNL     1      -4.368   4.318  25.629  0.00  0.00    +0.210 HD
ENDBRANCH   9   2
BRANCH   8   4
ATOM      4  N   UNL     1      -5.190   0.869  24.898  0.00  0.00    -0.303 NA
ATOM     26  H   UNL     1      -5.391   0.165  24.188  0.00  0.00    +0.123 HD
BRANCH   4  13
ATOM     13  C   UNL     1      -4.372   0.263  25.943  0.00  0.00    +0.137 C 
BRANCH  13  14
ATOM      7  N   UNL     1      -3.971  -1.801  24.721  0.00  0.00    -0.259 NA
ATOM     14  C   UNL     1      -3.421  -0.761  25.387  0.00  0.00    +0.055 A 
ATOM     16  C   UNL     1      -2.058  -0.595  25.578  0.00  0.00    +0.024 A 
ATOM     17  C   UNL     1      -1.205  -1.559  25.051  0.00  0.00    +0.003 A 
ATOM     19  C   UNL     1      -3.109  -2.717  24.222  0.00  0.00    +0.111 A 
ATOM     20  C   UNL     1      -1.733  -2.643  24.359  0.00  0.00    +0.020 A 
ENDBRANCH  13  14
ENDBRANCH   4  13
ENDBRANCH   8   4
BRANCH  10  12
ATOM     12  C   UNL     1      -1.194   3.633  24.633  0.00  0.00    +0.140 C 
BRANCH  12   5
ATOM      3  O   UNL     1       0.895   1.860  25.468  0.00  0.00    -0.253 OA
ATOM      5  N   UNL     1      -0.230   2.986  23.790  0.00  0.00    -0.297 N 
ATOM      6  N   UNL     1       1.559   1.647  23.225  0.00  0.00    -0.269 N 
ATOM     15  C   UNL     1       0.769   2.126  24.275  0.00  0.00    +0.304 C 
ATOM     28  H   UNL     1      -0.265   3.172  22.792  0.00  0.00    +0.150 HD
ATOM     29  H   UNL     1       1.319   1.969  22.292  0.00  0.00    +0.156 HD
BRANCH   6  18
ATOM     18  C   UNL     1       2.660   0.763  23.302  0.00  0.00    +0.035 A 
ATOM     21  C   UNL     1       2.448  -0.595  23.538  0.00  0.00    +0.023 A 
ATOM     22  C   UNL     1       3.958   1.250  23.143  0.00  0.00    +0.023 A 
ATOM     23  C   UNL     1       3.534  -1.468  23.614  0.00  0.00    +0.002 A 
ATOM     24  C   UNL     1       5.043   0.377  23.219  0.00  0.00    +0.002 A 
ATOM     25  C   UNL     1       4.832  -0.981  23.455  0.00  0.00    +0.000 A 
ENDBRANCH   6  18
ENDBRANCH  12   5
ENDBRANCH  10  12
TORSDOF 7
ENDMDL
MODEL 7
REMARK VINA RESULT:      -3.1      2.520      5.989
REMARK  Name = 75536769
REMARK  7 active torsions:
REMARK  status: ('A' for Active; 'I' for Inactive)
REMARK    1  A    between atoms: O_2  and  C_9
REMARK    2  A    between atoms: N_4  and  C_8
REMARK    3  A    between atoms: N_4  and  C_13
REMARK    4  A    between atoms: N_5  and  C_12
REMARK    5  A    between atoms: N_6  and  C_18
REMARK    6  A    between atoms: C_10  and  C_12
REMARK    7  A    between atoms: C_13  and  C_14
REMARK                            x       y       z     vdW  Elec       q    Type
REMARK                         _______ _______ _______ _____ _____    ______ ____
ROOT
ATOM      1  O   UNL     1      -1.382  -2.400  23.416  0.00  0.00    -0.371 OA
ATOM      8  C   UNL     1      -0.390  -1.059  25.108  0.00  0.00    +0.111 C 
ATOM      9  C   UNL     1      -1.876  -1.188  25.386  0.00  0.00    +0.164 C 
ATOM     10  C   UNL     1      -2.217  -2.437  24.585  0.00  0.00    +0.165 C 
ATOM     11  C   UNL     1      -0.324  -1.452  23.640  0.00  0.00    +0.181 C 
ENDROOT
BRANCH   9   2
ATOM      2  O   UNL     1      -2.161  -1.350  26.762  0.00  0.00    -0.388 OA
ATOM     27  H   UNL     1      -2.595  -0.543  27.083  0.00  0.00    +0.210 HD
ENDBRANCH   9   2
BRANCH   8   4
ATOM      4  N   UNL     1       0.138   0.271  25.362  0.00  0.00    -0.303 NA
ATOM     26  H   UNL     1       1.142   0.204  25.536  0.00  0.00    +0.123 HD
BRANCH   4  13
ATOM     13  C   UNL     1      -0.084   1.152  24.221  0.00  0.00    +0.137 C 
BRANCH  13  14
ATOM      7  N   UNL     1      -0.188   3.563  23.917  0.00  0.00    -0.259 NA
ATOM     14  C   UNL     1      -0.597   2.502  24.647  0.00  0.00    +0.055 A 
ATOM     16  C   UNL     1      -1.445   2.591  25.739  0.00  0.00    +0.024 A 
ATOM     17  C   UNL     1      -1.902   3.852  26.106  0.00  0.00    +0.003 A 
ATOM     19  C   UNL     1      -0.653   4.773  24.304  0.00  0.00    +0.111 A 
ATOM     20  C   UNL     1      -1.503   4.969  25.380  0.00  0.00    +0.020 A 
ENDBRANCH  13  14
ENDBRANCH   4  13
ENDBRANCH   8   4
BRANCH  10  12
ATOM     12  C   UNL     1      -3.677  -2.505  24.172  0.00  0.00    +0.140 C 
BRANCH  12   5
ATOM      3  O   UNL     1      -3.235   0.251  23.530  0.00  0.00    -0.253 OA
ATOM      5  N   UNL     1      -4.414  -1.380  24.671  0.00  0.00    -0.297 N 
ATOM      6  N   UNL     1      -5.015   0.827  24.950  0.00  0.00    -0.269 N 
ATOM     15  C   UNL     1      -4.136  -0.052  24.308  0.00  0.00    +0.304 C 
ATOM     28  H   UNL     1      -5.165  -1.554  25.331  0.00  0.00    +0.150 HD
ATOM     29  H   UNL     1      -5.706   0.410  25.567  0.00  0.00    +0.156 HD
BRANCH   6  18
ATOM     18  C   UNL     1      -5.060   2.237  24.847  0.00  0.00    +0.035 A 
ATOM     21  C   UNL     1      -4.370   2.883  23.822  0.00  0.00    +0.023 A 
ATOM     22  C   UNL     1      -5.794   2.981  25.771  0.00  0.00    +0.023 A 
ATOM     23  C   UNL     1      -4.414   4.274  23.719  0.00  0.00    +0.002 A 
ATOM     24  C   UNL     1      -5.838   4.371  25.669  0.00  0.00    +0.002 A 
ATOM     25  C   UNL     1      -5.148   5.018  24.643  0.00  0.00    +0.000 A 
ENDBRANCH   6  18
ENDBRANCH  12   5
ENDBRANCH  10  12
TORSDOF 7
ENDMDL
MODEL 8
REMARK VINA RESULT:      -2.7      2.705      4.879
REMARK  Name = 75536769
REMARK  7 active torsions:
REMARK  status: ('A' for Active; 'I' for Inactive)
REMARK    1  A    between atoms: O_2  and  C_9
REMARK    2  A    between atoms: N_4  and  C_8
REMARK    3  A    between atoms: N_4  and  C_13
REMARK    4  A    between atoms: N_5  and  C_12
REMARK    5  A    between atoms: N_6  and  C_18
REMARK    6  A    between atoms: C_10  and  C_12
REMARK    7  A    between atoms: C_13  and  C_14
REMARK                            x       y       z     vdW  Elec       q    Type
REMARK                         _______ _______ _______ _____ _____    ______ ____
ROOT
ATOM      1  O   UNL     1      -1.915  -1.697  26.489  0.00  0.00    -0.371 OA
ATOM      8  C   UNL     1      -3.751  -2.127  25.045  0.00  0.00    +0.111 C 
ATOM      9  C   UNL     1      -2.465  -2.201  24.244  0.00  0.00    +0.164 C 
ATOM     10  C   UNL     1      -1.445  -2.437  25.350  0.00  0.00    +0.165 C 
ATOM     11  C   UNL     1      -3.296  -1.358  26.275  0.00  0.00    +0.181 C 
ENDROOT
BRANCH   9   2
ATOM      2  O   UNL     1      -2.470  -3.254  23.300  0.00  0.00    -0.388 OA
ATOM     27  H   UNL     1      -3.372  -3.612  23.245  0.00  0.00    +0.210 HD
ENDBRANCH   9   2
BRANCH   8   4
ATOM      4  N   UNL     1      -4.841  -1.472  24.339  0.00  0.00    -0.303 NA
ATOM     26  H   UNL     1      -5.542  -1.169  25.016  0.00  0.00    +0.123 HD
BRANCH   4  13
ATOM     13  C   UNL     1      -4.364  -0.308  23.601  0.00  0.00    +0.137 C 
BRANCH  13  14
ATOM      7  N   UNL     1      -5.642   0.900  25.282  0.00  0.00    -0.259 NA
ATOM     14  C   UNL     1      -4.727   0.980  24.290  0.00  0.00    +0.055 A 
ATOM     16  C   UNL     1      -4.121   2.159  23.887  0.00  0.00    +0.024 A 
ATOM     17  C   UNL     1      -4.476   3.331  24.544  0.00  0.00    +0.003 A 
ATOM     19  C   UNL     1      -5.961   2.060  25.898  0.00  0.00    +0.111 A 
ATOM     20  C   UNL     1      -5.413   3.290  25.570  0.00  0.00    +0.020 A 
ENDBRANCH  13  14
ENDBRANCH   4  13
ENDBRANCH   8   4
BRANCH  10  12
ATOM     12  C   UNL     1      -0.045  -1.980  24.983  0.00  0.00    +0.140 C 
BRANCH  12   5
ATOM      3  O   UNL     1      -1.317   0.387  23.992  0.00  0.00    -0.253 OA
ATOM      5  N   UNL     1       0.195  -0.633  25.414  0.00  0.00    -0.297 N 
ATOM      6  N   UNL     1      -0.032   1.659  25.490  0.00  0.00    -0.269 N 
ATOM     15  C   UNL     1      -0.471   0.481  24.878  0.00  0.00    +0.304 C 
ATOM     28  H   UNL     1       0.894  -0.478  26.135  0.00  0.00    +0.150 HD
ATOM     29  H   UNL     1       0.680   1.560  26.209  0.00  0.00    +0.156 HD
BRANCH   6  18
ATOM     18  C   UNL     1      -0.458   2.982  25.231  0.00  0.00    +0.035 A 
ATOM     21  C   UNL     1      -1.446   3.565  26.024  0.00  0.00    +0.023 A 
ATOM     22  C   UNL     1       0.110   3.705  24.181  0.00  0.00    +0.023 A 
ATOM     23  C   UNL     1      -1.867   4.870  25.769  0.00  0.00    +0.002 A 
ATOM     24  C   UNL     1      -0.311   5.010  23.926  0.00  0.00    +0.002 A 
ATOM     25  C   UNL     1      -1.299   5.593  24.719  0.00  0.00    +0.000 A 
ENDBRANCH   6  18
ENDBRANCH  12   5
ENDBRANCH  10  12
TORSDOF 7
ENDMDL
MODEL 9
REMARK VINA RESULT:      -2.5      1.351      2.051
REMARK  Name = 75536769
REMARK  7 active torsions:
REMARK  status: ('A' for Active; 'I' for Inactive)
REMARK    1  A    between atoms: O_2  and  C_9
REMARK    2  A    between atoms: N_4  and  C_8
REMARK    3  A    between atoms: N_4  and  C_13
REMARK    4  A    between atoms: N_5  and  C_12
REMARK    5  A    between atoms: N_6  and  C_18
REMARK    6  A    between atoms: C_10  and  C_12
REMARK    7  A    between atoms: C_13  and  C_14
REMARK                            x       y       z     vdW  Elec       q    Type
REMARK                         _______ _______ _______ _____ _____    ______ ____
ROOT
ATOM      1  O   UNL     1      -3.423  -1.094  26.361  0.00  0.00    -0.371 OA
ATOM      8  C   UNL     1      -4.629   0.236  24.805  0.00  0.00    +0.111 C 
ATOM      9  C   UNL     1      -3.662  -0.653  24.049  0.00  0.00    +0.164 C 
ATOM     10  C   UNL     1      -3.399  -1.743  25.079  0.00  0.00    +0.165 C 
ATOM     11  C   UNL     1      -4.043   0.196  26.208  0.00  0.00    +0.181 C 
ENDROOT
BRANCH   9   2
ATOM      2  O   UNL     1      -4.219  -1.177  22.858  0.00  0.00    -0.388 OA
ATOM     27  H   UNL     1      -4.981  -1.731  23.095  0.00  0.00    +0.210 HD
ENDBRANCH   9   2
BRANCH   8   4
ATOM      4  N   UNL     1      -4.722   1.585  24.270  0.00  0.00    -0.303 NA
ATOM     26  H   UNL     1      -4.705   2.252  25.042  0.00  0.00    +0.123 HD
BRANCH   4  13
ATOM     13  C   UNL     1      -3.609   1.873  23.373  0.00  0.00    +0.137 C 
BRANCH  13  14
ATOM      7  N   UNL     1      -3.012   3.799  24.734  0.00  0.00    -0.259 NA
ATOM     14  C   UNL     1      -2.565   2.733  24.034  0.00  0.00    +0.055 A 
ATOM     16  C   UNL     1      -1.227   2.399  23.898  0.00  0.00    +0.024 A 
ATOM     17  C   UNL     1      -0.287   3.212  24.521  0.00  0.00    +0.003 A 
ATOM     19  C   UNL     1      -2.068   4.565  25.326  0.00  0.00    +0.111 A 
ATOM     20  C   UNL     1      -0.707   4.318  25.251  0.00  0.00    +0.020 A 
ENDBRANCH  13  14
ENDBRANCH   4  13
ENDBRANCH   8   4
BRANCH  10  12
ATOM     12  C   UNL     1      -2.067  -2.446  24.884  0.00  0.00    +0.140 C 
BRANCH  12   5
ATOM      3  O   UNL     1       0.739  -2.054  25.296  0.00  0.00    -0.253 OA
ATOM      5  N   UNL     1      -1.181  -1.667  24.067  0.00  0.00    -0.297 N 
ATOM      6  N   UNL     1       0.796  -0.709  23.372  0.00  0.00    -0.269 N 
ATOM     15  C   UNL     1       0.190  -1.522  24.335  0.00  0.00    +0.304 C 
ATOM     28  H   UNL     1      -1.571  -1.186  23.262  0.00  0.00    +0.150 HD
ATOM     29  H   UNL     1       0.193  -0.346  22.639  0.00  0.00    +0.156 HD
BRANCH   6  18
ATOM     18  C   UNL     1       2.155  -0.325  23.292  0.00  0.00    +0.035 A 
ATOM     21  C   UNL     1       3.157  -1.234  23.631  0.00  0.00    +0.023 A 
ATOM     22  C   UNL     1       2.493   0.962  22.874  0.00  0.00    +0.023 A 
ATOM     23  C   UNL     1       4.497  -0.857  23.553  0.00  0.00    +0.002 A 
ATOM     24  C   UNL     1       3.834   1.339  22.795  0.00  0.00    +0.002 A 
ATOM     25  C   UNL     1       4.836   0.430  23.135  0.00  0.00    +0.000 A 
ENDBRANCH   6  18
ENDBRANCH  12   5
ENDBRANCH  10  12
TORSDOF 7
ENDMDL
MODEL 10
REMARK VINA RESULT:      -2.0     16.437     18.011
REMARK  Name = 75536769
REMARK  7 active torsions:
REMARK  status: ('A' for Active; 'I' for Inactive)
REMARK    1  A    between atoms: O_2  and  C_9
REMARK    2  A    between atoms: N_4  and  C_8
REMARK    3  A    between atoms: N_4  and  C_13
REMARK    4  A    between atoms: N_5  and  C_12
REMARK    5  A    between atoms: N_6  and  C_18
REMARK    6  A    between atoms: C_10  and  C_12
REMARK    7  A    between atoms: C_13  and  C_14
REMARK                            x       y       z     vdW  Elec       q    Type
REMARK                         _______ _______ _______ _____ _____    ______ ____
ROOT
ATOM      1  O   UNL     1      -5.082  -8.174   9.323  0.00  0.00    -0.371 OA
ATOM      8  C   UNL     1      -7.434  -8.402   9.072  0.00  0.00    +0.111 C 
ATOM      9  C   UNL     1      -6.790  -9.771   8.962  0.00  0.00    +0.164 C 
ATOM     10  C   UNL     1      -5.454  -9.522   9.651  0.00  0.00    +0.165 C 
ATOM     11  C   UNL     1      -6.244  -7.488   8.822  0.00  0.00    +0.181 C 
ENDROOT
BRANCH   9   2
ATOM      2  O   UNL     1      -7.539 -10.779   9.612  0.00  0.00    -0.388 OA
ATOM     27  H   UNL     1      -7.994 -11.307   8.936  0.00  0.00    +0.210 HD
ENDBRANCH   9   2
BRANCH   8   4
ATOM      4  N   UNL     1      -8.518  -8.189   8.126  0.00  0.00    -0.303 NA
ATOM     26  H   UNL     1      -8.766  -9.082   7.697  0.00  0.00    +0.123 HD
BRANCH   4  13
ATOM     13  C   UNL     1      -9.695  -7.642   8.791  0.00  0.00    +0.137 C 
BRANCH  13  14
ATOM      7  N   UNL     1      -8.543  -5.542   8.370  0.00  0.00    -0.259 NA
ATOM     14  C   UNL     1      -9.650  -6.139   8.864  0.00  0.00    +0.055 A 
ATOM     16  C   UNL     1     -10.719  -5.455   9.420  0.00  0.00    +0.024 A 
ATOM     17  C   UNL     1     -10.647  -4.068   9.472  0.00  0.00    +0.003 A 
ATOM     19  C   UNL     1      -8.510  -4.191   8.438  0.00  0.00    +0.111 A 
ATOM     20  C   UNL     1      -9.525  -3.416   8.974  0.00  0.00    +0.020 A 
ENDBRANCH  13  14
ENDBRANCH   4  13
ENDBRANCH   8   4
BRANCH  10  12
ATOM     12  C   UNL     1      -4.363 -10.479   9.206  0.00  0.00    +0.140 C 
BRANCH  12   5
ATOM      3  O   UNL     1      -4.651  -9.715  11.951  0.00  0.00    -0.253 OA
ATOM      5  N   UNL     1      -3.450 -10.764  10.276  0.00  0.00    -0.297 N 
ATOM      6  N   UNL     1      -2.608 -10.774  12.421  0.00  0.00    -0.269 N 
ATOM     15  C   UNL     1      -3.662 -10.354  11.602  0.00  0.00    +0.304 C 
ATOM     28  H   UNL     1      -2.602 -11.278  10.058  0.00  0.00    +0.150 HD
ATOM     29  H   UNL     1      -1.862 -11.296  11.971  0.00  0.00    +0.156 HD
BRANCH   6  18
ATOM     18  C   UNL     1      -2.451 -10.560  13.810  0.00  0.00    +0.035 A 
ATOM     21  C   UNL     1      -1.224 -10.129  14.315  0.00  0.00    +0.023 A 
ATOM     22  C   UNL     1      -3.523 -10.780  14.676  0.00  0.00    +0.023 A 
ATOM     23  C   UNL     1      -1.068  -9.917  15.684  0.00  0.00    +0.002 A 
ATOM     24  C   UNL     1      -3.366 -10.568  16.046  0.00  0.00    +0.002 A 
ATOM     25  C   UNL     1      -2.140 -10.137  16.550  0.00  0.00    +0.000 A 
ENDBRANCH   6  18
ENDBRANCH  12   5
ENDBRANCH  10  12
TORSDOF 7
ENDMDL
