MODEL 1
REMARK VINA RESULT:      -2.2      0.000      0.000
REMARK  Name = 26762309
REMARK  7 active torsions:
REMARK  status: ('A' for Active; 'I' for Inactive)
REMARK    1  A    between atoms: N_6  and  C_11
REMARK    2  A    between atoms: N_7  and  C_21
REMARK    3  A    between atoms: N_8  and  C_20
REMARK    4  A    between atoms: C_10  and  C_16
REMARK    5  A    between atoms: C_16  and  C_17
REMARK    6  A    between atoms: C_17  and  C_19
REMARK    7  A    between atoms: C_20  and  C_22
REMARK                            x       y       z     vdW  Elec       q    Type
REMARK                         _______ _______ _______ _____ _____    ______ ____
ROOT
ATOM      1  O   UNL     1      -5.563   0.818  24.748  0.00  0.00    -0.274 OA
ATOM      4  N   UNL     1      -2.646   2.786  24.401  0.00  0.00    -0.285 NA
ATOM      5  N   UNL     1      -4.773   2.501  26.095  0.00  0.00    -0.313 N 
ATOM      9  C   UNL     1      -3.900   2.288  23.829  0.00  0.00    +0.145 C 
ATOM     10  C   UNL     1      -2.906   3.954  25.244  0.00  0.00    +0.075 C 
ATOM     11  C   UNL     1      -2.044   1.766  22.383  0.00  0.00    +0.090 C 
ATOM     12  C   UNL     1      -3.417   1.249  22.829  0.00  0.00    +0.052 C 
ATOM     13  C   UNL     1      -1.779   3.006  23.244  0.00  0.00    +0.107 C 
ATOM     14  C   UNL     1      -3.735   3.462  26.439  0.00  0.00    +0.123 C 
ATOM     15  C   UNL     1      -4.796   1.764  24.927  0.00  0.00    +0.230 C 
ATOM     33  H   UNL     1      -5.415   2.227  26.833  0.00  0.00    +0.149 HD
ENDROOT
BRANCH  11   6
ATOM      2  O   UNL     1       0.737   2.220  22.889  0.00  0.00    -0.253 OA
ATOM      6  N   UNL     1      -1.026   0.762  22.560  0.00  0.00    -0.295 N 
ATOM      7  N   UNL     1       1.070  -0.103  22.935  0.00  0.00    -0.269 N 
ATOM     18  C   UNL     1       0.318   1.068  22.806  0.00  0.00    +0.304 C 
ATOM     34  H   UNL     1      -1.281  -0.213  22.430  0.00  0.00    +0.151 HD
ATOM     35  H   UNL     1       0.566  -0.981  22.839  0.00  0.00    +0.156 HD
BRANCH   7  21
ATOM     21  C   UNL     1       2.457  -0.222  23.185  0.00  0.00    +0.035 A 
ATOM     23  C   UNL     1       2.971  -1.406  23.713  0.00  0.00    +0.023 A 
ATOM     24  C   UNL     1       3.310   0.845  22.904  0.00  0.00    +0.023 A 
ATOM     27  C   UNL     1       4.339  -1.523  23.959  0.00  0.00    +0.002 A 
ATOM     28  C   UNL     1       4.678   0.729  23.151  0.00  0.00    +0.002 A 
ATOM     29  C   UNL     1       5.193  -0.456  23.679  0.00  0.00    +0.000 A 
ENDBRANCH   7  21
ENDBRANCH  11   6
BRANCH  10  16
ATOM     16  C   UNL     1      -1.627   4.625  25.750  0.00  0.00    +0.029 C 
BRANCH  16  17
ATOM     17  C   UNL     1      -0.399   3.791  25.413  0.00  0.00    +0.097 C 
BRANCH  17  19
ATOM      3  O   UNL     1       0.223   2.676  27.470  0.00  0.00    -0.276 OA
ATOM      8  N   UNL     1      -0.703   1.429  25.744  0.00  0.00    -0.311 N 
ATOM     19  C   UNL     1      -0.248   2.597  26.338  0.00  0.00    +0.213 C 
ATOM     36  H   UNL     1      -1.094   1.462  24.807  0.00  0.00    +0.149 HD
BRANCH   8  20
ATOM     20  C   UNL     1      -0.664   0.154  26.421  0.00  0.00    +0.139 C 
BRANCH  20  22
ATOM     22  C   UNL     1      -1.534  -0.866  25.746  0.00  0.00    -0.030 A 
ATOM     25  C   UNL     1      -0.964  -1.820  24.903  0.00  0.00    +0.005 A 
ATOM     26  C   UNL     1      -2.913  -0.861  25.963  0.00  0.00    +0.005 A 
ATOM     30  C   UNL     1      -1.772  -2.769  24.276  0.00  0.00    +0.000 A 
ATOM     31  C   UNL     1      -3.721  -1.809  25.336  0.00  0.00    +0.000 A 
ATOM     32  C   UNL     1      -3.150  -2.764  24.492  0.00  0.00    +0.000 A 
ENDBRANCH  20  22
ENDBRANCH   8  20
ENDBRANCH  17  19
ENDBRANCH  16  17
ENDBRANCH  10  16
TORSDOF 7
ENDMDL
MODEL 2
REMARK VINA RESULT:      -1.2      1.976      3.748
REMARK  Name = 26762309
REMARK  7 active torsions:
REMARK  status: ('A' for Active; 'I' for Inactive)
REMARK    1  A    between atoms: N_6  and  C_11
REMARK    2  A    between atoms: N_7  and  C_21
REMARK    3  A    between atoms: N_8  and  C_20
REMARK    4  A    between atoms: C_10  and  C_16
REMARK    5  A    between atoms: C_16  and  C_17
REMARK    6  A    between atoms: C_17  and  C_19
REMARK    7  A    between atoms: C_20  and  C_22
REMARK                            x       y       z     vdW  Elec       q    Type
REMARK                         _______ _______ _______ _____ _____    ______ ____
ROOT
ATOM      1  O   UNL     1      -3.949  -1.515  25.297  0.00  0.00    -0.274 OA
ATOM      4  N   UNL     1      -3.089   1.701  24.105  0.00  0.00    -0.285 NA
ATOM      5  N   UNL     1      -4.904   0.517  25.773  0.00  0.00    -0.313 N 
ATOM      9  C   UNL     1      -3.464   0.314  23.816  0.00  0.00    +0.145 C 
ATOM     10  C   UNL     1      -4.287   2.503  24.361  0.00  0.00    +0.075 C 
ATOM     11  C   UNL     1      -1.391   0.875  22.724  0.00  0.00    +0.090 C 
ATOM     12  C   UNL     1      -2.147  -0.296  23.363  0.00  0.00    +0.052 C 
ATOM     13  C   UNL     1      -2.274   2.105  22.960  0.00  0.00    +0.107 C 
ATOM     14  C   UNL     1      -4.911   1.969  25.658  0.00  0.00    +0.123 C 
ATOM     15  C   UNL     1      -4.084  -0.319  25.041  0.00  0.00    +0.230 C 
ATOM     33  H   UNL     1      -5.399   0.112  26.563  0.00  0.00    +0.149 HD
ENDROOT
BRANCH  11   6
ATOM      2  O   UNL     1       0.981  -0.574  22.036  0.00  0.00    -0.253 OA
ATOM      6  N   UNL     1      -0.084   1.033  23.312  0.00  0.00    -0.295 N 
ATOM      7  N   UNL     1       2.155   0.652  23.658  0.00  0.00    -0.269 N 
ATOM     18  C   UNL     1       1.030   0.282  22.916  0.00  0.00    +0.304 C 
ATOM     34  H   UNL     1       0.019   1.668  24.098  0.00  0.00    +0.151 HD
ATOM     35  H   UNL     1       2.024   1.383  24.352  0.00  0.00    +0.156 HD
BRANCH   7  21
ATOM     21  C   UNL     1       3.467   0.132  23.562  0.00  0.00    +0.035 A 
ATOM     23  C   UNL     1       4.520   0.964  23.184  0.00  0.00    +0.023 A 
ATOM     24  C   UNL     1       3.707  -1.212  23.846  0.00  0.00    +0.023 A 
ATOM     27  C   UNL     1       5.814   0.452  23.089  0.00  0.00    +0.002 A 
ATOM     28  C   UNL     1       5.001  -1.725  23.751  0.00  0.00    +0.002 A 
ATOM     29  C   UNL     1       6.055  -0.893  23.373  0.00  0.00    +0.000 A 
ENDBRANCH   7  21
ENDBRANCH  11   6
BRANCH  10  16
ATOM     16  C   UNL     1      -3.987   3.996  24.515  0.00  0.00    +0.029 C 
BRANCH  16  17
ATOM     17  C   UNL     1      -3.221   4.273  25.800  0.00  0.00    +0.097 C 
BRANCH  17  19
ATOM      3  O   UNL     1      -1.058   5.026  25.014  0.00  0.00    -0.276 OA
ATOM      8  N   UNL     1      -1.204   3.013  26.161  0.00  0.00    -0.311 N 
ATOM     19  C   UNL     1      -1.719   4.174  25.602  0.00  0.00    +0.213 C 
ATOM     36  H   UNL     1      -1.826   2.372  26.646  0.00  0.00    +0.149 HD
BRANCH   8  20
ATOM     20  C   UNL     1       0.201   2.687  26.104  0.00  0.00    +0.139 C 
BRANCH  20  22
ATOM     22  C   UNL     1       0.832   2.677  27.466  0.00  0.00    -0.030 A 
ATOM     25  C   UNL     1       0.062   2.374  28.588  0.00  0.00    +0.005 A 
ATOM     26  C   UNL     1       2.188   2.972  27.610  0.00  0.00    +0.005 A 
ATOM     30  C   UNL     1       0.646   2.365  29.855  0.00  0.00    +0.000 A 
ATOM     31  C   UNL     1       2.773   2.962  28.876  0.00  0.00    +0.000 A 
ATOM     32  C   UNL     1       2.003   2.659  29.999  0.00  0.00    +0.000 A 
ENDBRANCH  20  22
ENDBRANCH   8  20
ENDBRANCH  17  19
ENDBRANCH  16  17
ENDBRANCH  10  16
TORSDOF 7
ENDMDL
