MODEL 1
REMARK VINA RESULT:      -0.9      0.000      0.000
REMARK  Name = 11886185
REMARK  6 active torsions:
REMARK  status: ('A' for Active; 'I' for Inactive)
REMARK    1  A    between atoms: O_6  and  C_20
REMARK    2  A    between atoms: O_6  and  C_23
REMARK    3  A    between atoms: N_8  and  C_16
REMARK    4  A    between atoms: N_9  and  C_17
REMARK    5  A    between atoms: N_12  and  C_22
REMARK    6  A    between atoms: C_28  and  C_33
REMARK                            x       y       z     vdW  Elec       q    Type
REMARK                         _______ _______ _______ _____ _____    ______ ____
ROOT
ATOM      4  O   UNL     1      -2.534   4.110  26.921  0.00  0.00    -0.370 OA
ATOM      5  O   UNL     1      -3.074   4.981  23.948  0.00  0.00    -0.370 OA
ATOM     14  C   UNL     1      -3.320   3.776  24.695  0.00  0.00    +0.176 C 
ATOM     15  C   UNL     1      -2.148   3.588  25.639  0.00  0.00    +0.172 C 
ATOM     16  C   UNL     1      -4.519   3.967  25.603  0.00  0.00    +0.171 C 
ATOM     17  C   UNL     1      -1.045   4.432  25.040  0.00  0.00    +0.131 C 
ATOM     18  C   UNL     1      -3.900   4.541  26.873  0.00  0.00    +0.190 C 
ATOM     19  C   UNL     1      -1.822   5.546  24.363  0.00  0.00    +0.185 C 
ENDROOT
BRANCH  17   9
ATOM      7  O   UNL     1       0.545   2.110  25.574  0.00  0.00    -0.252 OA
ATOM      9  N   UNL     1      -0.272   3.677  24.083  0.00  0.00    -0.292 N 
ATOM     12  N   UNL     1       1.123   2.029  23.300  0.00  0.00    -0.269 N 
ATOM     21  C   UNL     1       0.481   2.549  24.428  0.00  0.00    +0.304 C 
ATOM     35  H   UNL     1      -0.328   3.938  23.103  0.00  0.00    +0.151 HD
ATOM     36  H   UNL     1       0.964   2.517  22.421  0.00  0.00    +0.156 HD
BRANCH  12  22
ATOM     22  C   UNL     1       1.971   0.900  23.226  0.00  0.00    +0.035 A 
ATOM     24  C   UNL     1       3.320   1.046  23.505  0.00  0.00    +0.035 A 
ATOM     25  C   UNL     1       1.436  -0.329  22.878  0.00  0.00    +0.023 A 
ATOM     28  C   UNL     1       4.157  -0.068  23.433  0.00  0.00    +0.057 A 
ATOM     29  C   UNL     1       2.272  -1.443  22.807  0.00  0.00    +0.002 A 
ATOM     30  C   UNL     1       3.633  -1.313  23.085  0.00  0.00    +0.012 A 
BRANCH  28  33
ATOM      1  F   UNL     1       5.979   1.340  24.080  0.00  0.00    -0.166 F 
ATOM      2  F   UNL     1       6.419  -0.257  22.678  0.00  0.00    -0.166 F 
ATOM      3  F   UNL     1       6.015  -0.725  24.763  0.00  0.00    -0.166 F 
ATOM     33  C   UNL     1       5.612   0.071  23.731  0.00  0.00    +0.417 C 
ENDBRANCH  28  33
ENDBRANCH  12  22
ENDBRANCH  17   9
BRANCH  16   8
ATOM      8  N   UNL     1      -5.286   2.732  25.789  0.00  0.00    -0.187 N 
ATOM     10  N   UNL     1      -6.355   2.704  26.589  0.00  0.00    -0.041 NA
ATOM     11  N   UNL     1      -6.003   0.696  25.684  0.00  0.00    -0.071 NA
ATOM     13  N   UNL     1      -6.792   1.452  26.521  0.00  0.00    -0.020 NA
ATOM     20  C   UNL     1      -5.074   1.512  25.241  0.00  0.00    +0.342 A 
BRANCH  20   6
ATOM      6  O   UNL     1      -4.095   1.215  24.407  0.00  0.00    -0.423 OA
BRANCH   6  23
ATOM     23  C   UNL     1      -3.438  -0.007  24.431  0.00  0.00    +0.132 A 
ATOM     26  C   UNL     1      -2.100  -0.042  24.774  0.00  0.00    +0.046 A 
ATOM     27  C   UNL     1      -4.142  -1.153  24.112  0.00  0.00    +0.046 A 
ATOM     31  C   UNL     1      -1.440  -1.271  24.799  0.00  0.00    +0.004 A 
ATOM     32  C   UNL     1      -3.481  -2.381  24.136  0.00  0.00    +0.004 A 
ATOM     34  C   UNL     1      -2.130  -2.441  24.480  0.00  0.00    +0.000 A 
ENDBRANCH   6  23
ENDBRANCH  20   6
ENDBRANCH  16   8
TORSDOF 6
ENDMDL
MODEL 2
REMARK VINA RESULT:       1.1      1.848      3.923
REMARK  Name = 11886185
REMARK  6 active torsions:
REMARK  status: ('A' for Active; 'I' for Inactive)
REMARK    1  A    between atoms: O_6  and  C_20
REMARK    2  A    between atoms: O_6  and  C_23
REMARK    3  A    between atoms: N_8  and  C_16
REMARK    4  A    between atoms: N_9  and  C_17
REMARK    5  A    between atoms: N_12  and  C_22
REMARK    6  A    between atoms: C_28  and  C_33
REMARK                            x       y       z     vdW  Elec       q    Type
REMARK                         _______ _______ _______ _____ _____    ______ ____
ROOT
ATOM      4  O   UNL     1      -4.554  -0.626  23.520  0.00  0.00    -0.370 OA
ATOM      5  O   UNL     1      -3.580  -1.270  26.441  0.00  0.00    -0.370 OA
ATOM     14  C   UNL     1      -3.614  -0.074  25.641  0.00  0.00    +0.176 C 
ATOM     15  C   UNL     1      -3.304  -0.481  24.214  0.00  0.00    +0.172 C 
ATOM     16  C   UNL     1      -5.028   0.471  25.588  0.00  0.00    +0.171 C 
ATOM     17  C   UNL     1      -2.621  -1.824  24.347  0.00  0.00    +0.131 C 
ATOM     18  C   UNL     1      -5.632  -0.258  24.392  0.00  0.00    +0.190 C 
ATOM     19  C   UNL     1      -3.261  -2.389  25.601  0.00  0.00    +0.185 C 
ENDROOT
BRANCH  17   9
ATOM      7  O   UNL     1      -0.805  -0.603  22.497  0.00  0.00    -0.252 OA
ATOM      9  N   UNL     1      -1.195  -1.670  24.511  0.00  0.00    -0.292 N 
ATOM     12  N   UNL     1       0.954  -1.054  23.985  0.00  0.00    -0.269 N 
ATOM     21  C   UNL     1      -0.376  -1.058  23.555  0.00  0.00    +0.304 C 
ATOM     35  H   UNL     1      -0.776  -1.960  25.390  0.00  0.00    +0.151 HD
ATOM     36  H   UNL     1       1.140  -1.476  24.892  0.00  0.00    +0.156 HD
BRANCH  12  22
ATOM     22  C   UNL     1       2.083  -0.532  23.312  0.00  0.00    +0.035 A 
ATOM     24  C   UNL     1       3.310  -0.516  23.954  0.00  0.00    +0.035 A 
ATOM     25  C   UNL     1       1.939  -0.049  22.022  0.00  0.00    +0.023 A 
ATOM     28  C   UNL     1       4.423  -0.003  23.289  0.00  0.00    +0.057 A 
ATOM     29  C   UNL     1       3.052   0.465  21.356  0.00  0.00    +0.002 A 
ATOM     30  C   UNL     1       4.295   0.487  21.990  0.00  0.00    +0.012 A 
BRANCH  28  33
ATOM      1  F   UNL     1       6.052   1.225  24.538  0.00  0.00    -0.166 F 
ATOM      2  F   UNL     1       6.798  -0.248  23.129  0.00  0.00    -0.166 F 
ATOM      3  F   UNL     1       5.844  -0.896  24.973  0.00  0.00    -0.166 F 
ATOM     33  C   UNL     1       5.751   0.021  23.967  0.00  0.00    +0.417 C 
ENDBRANCH  28  33
ENDBRANCH  12  22
ENDBRANCH  17   9
BRANCH  16   8
ATOM      8  N   UNL     1      -5.064   1.934  25.506  0.00  0.00    -0.187 N 
ATOM     10  N   UNL     1      -6.009   2.632  26.141  0.00  0.00    -0.041 NA
ATOM     11  N   UNL     1      -4.633   4.000  25.041  0.00  0.00    -0.071 NA
ATOM     13  N   UNL     1      -5.741   3.900  25.852  0.00  0.00    -0.020 NA
ATOM     20  C   UNL     1      -4.230   2.766  24.839  0.00  0.00    +0.342 A 
BRANCH  20   6
ATOM      6  O   UNL     1      -3.195   2.383  24.115  0.00  0.00    -0.423 OA
BRANCH   6  23
ATOM     23  C   UNL     1      -1.889   2.456  24.580  0.00  0.00    +0.132 A 
ATOM     26  C   UNL     1      -1.667   2.562  25.939  0.00  0.00    +0.046 A 
ATOM     27  C   UNL     1      -0.851   2.420  23.669  0.00  0.00    +0.046 A 
ATOM     31  C   UNL     1      -0.354   2.634  26.406  0.00  0.00    +0.004 A 
ATOM     32  C   UNL     1       0.461   2.494  24.135  0.00  0.00    +0.004 A 
ATOM     34  C   UNL     1       0.710   2.601  25.504  0.00  0.00    +0.000 A 
ENDBRANCH   6  23
ENDBRANCH  20   6
ENDBRANCH  16   8
TORSDOF 6
ENDMDL
