MODEL 1
REMARK VINA RESULT:      -0.0      0.000      0.000
REMARK  Name = 11867242
REMARK  8 active torsions:
REMARK  status: ('A' for Active; 'I' for Inactive)
REMARK    1  A    between atoms: S_1  and  N_10
REMARK    2  A    between atoms: S_1  and  C_25
REMARK    3  A    between atoms: O_6  and  C_26
REMARK    4  A    between atoms: N_10  and  C_21
REMARK    5  A    between atoms: C_20  and  C_23
REMARK    6  A    between atoms: C_23  and  C_24
REMARK    7  A    between atoms: C_24  and  C_26
REMARK    8  A    between atoms: C_25  and  C_27
REMARK                            x       y       z     vdW  Elec       q    Type
REMARK                         _______ _______ _______ _____ _____    ______ ____
ROOT
ATOM      2  O   UNL     1      -0.502   2.218  26.550  0.00  0.00    -0.266 OA
ATOM      3  O   UNL     1      -5.680   0.852  26.738  0.00  0.00    -0.276 OA
ATOM      8  N   UNL     1      -5.317   2.477  25.118  0.00  0.00    -0.301 N 
ATOM      9  N   UNL     1      -2.164   3.006  25.098  0.00  0.00    -0.310 N 
ATOM     11  C   UNL     1      -4.082   4.518  25.861  0.00  0.00    +0.027 C 
ATOM     12  C   UNL     1      -3.954   3.802  23.512  0.00  0.00    +0.054 C 
ATOM     13  C   UNL     1      -4.072   5.022  24.424  0.00  0.00    +0.018 C 
ATOM     14  C   UNL     1      -5.271   3.569  26.092  0.00  0.00    +0.113 C 
ATOM     15  C   UNL     1      -2.739   3.841  26.160  0.00  0.00    +0.130 C 
ATOM     16  C   UNL     1      -5.177   2.888  23.712  0.00  0.00    +0.117 C 
ATOM     17  C   UNL     1      -2.680   3.028  23.795  0.00  0.00    +0.027 A 
ATOM     18  C   UNL     1      -2.069   2.347  22.809  0.00  0.00    +0.024 A 
ATOM     19  C   UNL     1      -1.010   2.265  25.430  0.00  0.00    +0.274 A 
ATOM     20  C   UNL     1      -5.566   1.176  25.553  0.00  0.00    +0.216 C 
ATOM     21  C   UNL     1      -0.395   1.516  24.306  0.00  0.00    +0.112 A 
ATOM     22  C   UNL     1      -0.891   1.564  23.069  0.00  0.00    +0.031 A 
ENDROOT
BRANCH  21  10
ATOM     10  N   UNL     1       0.753   0.734  24.520  0.00  0.00    -0.215 N 
ATOM     33  H   UNL     1       1.096   0.790  25.489  0.00  0.00    +0.173 HD
BRANCH  10   1
ATOM      1  S   UNL     1       0.685  -0.853  23.901  0.00  0.00    +0.047 S 
ATOM      4  O   UNL     1       1.364  -1.761  24.806  0.00  0.00    -0.155 OA
ATOM      5  O   UNL     1      -0.659  -1.128  23.430  0.00  0.00    -0.155 OA
BRANCH   1  25
ATOM     25  C   UNL     1       1.723  -0.660  22.473  0.00  0.00    +0.223 C 
BRANCH  25  27
ATOM     27  C   UNL     1       3.116  -0.392  22.954  0.00  0.00    -0.025 A 
ATOM     28  C   UNL     1       3.837  -1.404  23.582  0.00  0.00    +0.005 A 
ATOM     29  C   UNL     1       3.680   0.867  22.769  0.00  0.00    +0.005 A 
ATOM     30  C   UNL     1       5.134  -1.154  24.030  0.00  0.00    +0.000 A 
ATOM     31  C   UNL     1       4.978   1.116  23.218  0.00  0.00    +0.000 A 
ATOM     32  C   UNL     1       5.705   0.106  23.847  0.00  0.00    +0.000 A 
ENDBRANCH  25  27
ENDBRANCH   1  25
ENDBRANCH  10   1
ENDBRANCH  21  10
BRANCH  20  23
ATOM     23  C   UNL     1      -5.691   0.118  24.485  0.00  0.00    +0.107 C 
BRANCH  23  24
ATOM     24  C   UNL     1      -4.313  -0.333  24.044  0.00  0.00    +0.129 C 
BRANCH  24  26
ATOM      7  O   UNL     1      -3.906  -2.707  24.225  0.00  0.00    -0.251 OA
ATOM     26  C   UNL     1      -3.901  -1.600  24.750  0.00  0.00    +0.305 C 
BRANCH  26   6
ATOM      6  O   UNL     1      -3.545  -1.387  26.040  0.00  0.00    -0.481 OA
ATOM     34  H   UNL     1      -2.691  -1.818  26.259  0.00  0.00    +0.295 HD
ENDBRANCH  26   6
ENDBRANCH  24  26
ENDBRANCH  23  24
ENDBRANCH  20  23
TORSDOF 8
ENDMDL
MODEL 2
REMARK VINA RESULT:       0.6      2.390      4.774
REMARK  Name = 11867242
REMARK  8 active torsions:
REMARK  status: ('A' for Active; 'I' for Inactive)
REMARK    1  A    between atoms: S_1  and  N_10
REMARK    2  A    between atoms: S_1  and  C_25
REMARK    3  A    between atoms: O_6  and  C_26
REMARK    4  A    between atoms: N_10  and  C_21
REMARK    5  A    between atoms: C_20  and  C_23
REMARK    6  A    between atoms: C_23  and  C_24
REMARK    7  A    between atoms: C_24  and  C_26
REMARK    8  A    between atoms: C_25  and  C_27
REMARK                            x       y       z     vdW  Elec       q    Type
REMARK                         _______ _______ _______ _____ _____    ______ ____
ROOT
ATOM      2  O   UNL     1      -3.221   0.714  22.263  0.00  0.00    -0.266 OA
ATOM      3  O   UNL     1       0.043   3.819  25.164  0.00  0.00    -0.276 OA
ATOM      8  N   UNL     1      -2.178   4.220  25.716  0.00  0.00    -0.301 N 
ATOM      9  N   UNL     1      -3.898   2.161  23.977  0.00  0.00    -0.310 N 
ATOM     11  C   UNL     1      -3.716   4.707  23.809  0.00  0.00    +0.027 C 
ATOM     12  C   UNL     1      -4.603   3.681  25.860  0.00  0.00    +0.054 C 
ATOM     13  C   UNL     1      -4.894   4.715  24.775  0.00  0.00    +0.018 C 
ATOM     14  C   UNL     1      -2.412   5.065  24.543  0.00  0.00    +0.113 C 
ATOM     15  C   UNL     1      -3.638   3.333  23.133  0.00  0.00    +0.130 C 
ATOM     16  C   UNL     1      -3.326   4.079  26.625  0.00  0.00    +0.117 C 
ATOM     17  C   UNL     1      -4.436   2.295  25.264  0.00  0.00    +0.027 A 
ATOM     18  C   UNL     1      -4.775   1.207  25.978  0.00  0.00    +0.024 A 
ATOM     19  C   UNL     1      -3.675   0.896  23.391  0.00  0.00    +0.274 A 
ATOM     20  C   UNL     1      -0.907   3.690  25.939  0.00  0.00    +0.216 C 
ATOM     21  C   UNL     1      -4.047  -0.266  24.236  0.00  0.00    +0.112 A 
ATOM     22  C   UNL     1      -4.575  -0.116  25.452  0.00  0.00    +0.031 A 
ENDROOT
BRANCH  21  10
ATOM     10  N   UNL     1      -3.861  -1.576  23.761  0.00  0.00    -0.215 N 
ATOM     33  H   UNL     1      -3.776  -1.617  22.736  0.00  0.00    +0.173 HD
BRANCH  10   1
ATOM      1  S   UNL     1      -2.690  -2.496  24.590  0.00  0.00    +0.047 S 
ATOM      4  O   UNL     1      -3.342  -3.376  25.541  0.00  0.00    -0.155 OA
ATOM      5  O   UNL     1      -1.718  -3.005  23.640  0.00  0.00    -0.155 OA
BRANCH   1  25
ATOM     25  C   UNL     1      -1.902  -1.206  25.522  0.00  0.00    +0.223 C 
BRANCH  25  27
ATOM     27  C   UNL     1      -0.770  -0.673  24.698  0.00  0.00    -0.025 A 
ATOM     28  C   UNL     1       0.258  -1.524  24.305  0.00  0.00    +0.005 A 
ATOM     29  C   UNL     1      -0.755   0.670  24.332  0.00  0.00    +0.005 A 
ATOM     30  C   UNL     1       1.312  -1.028  23.537  0.00  0.00    +0.000 A 
ATOM     31  C   UNL     1       0.299   1.166  23.564  0.00  0.00    +0.000 A 
ATOM     32  C   UNL     1       1.332   0.317  23.167  0.00  0.00    +0.000 A 
ENDBRANCH  25  27
ENDBRANCH   1  25
ENDBRANCH  10   1
ENDBRANCH  21  10
BRANCH  20  23
ATOM     23  C   UNL     1      -0.716   2.907  27.214  0.00  0.00    +0.107 C 
BRANCH  23  24
ATOM     24  C   UNL     1       0.677   2.311  27.249  0.00  0.00    +0.129 C 
BRANCH  24  26
ATOM      7  O   UNL     1       0.749   2.551  29.651  0.00  0.00    -0.251 OA
ATOM     26  C   UNL     1       1.342   2.555  28.580  0.00  0.00    +0.305 C 
BRANCH  26   6
ATOM      6  O   UNL     1       2.669   2.803  28.463  0.00  0.00    -0.481 OA
ATOM     34  H   UNL     1       3.002   2.596  27.564  0.00  0.00    +0.295 HD
ENDBRANCH  26   6
ENDBRANCH  24  26
ENDBRANCH  23  24
ENDBRANCH  20  23
TORSDOF 8
ENDMDL
MODEL 3
REMARK VINA RESULT:       1.4     15.657     17.421
REMARK  Name = 11867242
REMARK  8 active torsions:
REMARK  status: ('A' for Active; 'I' for Inactive)
REMARK    1  A    between atoms: S_1  and  N_10
REMARK    2  A    between atoms: S_1  and  C_25
REMARK    3  A    between atoms: O_6  and  C_26
REMARK    4  A    between atoms: N_10  and  C_21
REMARK    5  A    between atoms: C_20  and  C_23
REMARK    6  A    between atoms: C_23  and  C_24
REMARK    7  A    between atoms: C_24  and  C_26
REMARK    8  A    between atoms: C_25  and  C_27
REMARK                            x       y       z     vdW  Elec       q    Type
REMARK                         _______ _______ _______ _____ _____    ______ ____
ROOT
ATOM      2  O   UNL     1      -5.476  -7.266  11.649  0.00  0.00    -0.266 OA
ATOM      3  O   UNL     1     -10.570  -8.425  12.843  0.00  0.00    -0.276 OA
ATOM      8  N   UNL     1     -10.049  -9.130  10.691  0.00  0.00    -0.301 N 
ATOM      9  N   UNL     1      -6.949  -8.469  10.279  0.00  0.00    -0.310 N 
ATOM     11  C   UNL     1      -9.014  -7.421   9.192  0.00  0.00    +0.027 C 
ATOM     12  C   UNL     1      -8.529  -9.807   8.841  0.00  0.00    +0.054 C 
ATOM     13  C   UNL     1      -8.822  -8.491   8.124  0.00  0.00    +0.018 C 
ATOM     14  C   UNL     1     -10.185  -7.789  10.120  0.00  0.00    +0.113 C 
ATOM     15  C   UNL     1      -7.700  -7.248   9.962  0.00  0.00    +0.130 C 
ATOM     16  C   UNL     1      -9.730 -10.193   9.725  0.00  0.00    +0.117 C 
ATOM     17  C   UNL     1      -7.277  -9.698   9.692  0.00  0.00    +0.027 A 
ATOM     18  C   UNL     1      -6.507 -10.781   9.903  0.00  0.00    +0.024 A 
ATOM     19  C   UNL     1      -5.823  -8.321  11.118  0.00  0.00    +0.274 A 
ATOM     20  C   UNL     1     -10.304  -9.330  12.048  0.00  0.00    +0.216 C 
ATOM     21  C   UNL     1      -5.028  -9.555  11.331  0.00  0.00    +0.112 A 
ATOM     22  C   UNL     1      -5.346 -10.711  10.749  0.00  0.00    +0.031 A 
ENDROOT
BRANCH  21  10
ATOM     10  N   UNL     1      -3.890  -9.530  12.157  0.00  0.00    -0.215 N 
ATOM     33  H   UNL     1      -3.967 -10.171  12.958  0.00  0.00    +0.173 HD
BRANCH  10   1
ATOM      1  S   UNL     1      -2.393  -9.616  11.344  0.00  0.00    +0.047 S 
ATOM      4  O   UNL     1      -2.574 -10.250  10.052  0.00  0.00    -0.155 OA
ATOM      5  O   UNL     1      -1.706  -8.344  11.467  0.00  0.00    -0.155 OA
BRANCH   1  25
ATOM     25  C   UNL     1      -1.554 -10.781  12.390  0.00  0.00    +0.223 C 
BRANCH  25  27
ATOM     27  C   UNL     1      -2.141 -10.668  13.763  0.00  0.00    -0.025 A 
ATOM     28  C   UNL     1      -1.304 -10.484  14.859  0.00  0.00    +0.005 A 
ATOM     29  C   UNL     1      -3.520 -10.749  13.933  0.00  0.00    +0.005 A 
ATOM     30  C   UNL     1      -1.851 -10.379  16.138  0.00  0.00    +0.000 A 
ATOM     31  C   UNL     1      -4.067 -10.644  15.212  0.00  0.00    +0.000 A 
ATOM     32  C   UNL     1      -3.232 -10.458  16.314  0.00  0.00    +0.000 A 
ENDBRANCH  25  27
ENDBRANCH   1  25
ENDBRANCH  10   1
ENDBRANCH  21  10
BRANCH  20  23
ATOM     23  C   UNL     1     -10.235 -10.751  12.547  0.00  0.00    +0.107 C 
BRANCH  23  24
ATOM     24  C   UNL     1      -9.789 -10.767  13.995  0.00  0.00    +0.129 C 
BRANCH  24  26
ATOM      7  O   UNL     1      -7.435 -10.599  13.480  0.00  0.00    -0.251 OA
ATOM     26  C   UNL     1      -8.392 -10.219  14.142  0.00  0.00    +0.305 C 
BRANCH  26   6
ATOM      6  O   UNL     1      -8.302  -9.270  15.106  0.00  0.00    -0.481 OA
ATOM     34  H   UNL     1      -9.186  -9.009  15.445  0.00  0.00    +0.295 HD
ENDBRANCH  26   6
ENDBRANCH  24  26
ENDBRANCH  23  24
ENDBRANCH  20  23
TORSDOF 8
ENDMDL
MODEL 4
REMARK VINA RESULT:       2.1      2.447      3.948
REMARK  Name = 11867242
REMARK  8 active torsions:
REMARK  status: ('A' for Active; 'I' for Inactive)
REMARK    1  A    between atoms: S_1  and  N_10
REMARK    2  A    between atoms: S_1  and  C_25
REMARK    3  A    between atoms: O_6  and  C_26
REMARK    4  A    between atoms: N_10  and  C_21
REMARK    5  A    between atoms: C_20  and  C_23
REMARK    6  A    between atoms: C_23  and  C_24
REMARK    7  A    between atoms: C_24  and  C_26
REMARK    8  A    between atoms: C_25  and  C_27
REMARK                            x       y       z     vdW  Elec       q    Type
REMARK                         _______ _______ _______ _____ _____    ______ ____
ROOT
ATOM      2  O   UNL     1      -0.133   1.563  26.881  0.00  0.00    -0.266 OA
ATOM      3  O   UNL     1      -5.366   1.265  25.766  0.00  0.00    -0.276 OA
ATOM      8  N   UNL     1      -4.552   3.398  25.330  0.00  0.00    -0.301 N 
ATOM      9  N   UNL     1      -1.413   3.277  25.924  0.00  0.00    -0.310 N 
ATOM     11  C   UNL     1      -3.281   4.492  27.181  0.00  0.00    +0.027 C 
ATOM     12  C   UNL     1      -2.793   5.089  24.846  0.00  0.00    +0.054 C 
ATOM     13  C   UNL     1      -2.956   5.657  26.254  0.00  0.00    +0.018 C 
ATOM     14  C   UNL     1      -4.580   3.796  26.738  0.00  0.00    +0.113 C 
ATOM     15  C   UNL     1      -2.089   3.528  27.203  0.00  0.00    +0.130 C 
ATOM     16  C   UNL     1      -4.116   4.444  24.392  0.00  0.00    +0.117 C 
ATOM     17  C   UNL     1      -1.675   4.065  24.795  0.00  0.00    +0.027 A 
ATOM     18  C   UNL     1      -0.963   3.896  23.666  0.00  0.00    +0.024 A 
ATOM     19  C   UNL     1      -0.418   2.275  25.919  0.00  0.00    +0.274 A 
ATOM     20  C   UNL     1      -5.004   2.130  24.964  0.00  0.00    +0.216 C 
ATOM     21  C   UNL     1       0.316   2.121  24.639  0.00  0.00    +0.112 A 
ATOM     22  C   UNL     1       0.064   2.893  23.581  0.00  0.00    +0.031 A 
ENDROOT
BRANCH  21  10
ATOM     10  N   UNL     1       1.323   1.148  24.513  0.00  0.00    -0.215 N 
ATOM     33  H   UNL     1       1.735   0.884  25.419  0.00  0.00    +0.173 HD
BRANCH  10   1
ATOM      1  S   UNL     1       0.938  -0.180  23.516  0.00  0.00    +0.047 S 
ATOM      4  O   UNL     1      -0.313   0.072  22.827  0.00  0.00    -0.155 OA
ATOM      5  O   UNL     1       2.124  -0.597  22.792  0.00  0.00    -0.155 OA
BRANCH   1  25
ATOM     25  C   UNL     1       0.614  -1.404  24.762  0.00  0.00    +0.223 C 
BRANCH  25  27
ATOM     27  C   UNL     1      -0.872  -1.556  24.877  0.00  0.00    -0.025 A 
ATOM     28  C   UNL     1      -1.532  -2.497  24.093  0.00  0.00    +0.005 A 
ATOM     29  C   UNL     1      -1.581  -0.755  25.767  0.00  0.00    +0.005 A 
ATOM     30  C   UNL     1      -2.915  -2.639  24.200  0.00  0.00    +0.000 A 
ATOM     31  C   UNL     1      -2.965  -0.897  25.874  0.00  0.00    +0.000 A 
ATOM     32  C   UNL     1      -3.632  -1.840  25.091  0.00  0.00    +0.000 A 
ENDBRANCH  25  27
ENDBRANCH   1  25
ENDBRANCH  10   1
ENDBRANCH  21  10
BRANCH  20  23
ATOM     23  C   UNL     1      -5.033   1.822  23.488  0.00  0.00    +0.107 C 
BRANCH  23  24
ATOM     24  C   UNL     1      -3.655   1.400  23.022  0.00  0.00    +0.129 C 
BRANCH  24  26
ATOM      7  O   UNL     1      -3.693   3.311  21.545  0.00  0.00    -0.251 OA
ATOM     26  C   UNL     1      -3.190   2.239  21.858  0.00  0.00    +0.305 C 
BRANCH  26   6
ATOM      6  O   UNL     1      -2.166   1.668  21.178  0.00  0.00    -0.481 OA
ATOM     34  H   UNL     1      -2.181   1.907  20.226  0.00  0.00    +0.295 HD
ENDBRANCH  26   6
ENDBRANCH  24  26
ENDBRANCH  23  24
ENDBRANCH  20  23
TORSDOF 8
ENDMDL
MODEL 5
REMARK VINA RESULT:       2.6      2.033      3.486
REMARK  Name = 11867242
REMARK  8 active torsions:
REMARK  status: ('A' for Active; 'I' for Inactive)
REMARK    1  A    between atoms: S_1  and  N_10
REMARK    2  A    between atoms: S_1  and  C_25
REMARK    3  A    between atoms: O_6  and  C_26
REMARK    4  A    between atoms: N_10  and  C_21
REMARK    5  A    between atoms: C_20  and  C_23
REMARK    6  A    between atoms: C_23  and  C_24
REMARK    7  A    between atoms: C_24  and  C_26
REMARK    8  A    between atoms: C_25  and  C_27
REMARK                            x       y       z     vdW  Elec       q    Type
REMARK                         _______ _______ _______ _____ _____    ______ ____
ROOT
ATOM      2  O   UNL     1      -2.236   1.845  21.853  0.00  0.00    -0.266 OA
ATOM      3  O   UNL     1      -2.697   5.416  25.822  0.00  0.00    -0.276 OA
ATOM      8  N   UNL     1      -4.300   3.747  26.028  0.00  0.00    -0.301 N 
ATOM      9  N   UNL     1      -3.725   1.683  23.655  0.00  0.00    -0.310 N 
ATOM     11  C   UNL     1      -5.684   3.292  23.998  0.00  0.00    +0.027 C 
ATOM     12  C   UNL     1      -5.282   1.496  25.629  0.00  0.00    +0.054 C 
ATOM     13  C   UNL     1      -6.338   2.121  24.720  0.00  0.00    +0.018 C 
ATOM     14  C   UNL     1      -5.174   4.333  25.010  0.00  0.00    +0.113 C 
ATOM     15  C   UNL     1      -4.558   2.758  23.104  0.00  0.00    +0.130 C 
ATOM     16  C   UNL     1      -4.819   2.531  26.672  0.00  0.00    +0.117 C 
ATOM     17  C   UNL     1      -4.091   1.005  24.826  0.00  0.00    +0.027 A 
ATOM     18  C   UNL     1      -3.378  -0.053  25.252  0.00  0.00    +0.024 A 
ATOM     19  C   UNL     1      -2.599   1.300  22.895  0.00  0.00    +0.274 A 
ATOM     20  C   UNL     1      -3.116   4.396  26.375  0.00  0.00    +0.216 C 
ATOM     21  C   UNL     1      -1.840   0.142  23.428  0.00  0.00    +0.112 A 
ATOM     22  C   UNL     1      -2.215  -0.500  24.535  0.00  0.00    +0.031 A 
ENDROOT
BRANCH  21  10
ATOM     10  N   UNL     1      -0.694  -0.322  22.760  0.00  0.00    -0.215 N 
ATOM     33  H   UNL     1      -0.642   0.007  21.786  0.00  0.00    +0.173 HD
BRANCH  10   1
ATOM      1  S   UNL     1       0.770  -0.165  23.620  0.00  0.00    +0.047 S 
ATOM      4  O   UNL     1       0.913   1.196  24.099  0.00  0.00    -0.155 OA
ATOM      5  O   UNL     1       0.924  -1.296  24.515  0.00  0.00    -0.155 OA
BRANCH   1  25
ATOM     25  C   UNL     1       1.924  -0.377  22.286  0.00  0.00    +0.223 C 
BRANCH  25  27
ATOM     27  C   UNL     1       3.305  -0.290  22.858  0.00  0.00    -0.025 A 
ATOM     28  C   UNL     1       3.848  -1.385  23.523  0.00  0.00    +0.005 A 
ATOM     29  C   UNL     1       4.035   0.887  22.722  0.00  0.00    +0.005 A 
ATOM     30  C   UNL     1       5.134  -1.303  24.056  0.00  0.00    +0.000 A 
ATOM     31  C   UNL     1       5.322   0.969  23.255  0.00  0.00    +0.000 A 
ATOM     32  C   UNL     1       5.872  -0.127  23.922  0.00  0.00    +0.000 A 
ENDBRANCH  25  27
ENDBRANCH   1  25
ENDBRANCH  10   1
ENDBRANCH  21  10
BRANCH  20  23
ATOM     23  C   UNL     1      -2.313   3.784  27.495  0.00  0.00    +0.107 C 
BRANCH  23  24
ATOM     24  C   UNL     1      -1.536   2.590  26.980  0.00  0.00    +0.129 C 
BRANCH  24  26
ATOM      7  O   UNL     1      -0.366   3.765  25.223  0.00  0.00    -0.251 OA
ATOM     26  C   UNL     1      -0.322   3.024  26.197  0.00  0.00    +0.305 C 
BRANCH  26   6
ATOM      6  O   UNL     1       0.827   2.486  26.675  0.00  0.00    -0.481 OA
ATOM     34  H   UNL     1       1.266   1.912  26.011  0.00  0.00    +0.295 HD
ENDBRANCH  26   6
ENDBRANCH  24  26
ENDBRANCH  23  24
ENDBRANCH  20  23
TORSDOF 8
ENDMDL
MODEL 6
REMARK VINA RESULT:       3.4      2.668      6.557
REMARK  Name = 11867242
REMARK  8 active torsions:
REMARK  status: ('A' for Active; 'I' for Inactive)
REMARK    1  A    between atoms: S_1  and  N_10
REMARK    2  A    between atoms: S_1  and  C_25
REMARK    3  A    between atoms: O_6  and  C_26
REMARK    4  A    between atoms: N_10  and  C_21
REMARK    5  A    between atoms: C_20  and  C_23
REMARK    6  A    between atoms: C_23  and  C_24
REMARK    7  A    between atoms: C_24  and  C_26
REMARK    8  A    between atoms: C_25  and  C_27
REMARK                            x       y       z     vdW  Elec       q    Type
REMARK                         _______ _______ _______ _____ _____    ______ ____
ROOT
ATOM      2  O   UNL     1      -5.137   0.829  27.119  0.00  0.00    -0.266 OA
ATOM      3  O   UNL     1       0.081   0.151  26.103  0.00  0.00    -0.276 OA
ATOM      8  N   UNL     1      -1.211  -1.156  24.680  0.00  0.00    -0.301 N 
ATOM      9  N   UNL     1      -4.254  -0.466  25.377  0.00  0.00    -0.310 N 
ATOM     11  C   UNL     1      -2.920  -2.614  25.772  0.00  0.00    +0.027 C 
ATOM     12  C   UNL     1      -3.288  -1.810  23.477  0.00  0.00    +0.054 C 
ATOM     13  C   UNL     1      -3.436  -3.020  24.397  0.00  0.00    +0.018 C 
ATOM     14  C   UNL     1      -1.444  -2.189  25.692  0.00  0.00    +0.113 C 
ATOM     15  C   UNL     1      -3.812  -1.496  26.325  0.00  0.00    +0.130 C 
ATOM     16  C   UNL     1      -1.800  -1.429  23.360  0.00  0.00    +0.117 C 
ATOM     17  C   UNL     1      -4.084  -0.628  23.996  0.00  0.00    +0.027 A 
ATOM     18  C   UNL     1      -4.598   0.271  23.136  0.00  0.00    +0.024 A 
ATOM     19  C   UNL     1      -4.944   0.640  25.919  0.00  0.00    +0.274 A 
ATOM     20  C   UNL     1      -0.405  -0.060  24.989  0.00  0.00    +0.216 C 
ATOM     21  C   UNL     1      -5.466   1.608  24.922  0.00  0.00    +0.112 A 
ATOM     22  C   UNL     1      -5.310   1.426  23.611  0.00  0.00    +0.031 A 
ENDROOT
BRANCH  21  10
ATOM     10  N   UNL     1      -6.162   2.754  25.346  0.00  0.00    -0.215 N 
ATOM     33  H   UNL     1      -6.648   2.614  26.243  0.00  0.00    +0.173 HD
BRANCH  10   1
ATOM      1  S   UNL     1      -5.291   4.216  25.253  0.00  0.00    +0.047 S 
ATOM      4  O   UNL     1      -4.548   4.265  24.008  0.00  0.00    -0.155 OA
ATOM      5  O   UNL     1      -6.149   5.313  25.658  0.00  0.00    -0.155 OA
BRANCH   1  25
ATOM     25  C   UNL     1      -4.115   3.946  26.556  0.00  0.00    +0.223 C 
BRANCH  25  27
ATOM     27  C   UNL     1      -2.746   4.164  25.989  0.00  0.00    -0.025 A 
ATOM     28  C   UNL     1      -1.780   3.170  26.113  0.00  0.00    +0.005 A 
ATOM     29  C   UNL     1      -2.450   5.360  25.341  0.00  0.00    +0.005 A 
ATOM     30  C   UNL     1      -0.506   3.373  25.585  0.00  0.00    +0.000 A 
ATOM     31  C   UNL     1      -1.174   5.563  24.813  0.00  0.00    +0.000 A 
ATOM     32  C   UNL     1      -0.203   4.569  24.934  0.00  0.00    +0.000 A 
ENDBRANCH  25  27
ENDBRANCH   1  25
ENDBRANCH  10   1
ENDBRANCH  21  10
BRANCH  20  23
ATOM     23  C   UNL     1      -0.133   0.915  23.871  0.00  0.00    +0.107 C 
BRANCH  23  24
ATOM     24  C   UNL     1       1.361   1.091  23.692  0.00  0.00    +0.129 C 
BRANCH  24  26
ATOM      7  O   UNL     1       1.315  -0.368  21.767  0.00  0.00    -0.251 OA
ATOM     26  C   UNL     1       1.922   0.065  22.739  0.00  0.00    +0.305 C 
BRANCH  26   6
ATOM      6  O   UNL     1       3.166  -0.345  23.085  0.00  0.00    -0.481 OA
ATOM     34  H   UNL     1       3.387  -0.103  24.011  0.00  0.00    +0.295 HD
ENDBRANCH  26   6
ENDBRANCH  24  26
ENDBRANCH  23  24
ENDBRANCH  20  23
TORSDOF 8
ENDMDL
