MODEL 1
REMARK VINA RESULT:      -5.1      0.000      0.000
REMARK  Name = 45783767
REMARK  6 active torsions:
REMARK  status: ('A' for Active; 'I' for Inactive)
REMARK    1  A    between atoms: N_4  and  C_13
REMARK    2  A    between atoms: N_8  and  C_26
REMARK    3  A    between atoms: N_8  and  C_27
REMARK    4  A    between atoms: C_9  and  C_14
REMARK    5  A    between atoms: C_13  and  C_15
REMARK    6  A    between atoms: C_18  and  C_21
REMARK                            x       y       z     vdW  Elec       q    Type
REMARK                         _______ _______ _______ _____ _____    ______ ____
ROOT
ATOM      4  N   UNL     1      -5.062   1.620  25.186  0.00  0.00    -0.287 NA
ATOM      9  C   UNL     1      -4.300   2.499  24.278  0.00  0.00    +0.146 C 
ATOM     10  C   UNL     1      -4.756   3.925  24.640  0.00  0.00    +0.030 C 
ATOM     11  C   UNL     1      -5.817   3.742  25.716  0.00  0.00    +0.017 C 
ATOM     12  C   UNL     1      -6.306   2.324  25.496  0.00  0.00    +0.085 C 
ENDROOT
BRANCH   9  14
ATOM      3  O   UNL     1      -2.216   2.881  25.496  0.00  0.00    -0.336 OA
ATOM      5  N   UNL     1      -1.971   1.681  23.621  0.00  0.00    -0.190 NA
ATOM      6  N   UNL     1      -0.851   2.580  25.402  0.00  0.00    -0.056 NA
ATOM     14  C   UNL     1      -2.803   2.314  24.409  0.00  0.00    +0.245 A 
ATOM     18  C   UNL     1      -0.787   1.872  24.270  0.00  0.00    +0.204 A 
BRANCH  18  21
ATOM      7  N   UNL     1       2.808   1.636  23.346  0.00  0.00    -0.240 NA
ATOM     21  C   UNL     1       0.445   1.339  23.763  0.00  0.00    +0.041 A 
ATOM     23  C   UNL     1       0.500   0.066  23.210  0.00  0.00    +0.016 A 
ATOM     24  C   UNL     1       1.616   2.079  23.807  0.00  0.00    +0.124 A 
ATOM     25  C   UNL     1       1.708  -0.424  22.725  0.00  0.00    +0.044 A 
ATOM     26  C   UNL     1       2.823   0.393  22.816  0.00  0.00    +0.118 A 
BRANCH  26   8
ATOM      8  N   UNL     1       4.047  -0.120  22.319  0.00  0.00    -0.332 N 
ATOM     27  C   UNL     1       5.276  -0.012  23.036  0.00  0.00    +0.127 C 
ATOM     28  H   UNL     1       4.078  -0.367  21.335  0.00  0.00    +0.147 HD
ENDBRANCH  26   8
ENDBRANCH  18  21
ENDBRANCH   9  14
BRANCH   4  13
ATOM     13  C   UNL     1      -5.307   0.294  24.630  0.00  0.00    +0.120 C 
BRANCH  13  15
ATOM      1  F   UNL     1      -1.130  -0.922  26.842  0.00  0.00    -0.202 F 
ATOM      2  F   UNL     1      -0.822  -3.071  25.180  0.00  0.00    -0.202 F 
ATOM     15  C   UNL     1      -4.108  -0.604  24.777  0.00  0.00    -0.030 A 
ATOM     16  C   UNL     1      -3.155  -0.341  25.761  0.00  0.00    +0.046 A 
ATOM     17  C   UNL     1      -3.951  -1.701  23.929  0.00  0.00    +0.008 A 
ATOM     19  C   UNL     1      -2.045  -1.175  25.897  0.00  0.00    +0.159 A 
ATOM     20  C   UNL     1      -2.841  -2.534  24.066  0.00  0.00    +0.041 A 
ATOM     22  C   UNL     1      -1.888  -2.271  25.050  0.00  0.00    +0.158 A 
ENDBRANCH  13  15
ENDBRANCH   4  13
TORSDOF 5
ENDMDL
MODEL 2
REMARK VINA RESULT:      -3.3      1.165      1.388
REMARK  Name = 45783767
REMARK  6 active torsions:
REMARK  status: ('A' for Active; 'I' for Inactive)
REMARK    1  A    between atoms: N_4  and  C_13
REMARK    2  A    between atoms: N_8  and  C_26
REMARK    3  A    between atoms: N_8  and  C_27
REMARK    4  A    between atoms: C_9  and  C_14
REMARK    5  A    between atoms: C_13  and  C_15
REMARK    6  A    between atoms: C_18  and  C_21
REMARK                            x       y       z     vdW  Elec       q    Type
REMARK                         _______ _______ _______ _____ _____    ______ ____
ROOT
ATOM      4  N   UNL     1      -4.335   2.163  25.493  0.00  0.00    -0.287 NA
ATOM      9  C   UNL     1      -4.118   2.749  24.155  0.00  0.00    +0.146 C 
ATOM     10  C   UNL     1      -4.029   4.266  24.402  0.00  0.00    +0.030 C 
ATOM     11  C   UNL     1      -4.269   4.441  25.895  0.00  0.00    +0.017 C 
ATOM     12  C   UNL     1      -5.021   3.184  26.285  0.00  0.00    +0.085 C 
ENDROOT
BRANCH   9  14
ATOM      3  O   UNL     1      -2.985   1.970  22.135  0.00  0.00    -0.336 OA
ATOM      5  N   UNL     1      -1.717   1.894  23.980  0.00  0.00    -0.190 NA
ATOM      6  N   UNL     1      -1.741   1.467  21.732  0.00  0.00    -0.056 NA
ATOM     14  C   UNL     1      -2.885   2.195  23.471  0.00  0.00    +0.245 A 
ATOM     18  C   UNL     1      -1.049   1.451  22.876  0.00  0.00    +0.204 A 
BRANCH  18  21
ATOM      7  N   UNL     1       2.604   1.449  23.572  0.00  0.00    -0.240 NA
ATOM     21  C   UNL     1       0.311   1.001  22.949  0.00  0.00    +0.041 A 
ATOM     23  C   UNL     1       0.674  -0.260  22.491  0.00  0.00    +0.016 A 
ATOM     24  C   UNL     1       1.304   1.811  23.475  0.00  0.00    +0.124 A 
ATOM     25  C   UNL     1       2.001  -0.668  22.573  0.00  0.00    +0.044 A 
ATOM     26  C   UNL     1       2.919   0.216  23.117  0.00  0.00    +0.118 A 
BRANCH  26   8
ATOM      8  N   UNL     1       4.267  -0.214  23.195  0.00  0.00    -0.332 N 
ATOM     27  C   UNL     1       5.227   0.409  24.047  0.00  0.00    +0.127 C 
ATOM     28  H   UNL     1       4.597  -0.833  22.462  0.00  0.00    +0.147 HD
ENDBRANCH  26   8
ENDBRANCH  18  21
ENDBRANCH   9  14
BRANCH   4  13
ATOM     13  C   UNL     1      -5.076   0.908  25.457  0.00  0.00    +0.120 C 
BRANCH  13  15
ATOM      1  F   UNL     1      -0.864  -1.538  25.783  0.00  0.00    -0.202 F 
ATOM      2  F   UNL     1      -1.776  -3.432  24.036  0.00  0.00    -0.202 F 
ATOM     15  C   UNL     1      -4.193  -0.251  25.077  0.00  0.00    -0.030 A 
ATOM     16  C   UNL     1      -2.911  -0.360  25.616  0.00  0.00    +0.046 A 
ATOM     17  C   UNL     1      -4.658  -1.219  24.186  0.00  0.00    +0.008 A 
ATOM     19  C   UNL     1      -2.095  -1.434  25.265  0.00  0.00    +0.159 A 
ATOM     20  C   UNL     1      -3.842  -2.293  23.834  0.00  0.00    +0.041 A 
ATOM     22  C   UNL     1      -2.560  -2.402  24.373  0.00  0.00    +0.158 A 
ENDBRANCH  13  15
ENDBRANCH   4  13
TORSDOF 5
ENDMDL
MODEL 3
REMARK VINA RESULT:      -2.9      1.750      2.522
REMARK  Name = 45783767
REMARK  6 active torsions:
REMARK  status: ('A' for Active; 'I' for Inactive)
REMARK    1  A    between atoms: N_4  and  C_13
REMARK    2  A    between atoms: N_8  and  C_26
REMARK    3  A    between atoms: N_8  and  C_27
REMARK    4  A    between atoms: C_9  and  C_14
REMARK    5  A    between atoms: C_13  and  C_15
REMARK    6  A    between atoms: C_18  and  C_21
REMARK                            x       y       z     vdW  Elec       q    Type
REMARK                         _______ _______ _______ _____ _____    ______ ____
ROOT
ATOM      4  N   UNL     1      -3.451   2.518  25.297  0.00  0.00    -0.287 NA
ATOM      9  C   UNL     1      -2.553   3.028  24.243  0.00  0.00    +0.146 C 
ATOM     10  C   UNL     1      -2.006   4.355  24.802  0.00  0.00    +0.030 C 
ATOM     11  C   UNL     1      -2.699   4.536  26.145  0.00  0.00    +0.017 C 
ATOM     12  C   UNL     1      -3.950   3.690  26.018  0.00  0.00    +0.085 C 
ENDROOT
BRANCH   9  14
ATOM      3  O   UNL     1      -1.853   0.799  23.530  0.00  0.00    -0.336 OA
ATOM      5  N   UNL     1      -0.158   2.220  23.878  0.00  0.00    -0.190 NA
ATOM      6  N   UNL     1      -0.681   0.082  23.253  0.00  0.00    -0.056 NA
ATOM     14  C   UNL     1      -1.455   2.047  23.889  0.00  0.00    +0.245 A 
ATOM     18  C   UNL     1       0.275   0.988  23.482  0.00  0.00    +0.204 A 
BRANCH  18  21
ATOM      7  N   UNL     1       3.444  -0.947  23.281  0.00  0.00    -0.240 NA
ATOM     21  C   UNL     1       1.670   0.695  23.322  0.00  0.00    +0.041 A 
ATOM     23  C   UNL     1       2.589   1.705  23.064  0.00  0.00    +0.016 A 
ATOM     24  C   UNL     1       2.144  -0.603  23.421  0.00  0.00    +0.124 A 
ATOM     25  C   UNL     1       3.935   1.391  22.915  0.00  0.00    +0.044 A 
ATOM     26  C   UNL     1       4.308   0.062  23.031  0.00  0.00    +0.118 A 
BRANCH  26   8
ATOM      8  N   UNL     1       5.683  -0.243  22.875  0.00  0.00    -0.332 N 
ATOM     27  C   UNL     1       6.535  -0.548  23.977  0.00  0.00    +0.127 C 
ATOM     28  H   UNL     1       6.108  -0.017  21.981  0.00  0.00    +0.147 HD
ENDBRANCH  26   8
ENDBRANCH  18  21
ENDBRANCH   9  14
BRANCH   4  13
ATOM     13  C   UNL     1      -4.534   1.691  24.779  0.00  0.00    +0.120 C 
BRANCH  13  15
ATOM      1  F   UNL     1      -4.631  -2.835  22.955  0.00  0.00    -0.202 F 
ATOM      2  F   UNL     1      -3.336  -3.801  25.160  0.00  0.00    -0.202 F 
ATOM     15  C   UNL     1      -4.215   0.224  24.881  0.00  0.00    -0.030 A 
ATOM     16  C   UNL     1      -4.579  -0.643  23.851  0.00  0.00    +0.046 A 
ATOM     17  C   UNL     1      -3.554  -0.270  26.006  0.00  0.00    +0.008 A 
ATOM     19  C   UNL     1      -4.282  -2.003  23.945  0.00  0.00    +0.159 A 
ATOM     20  C   UNL     1      -3.257  -1.629  26.100  0.00  0.00    +0.041 A 
ATOM     22  C   UNL     1      -3.621  -2.496  25.070  0.00  0.00    +0.158 A 
ENDBRANCH  13  15
ENDBRANCH   4  13
TORSDOF 5
ENDMDL
MODEL 4
REMARK VINA RESULT:      -1.7      2.236      3.839
REMARK  Name = 45783767
REMARK  6 active torsions:
REMARK  status: ('A' for Active; 'I' for Inactive)
REMARK    1  A    between atoms: N_4  and  C_13
REMARK    2  A    between atoms: N_8  and  C_26
REMARK    3  A    between atoms: N_8  and  C_27
REMARK    4  A    between atoms: C_9  and  C_14
REMARK    5  A    between atoms: C_13  and  C_15
REMARK    6  A    between atoms: C_18  and  C_21
REMARK                            x       y       z     vdW  Elec       q    Type
REMARK                         _______ _______ _______ _____ _____    ______ ____
ROOT
ATOM      4  N   UNL     1      -4.923   2.073  25.096  0.00  0.00    -0.287 NA
ATOM      9  C   UNL     1      -4.092   0.853  25.088  0.00  0.00    +0.146 C 
ATOM     10  C   UNL     1      -5.034  -0.258  24.587  0.00  0.00    +0.030 C 
ATOM     11  C   UNL     1      -6.384   0.419  24.399  0.00  0.00    +0.017 C 
ATOM     12  C   UNL     1      -6.303   1.633  25.304  0.00  0.00    +0.085 C 
ENDROOT
BRANCH   9  14
ATOM      3  O   UNL     1      -3.012   1.637  23.042  0.00  0.00    -0.336 OA
ATOM      5  N   UNL     1      -1.630   0.594  24.462  0.00  0.00    -0.190 NA
ATOM      6  N   UNL     1      -1.748   1.649  22.436  0.00  0.00    -0.056 NA
ATOM     14  C   UNL     1      -2.853   0.999  24.230  0.00  0.00    +0.245 A 
ATOM     18  C   UNL     1      -0.989   1.015  23.334  0.00  0.00    +0.204 A 
BRANCH  18  21
ATOM      7  N   UNL     1       2.694   1.504  23.507  0.00  0.00    -0.240 NA
ATOM     21  C   UNL     1       0.414   0.789  23.136  0.00  0.00    +0.041 A 
ATOM     23  C   UNL     1       0.868  -0.307  22.412  0.00  0.00    +0.016 A 
ATOM     24  C   UNL     1       1.359   1.658  23.658  0.00  0.00    +0.124 A 
ATOM     25  C   UNL     1       2.234  -0.499  22.235  0.00  0.00    +0.044 A 
ATOM     26  C   UNL     1       3.097   0.426  22.798  0.00  0.00    +0.118 A 
BRANCH  26   8
ATOM      8  N   UNL     1       4.486   0.216  22.611  0.00  0.00    -0.332 N 
ATOM     27  C   UNL     1       5.398   0.072  23.698  0.00  0.00    +0.127 C 
ATOM     28  H   UNL     1       4.860   0.399  21.684  0.00  0.00    +0.147 HD
ENDBRANCH  26   8
ENDBRANCH  18  21
ENDBRANCH   9  14
BRANCH   4  13
ATOM     13  C   UNL     1      -4.503   3.048  26.095  0.00  0.00    +0.120 C 
BRANCH  13  15
ATOM      1  F   UNL     1       0.366   3.391  26.167  0.00  0.00    -0.202 F 
ATOM      2  F   UNL     1       0.276   5.636  24.610  0.00  0.00    -0.202 F 
ATOM     15  C   UNL     1      -3.226   3.740  25.699  0.00  0.00    -0.030 A 
ATOM     16  C   UNL     1      -1.997   3.235  26.126  0.00  0.00    +0.046 A 
ATOM     17  C   UNL     1      -3.270   4.885  24.904  0.00  0.00    +0.008 A 
ATOM     19  C   UNL     1      -0.814   3.875  25.758  0.00  0.00    +0.159 A 
ATOM     20  C   UNL     1      -2.088   5.525  24.536  0.00  0.00    +0.041 A 
ATOM     22  C   UNL     1      -0.859   5.021  24.963  0.00  0.00    +0.158 A 
ENDBRANCH  13  15
ENDBRANCH   4  13
TORSDOF 5
ENDMDL
MODEL 5
REMARK VINA RESULT:      -1.5      2.592      4.432
REMARK  Name = 45783767
REMARK  6 active torsions:
REMARK  status: ('A' for Active; 'I' for Inactive)
REMARK    1  A    between atoms: N_4  and  C_13
REMARK    2  A    between atoms: N_8  and  C_26
REMARK    3  A    between atoms: N_8  and  C_27
REMARK    4  A    between atoms: C_9  and  C_14
REMARK    5  A    between atoms: C_13  and  C_15
REMARK    6  A    between atoms: C_18  and  C_21
REMARK                            x       y       z     vdW  Elec       q    Type
REMARK                         _______ _______ _______ _____ _____    ______ ____
ROOT
ATOM      4  N   UNL     1      -3.173  -0.186  23.579  0.00  0.00    -0.287 NA
ATOM      9  C   UNL     1      -2.041  -0.116  24.525  0.00  0.00    +0.146 C 
ATOM     10  C   UNL     1      -2.241  -1.321  25.463  0.00  0.00    +0.030 C 
ATOM     11  C   UNL     1      -3.539  -1.970  25.007  0.00  0.00    +0.017 C 
ATOM     12  C   UNL     1      -4.266  -0.849  24.291  0.00  0.00    +0.085 C 
ENDROOT
BRANCH   9  14
ATOM      3  O   UNL     1      -0.722  -0.194  22.470  0.00  0.00    -0.336 OA
ATOM      5  N   UNL     1       0.506  -0.107  24.340  0.00  0.00    -0.190 NA
ATOM      6  N   UNL     1       0.617  -0.201  22.057  0.00  0.00    -0.056 NA
ATOM     14  C   UNL     1      -0.698  -0.136  23.827  0.00  0.00    +0.245 A 
ATOM     18  C   UNL     1       1.279  -0.150  23.217  0.00  0.00    +0.204 A 
BRANCH  18  21
ATOM      7  N   UNL     1       4.763  -1.281  23.856  0.00  0.00    -0.240 NA
ATOM     21  C   UNL     1       2.711  -0.135  23.287  0.00  0.00    +0.041 A 
ATOM     23  C   UNL     1       3.437   0.978  22.881  0.00  0.00    +0.016 A 
ATOM     24  C   UNL     1       3.415  -1.230  23.763  0.00  0.00    +0.124 A 
ATOM     25  C   UNL     1       4.826   0.963  22.961  0.00  0.00    +0.044 A 
ATOM     26  C   UNL     1       5.435  -0.180  23.451  0.00  0.00    +0.118 A 
BRANCH  26   8
ATOM      8  N   UNL     1       6.850  -0.181  23.526  0.00  0.00    -0.332 N 
ATOM     27  C   UNL     1       7.672  -0.859  22.578  0.00  0.00    +0.127 C 
ATOM     28  H   UNL     1       7.266   0.121  24.401  0.00  0.00    +0.147 HD
ENDBRANCH  26   8
ENDBRANCH  18  21
ENDBRANCH   9  14
BRANCH   4  13
ATOM     13  C   UNL     1      -3.568   1.117  23.060  0.00  0.00    +0.120 C 
BRANCH  13  15
ATOM      1  F   UNL     1      -1.044   4.599  25.368  0.00  0.00    -0.202 F 
ATOM      2  F   UNL     1      -3.182   5.144  26.982  0.00  0.00    -0.202 F 
ATOM     15  C   UNL     1      -3.465   2.193  24.108  0.00  0.00    -0.030 A 
ATOM     16  C   UNL     1      -2.278   2.912  24.256  0.00  0.00    +0.046 A 
ATOM     17  C   UNL     1      -4.555   2.471  24.932  0.00  0.00    +0.008 A 
ATOM     19  C   UNL     1      -2.183   3.909  25.226  0.00  0.00    +0.159 A 
ATOM     20  C   UNL     1      -4.460   3.468  25.903  0.00  0.00    +0.041 A 
ATOM     22  C   UNL     1      -3.274   4.187  26.050  0.00  0.00    +0.158 A 
ENDBRANCH  13  15
ENDBRANCH   4  13
TORSDOF 5
ENDMDL
MODEL 6
REMARK VINA RESULT:      -1.1      2.762      4.489
REMARK  Name = 45783767
REMARK  6 active torsions:
REMARK  status: ('A' for Active; 'I' for Inactive)
REMARK    1  A    between atoms: N_4  and  C_13
REMARK    2  A    between atoms: N_8  and  C_26
REMARK    3  A    between atoms: N_8  and  C_27
REMARK    4  A    between atoms: C_9  and  C_14
REMARK    5  A    between atoms: C_13  and  C_15
REMARK    6  A    between atoms: C_18  and  C_21
REMARK                            x       y       z     vdW  Elec       q    Type
REMARK                         _______ _______ _______ _____ _____    ______ ____
ROOT
ATOM      4  N   UNL     1      -3.205  -0.574  24.681  0.00  0.00    -0.287 NA
ATOM      9  C   UNL     1      -2.049  -1.492  24.700  0.00  0.00    +0.146 C 
ATOM     10  C   UNL     1      -2.522  -2.733  23.920  0.00  0.00    +0.030 C 
ATOM     11  C   UNL     1      -3.972  -2.446  23.557  0.00  0.00    +0.017 C 
ATOM     12  C   UNL     1      -4.399  -1.414  24.582  0.00  0.00    +0.085 C 
ENDROOT
BRANCH   9  14
ATOM      3  O   UNL     1      -0.995   0.123  23.200  0.00  0.00    -0.336 OA
ATOM      5  N   UNL     1       0.456  -1.151  24.335  0.00  0.00    -0.190 NA
ATOM      6  N   UNL     1       0.283   0.535  22.798  0.00  0.00    -0.056 NA
ATOM     14  C   UNL     1      -0.802  -0.871  24.106  0.00  0.00    +0.245 A 
ATOM     18  C   UNL     1       1.083  -0.264  23.510  0.00  0.00    +0.204 A 
BRANCH  18  21
ATOM      7  N   UNL     1       4.491   1.056  22.821  0.00  0.00    -0.240 NA
ATOM     21  C   UNL     1       2.513  -0.198  23.423  0.00  0.00    +0.041 A 
ATOM     23  C   UNL     1       3.306  -1.266  23.829  0.00  0.00    +0.016 A 
ATOM     24  C   UNL     1       3.149   0.931  22.930  0.00  0.00    +0.124 A 
ATOM     25  C   UNL     1       4.690  -1.173  23.732  0.00  0.00    +0.044 A 
ATOM     26  C   UNL     1       5.228  -0.002  23.226  0.00  0.00    +0.118 A 
BRANCH  26   8
ATOM      8  N   UNL     1       6.640   0.078  23.134  0.00  0.00    -0.332 N 
ATOM     27  C   UNL     1       7.443  -0.998  22.651  0.00  0.00    +0.127 C 
ATOM     28  H   UNL     1       7.093   0.836  23.634  0.00  0.00    +0.147 HD
ENDBRANCH  26   8
ENDBRANCH  18  21
ENDBRANCH   9  14
BRANCH   4  13
ATOM     13  C   UNL     1      -3.253   0.313  25.836  0.00  0.00    +0.120 C 
BRANCH  13  15
ATOM      1  F   UNL     1      -3.953   4.741  23.905  0.00  0.00    -0.202 F 
ATOM      2  F   UNL     1      -1.413   5.489  24.584  0.00  0.00    -0.202 F 
ATOM     15  C   UNL     1      -2.762   1.696  25.501  0.00  0.00    -0.030 A 
ATOM     16  C   UNL     1      -3.602   2.595  24.845  0.00  0.00    +0.046 A 
ATOM     17  C   UNL     1      -1.465   2.078  25.847  0.00  0.00    +0.008 A 
ATOM     19  C   UNL     1      -3.146   3.877  24.535  0.00  0.00    +0.159 A 
ATOM     20  C   UNL     1      -1.010   3.359  25.538  0.00  0.00    +0.041 A 
ATOM     22  C   UNL     1      -1.850   4.259  24.882  0.00  0.00    +0.158 A 
ENDBRANCH  13  15
ENDBRANCH   4  13
TORSDOF 5
ENDMDL
