MODEL 1
REMARK VINA RESULT:      -2.7      0.000      0.000
REMARK  Name = 45783456
REMARK  10 active torsions:
REMARK  status: ('A' for Active; 'I' for Inactive)
REMARK    1  A    between atoms: O_5  and  C_27
REMARK    2  A    between atoms: O_5  and  C_30
REMARK    3  A    between atoms: O_6  and  C_31
REMARK    4  A    between atoms: O_6  and  C_32
REMARK    5  A    between atoms: N_7  and  C_15
REMARK    6  A    between atoms: C_11  and  C_16
REMARK    7  A    between atoms: C_15  and  C_17
REMARK    8  A    between atoms: C_20  and  C_24
REMARK    9  A    between atoms: C_23  and  C_25
REMARK   10  A    between atoms: C_30  and  C_31
REMARK                            x       y       z     vdW  Elec       q    Type
REMARK                         _______ _______ _______ _____ _____    ______ ____
ROOT
ATOM      7  N   UNL     1      -5.207   2.633  25.440  0.00  0.00    -0.287 NA
ATOM     11  C   UNL     1      -4.356   3.210  24.379  0.00  0.00    +0.146 C 
ATOM     12  C   UNL     1      -4.481   4.733  24.561  0.00  0.00    +0.030 C 
ATOM     13  C   UNL     1      -5.467   4.917  25.707  0.00  0.00    +0.017 C 
ATOM     14  C   UNL     1      -6.251   3.620  25.714  0.00  0.00    +0.085 C 
ENDROOT
BRANCH  11  16
ATOM      4  O   UNL     1      -2.229   3.063  25.574  0.00  0.00    -0.336 OA
ATOM      8  N   UNL     1      -2.239   2.021  23.591  0.00  0.00    -0.189 NA
ATOM      9  N   UNL     1      -0.950   2.513  25.416  0.00  0.00    -0.054 NA
ATOM     16  C   UNL     1      -2.924   2.726  24.455  0.00  0.00    +0.245 A 
ATOM     20  C   UNL     1      -1.034   1.916  24.224  0.00  0.00    +0.221 A 
BRANCH  20  24
ATOM     10  N   UNL     1      -0.250   0.031  23.042  0.00  0.00    -0.252 NA
ATOM     24  C   UNL     1       0.064   1.204  23.637  0.00  0.00    +0.115 A 
ATOM     26  C   UNL     1       1.348   1.721  23.702  0.00  0.00    +0.077 A 
ATOM     27  C   UNL     1       2.375   0.989  23.119  0.00  0.00    +0.124 A 
ATOM     28  C   UNL     1       0.775  -0.653  22.485  0.00  0.00    +0.115 A 
ATOM     29  C   UNL     1       2.092  -0.222  22.496  0.00  0.00    +0.065 A 
BRANCH  27   5
ATOM      5  O   UNL     1       3.653   1.455  23.155  0.00  0.00    -0.490 OA
BRANCH   5  30
ATOM     30  C   UNL     1       4.687   0.548  22.775  0.00  0.00    +0.257 C 
BRANCH  30  31
ATOM     31  C   UNL     1       5.719   0.481  23.884  0.00  0.00    +0.200 C 
BRANCH  31   6
ATOM      6  O   UNL     1       5.501  -0.696  24.652  0.00  0.00    -0.380 OA
ATOM     32  C   UNL     1       4.821  -1.691  23.900  0.00  0.00    +0.194 C 
ENDBRANCH  31   6
ENDBRANCH  30  31
ENDBRANCH   5  30
ENDBRANCH  27   5
ENDBRANCH  20  24
ENDBRANCH  11  16
BRANCH   7  15
ATOM     15  C   UNL     1      -5.761   1.332  25.089  0.00  0.00    +0.120 C 
BRANCH  15  17
ATOM     17  C   UNL     1      -4.695   0.272  25.008  0.00  0.00    -0.033 A 
ATOM     18  C   UNL     1      -3.857   0.041  26.098  0.00  0.00    +0.005 A 
ATOM     19  C   UNL     1      -4.544  -0.477  23.841  0.00  0.00    +0.005 A 
ATOM     21  C   UNL     1      -2.869  -0.941  26.023  0.00  0.00    +0.012 A 
ATOM     22  C   UNL     1      -3.556  -1.459  23.766  0.00  0.00    +0.012 A 
ATOM     23  C   UNL     1      -2.718  -1.691  24.856  0.00  0.00    +0.055 A 
BRANCH  23  25
ATOM      1  F   UNL     1      -1.477  -3.237  23.518  0.00  0.00    -0.166 F 
ATOM      2  F   UNL     1      -1.944  -3.826  25.559  0.00  0.00    -0.166 F 
ATOM      3  F   UNL     1      -0.431  -2.312  25.177  0.00  0.00    -0.166 F 
ATOM     25  C   UNL     1      -1.664  -2.742  24.777  0.00  0.00    +0.417 C 
ENDBRANCH  23  25
ENDBRANCH  15  17
ENDBRANCH   7  15
TORSDOF 9
ENDMDL
MODEL 2
REMARK VINA RESULT:      -1.0      2.985      4.413
REMARK  Name = 45783456
REMARK  10 active torsions:
REMARK  status: ('A' for Active; 'I' for Inactive)
REMARK    1  A    between atoms: O_5  and  C_27
REMARK    2  A    between atoms: O_5  and  C_30
REMARK    3  A    between atoms: O_6  and  C_31
REMARK    4  A    between atoms: O_6  and  C_32
REMARK    5  A    between atoms: N_7  and  C_15
REMARK    6  A    between atoms: C_11  and  C_16
REMARK    7  A    between atoms: C_15  and  C_17
REMARK    8  A    between atoms: C_20  and  C_24
REMARK    9  A    between atoms: C_23  and  C_25
REMARK   10  A    between atoms: C_30  and  C_31
REMARK                            x       y       z     vdW  Elec       q    Type
REMARK                         _______ _______ _______ _____ _____    ______ ____
ROOT
ATOM      7  N   UNL     1      -4.212  -0.581  24.179  0.00  0.00    -0.287 NA
ATOM     11  C   UNL     1      -3.178  -1.059  25.117  0.00  0.00    +0.146 C 
ATOM     12  C   UNL     1      -3.219  -2.593  24.997  0.00  0.00    +0.030 C 
ATOM     13  C   UNL     1      -4.345  -2.885  24.015  0.00  0.00    +0.017 C 
ATOM     14  C   UNL     1      -5.213  -1.645  24.089  0.00  0.00    +0.085 C 
ENDROOT
BRANCH  11  16
ATOM      4  O   UNL     1      -1.301   0.379  25.735  0.00  0.00    -0.336 OA
ATOM      8  N   UNL     1      -1.028  -0.696  23.790  0.00  0.00    -0.189 NA
ATOM      9  N   UNL     1      -0.048   0.771  25.247  0.00  0.00    -0.054 NA
ATOM     16  C   UNL     1      -1.810  -0.484  24.818  0.00  0.00    +0.245 A 
ATOM     20  C   UNL     1       0.041   0.096  24.097  0.00  0.00    +0.221 A 
BRANCH  20  24
ATOM     10  N   UNL     1       1.074  -0.454  22.049  0.00  0.00    -0.252 NA
ATOM     24  C   UNL     1       1.183   0.187  23.234  0.00  0.00    +0.115 A 
ATOM     26  C   UNL     1       2.305   0.896  23.631  0.00  0.00    +0.077 A 
ATOM     27  C   UNL     1       3.384   0.951  22.757  0.00  0.00    +0.124 A 
ATOM     28  C   UNL     1       2.143  -0.379  21.224  0.00  0.00    +0.115 A 
ATOM     29  C   UNL     1       3.309   0.304  21.528  0.00  0.00    +0.065 A 
BRANCH  27   5
ATOM      5  O   UNL     1       4.508   1.636  23.100  0.00  0.00    -0.490 OA
BRANCH   5  30
ATOM     30  C   UNL     1       5.397   1.004  24.021  0.00  0.00    +0.257 C 
BRANCH  30  31
ATOM     31  C   UNL     1       5.865  -0.313  23.432  0.00  0.00    +0.200 C 
BRANCH  31   6
ATOM      6  O   UNL     1       5.539  -1.366  24.331  0.00  0.00    -0.380 OA
ATOM     32  C   UNL     1       4.345  -2.031  23.943  0.00  0.00    +0.194 C 
ENDBRANCH  31   6
ENDBRANCH  30  31
ENDBRANCH   5  30
ENDBRANCH  27   5
ENDBRANCH  20  24
ENDBRANCH  11  16
BRANCH   7  15
ATOM     15  C   UNL     1      -4.802   0.693  24.572  0.00  0.00    +0.120 C 
BRANCH  15  17
ATOM     17  C   UNL     1      -3.778   1.796  24.608  0.00  0.00    -0.033 A 
ATOM     18  C   UNL     1      -3.601   2.545  25.772  0.00  0.00    +0.005 A 
ATOM     19  C   UNL     1      -3.008   2.070  23.478  0.00  0.00    +0.005 A 
ATOM     21  C   UNL     1      -2.652   3.568  25.805  0.00  0.00    +0.012 A 
ATOM     22  C   UNL     1      -2.059   3.092  23.512  0.00  0.00    +0.012 A 
ATOM     23  C   UNL     1      -1.881   3.841  24.675  0.00  0.00    +0.055 A 
BRANCH  23  25
ATOM      1  F   UNL     1      -1.375   6.143  25.081  0.00  0.00    -0.166 F 
ATOM      2  F   UNL     1      -0.272   5.138  23.499  0.00  0.00    -0.166 F 
ATOM      3  F   UNL     1       0.159   4.695  25.584  0.00  0.00    -0.166 F 
ATOM     25  C   UNL     1      -0.865   4.932  24.712  0.00  0.00    +0.417 C 
ENDBRANCH  23  25
ENDBRANCH  15  17
ENDBRANCH   7  15
TORSDOF 9
ENDMDL
