MODEL 1
REMARK VINA RESULT:       1.4      0.000      0.000
REMARK  Name = 75536302
REMARK  9 active torsions:
REMARK  status: ('A' for Active; 'I' for Inactive)
REMARK    1  A    between atoms: O_2  and  C_10
REMARK    2  A    between atoms: O_5  and  C_27
REMARK    3  A    between atoms: O_5  and  C_31
REMARK    4  A    between atoms: N_6  and  C_14
REMARK    5  A    between atoms: C_8  and  C_14
REMARK    6  A    between atoms: C_9  and  C_13
REMARK    7  A    between atoms: C_13  and  C_15
REMARK    8  A    between atoms: C_17  and  C_19
REMARK    9  A    between atoms: C_18  and  C_20
REMARK                            x       y       z     vdW  Elec       q    Type
REMARK                         _______ _______ _______ _____ _____    ______ ____
ROOT
ATOM      1  O   UNL     1      -4.412   3.196  26.481  0.00  0.00    -0.369 OA
ATOM      8  C   UNL     1      -5.695   3.010  25.868  0.00  0.00    +0.164 C 
ATOM      9  C   UNL     1      -3.350   3.520  25.581  0.00  0.00    +0.125 C 
ATOM     10  C   UNL     1      -6.102   4.236  25.042  0.00  0.00    +0.145 C 
ATOM     11  C   UNL     1      -3.664   4.807  24.819  0.00  0.00    +0.034 C 
ATOM     12  C   UNL     1      -4.998   4.689  24.090  0.00  0.00    +0.036 C 
ENDROOT
BRANCH  10   2
ATOM      2  O   UNL     1      -6.381   5.320  25.932  0.00  0.00    -0.389 OA
ATOM     32  H   UNL     1      -6.011   6.128  25.537  0.00  0.00    +0.210 HD
ENDBRANCH  10   2
BRANCH   9  13
ATOM     13  C   UNL     1      -2.080   3.676  26.409  0.00  0.00    +0.090 C 
BRANCH  13  15
ATOM      3  O   UNL     1       0.987   1.911  25.724  0.00  0.00    -0.354 OA
ATOM      7  N   UNL     1       0.133   2.610  26.568  0.00  0.00    -0.083 NA
ATOM     15  C   UNL     1      -0.930   2.907  25.815  0.00  0.00    +0.087 A 
ATOM     16  C   UNL     1      -0.804   2.427  24.500  0.00  0.00    +0.076 A 
ATOM     18  C   UNL     1       0.419   1.809  24.496  0.00  0.00    +0.167 A 
BRANCH  18  20
ATOM     20  C   UNL     1       1.188   1.106  23.511  0.00  0.00    +0.020 A 
ATOM     23  C   UNL     1       2.553   1.364  23.378  0.00  0.00    +0.011 A 
ATOM     24  C   UNL     1       0.574   0.163  22.687  0.00  0.00    +0.011 A 
ATOM     28  C   UNL     1       3.302   0.680  22.421  0.00  0.00    +0.001 A 
ATOM     29  C   UNL     1       1.324  -0.522  21.730  0.00  0.00    +0.001 A 
ATOM     30  C   UNL     1       2.688  -0.262  21.597  0.00  0.00    +0.000 A 
ENDBRANCH  18  20
ENDBRANCH  13  15
ENDBRANCH   9  13
BRANCH   8  14
ATOM     14  C   UNL     1      -5.739   1.710  25.067  0.00  0.00    +0.138 C 
BRANCH  14   6
ATOM      4  O   UNL     1      -5.158  -0.884  23.982  0.00  0.00    -0.270 OA
ATOM      6  N   UNL     1      -4.519   0.976  25.214  0.00  0.00    -0.309 N 
ATOM     17  C   UNL     1      -4.321  -0.283  24.650  0.00  0.00    +0.244 C 
ATOM     33  H   UNL     1      -3.817   1.376  25.826  0.00  0.00    +0.149 HD
BRANCH  17  19
ATOM     19  C   UNL     1      -3.008  -0.925  24.917  0.00  0.00    +0.037 A 
ATOM     21  C   UNL     1      -2.137  -0.369  25.856  0.00  0.00    +0.016 A 
ATOM     22  C   UNL     1      -2.645  -2.084  24.230  0.00  0.00    +0.016 A 
ATOM     25  C   UNL     1      -0.905  -0.973  26.106  0.00  0.00    +0.046 A 
ATOM     26  C   UNL     1      -1.413  -2.686  24.482  0.00  0.00    +0.046 A 
ATOM     27  C   UNL     1      -0.543  -2.131  25.418  0.00  0.00    +0.120 A 
BRANCH  27   5
ATOM      5  O   UNL     1       0.660  -2.719  25.664  0.00  0.00    -0.495 OA
ATOM     31  C   UNL     1       1.770  -2.277  24.884  0.00  0.00    +0.277 C 
ENDBRANCH  27   5
ENDBRANCH  17  19
ENDBRANCH  14   6
ENDBRANCH   8  14
TORSDOF 8
ENDMDL
MODEL 2
REMARK VINA RESULT:       2.5      2.348      4.177
REMARK  Name = 75536302
REMARK  9 active torsions:
REMARK  status: ('A' for Active; 'I' for Inactive)
REMARK    1  A    between atoms: O_2  and  C_10
REMARK    2  A    between atoms: O_5  and  C_27
REMARK    3  A    between atoms: O_5  and  C_31
REMARK    4  A    between atoms: N_6  and  C_14
REMARK    5  A    between atoms: C_8  and  C_14
REMARK    6  A    between atoms: C_9  and  C_13
REMARK    7  A    between atoms: C_13  and  C_15
REMARK    8  A    between atoms: C_17  and  C_19
REMARK    9  A    between atoms: C_18  and  C_20
REMARK                            x       y       z     vdW  Elec       q    Type
REMARK                         _______ _______ _______ _____ _____    ______ ____
ROOT
ATOM      1  O   UNL     1      -3.650   1.982  25.428  0.00  0.00    -0.369 OA
ATOM      8  C   UNL     1      -4.378   0.747  25.470  0.00  0.00    +0.164 C 
ATOM      9  C   UNL     1      -4.041   2.884  24.390  0.00  0.00    +0.125 C 
ATOM     10  C   UNL     1      -5.888   0.994  25.570  0.00  0.00    +0.145 C 
ATOM     11  C   UNL     1      -5.518   3.250  24.523  0.00  0.00    +0.034 C 
ATOM     12  C   UNL     1      -6.385   1.995  24.530  0.00  0.00    +0.036 C 
ENDROOT
BRANCH  10   2
ATOM      2  O   UNL     1      -6.184   1.527  26.863  0.00  0.00    -0.389 OA
ATOM     32  H   UNL     1      -5.453   1.284  27.457  0.00  0.00    +0.210 HD
ENDBRANCH  10   2
BRANCH   9  13
ATOM     13  C   UNL     1      -3.162   4.123  24.505  0.00  0.00    +0.090 C 
BRANCH  13  15
ATOM      3  O   UNL     1       0.265   3.541  25.458  0.00  0.00    -0.354 OA
ATOM      7  N   UNL     1      -0.715   3.862  24.527  0.00  0.00    -0.083 NA
ATOM     15  C   UNL     1      -1.864   3.823  25.206  0.00  0.00    +0.087 A 
ATOM     16  C   UNL     1      -1.675   3.485  26.557  0.00  0.00    +0.076 A 
ATOM     18  C   UNL     1      -0.319   3.318  26.663  0.00  0.00    +0.167 A 
BRANCH  18  20
ATOM     20  C   UNL     1       0.573   2.976  27.732  0.00  0.00    +0.020 A 
ATOM     23  C   UNL     1       1.953   3.013  27.527  0.00  0.00    +0.011 A 
ATOM     24  C   UNL     1       0.063   2.607  28.977  0.00  0.00    +0.011 A 
ATOM     28  C   UNL     1       2.822   2.681  28.567  0.00  0.00    +0.001 A 
ATOM     29  C   UNL     1       0.932   2.275  30.017  0.00  0.00    +0.001 A 
ATOM     30  C   UNL     1       2.311   2.311  29.811  0.00  0.00    +0.000 A 
ENDBRANCH  18  20
ENDBRANCH  13  15
ENDBRANCH   9  13
BRANCH   8  14
ATOM     14  C   UNL     1      -3.998  -0.156  24.297  0.00  0.00    +0.138 C 
BRANCH  14   6
ATOM      4  O   UNL     1      -1.635  -1.565  25.116  0.00  0.00    -0.270 OA
ATOM      6  N   UNL     1      -2.658   0.101  23.866  0.00  0.00    -0.309 N 
ATOM     17  C   UNL     1      -1.564  -0.636  24.316  0.00  0.00    +0.244 C 
ATOM     33  H   UNL     1      -2.517   0.910  23.271  0.00  0.00    +0.149 HD
BRANCH  17  19
ATOM     19  C   UNL     1      -0.235  -0.228  23.793  0.00  0.00    +0.037 A 
ATOM     21  C   UNL     1       0.434   0.859  24.359  0.00  0.00    +0.016 A 
ATOM     22  C   UNL     1       0.346  -0.930  22.737  0.00  0.00    +0.016 A 
ATOM     25  C   UNL     1       1.682   1.242  23.869  0.00  0.00    +0.046 A 
ATOM     26  C   UNL     1       1.594  -0.547  22.248  0.00  0.00    +0.046 A 
ATOM     27  C   UNL     1       2.262   0.539  22.813  0.00  0.00    +0.120 A 
BRANCH  27   5
ATOM      5  O   UNL     1       3.480   0.913  22.335  0.00  0.00    -0.495 OA
ATOM     31  C   UNL     1       4.625   0.504  23.082  0.00  0.00    +0.277 C 
ENDBRANCH  27   5
ENDBRANCH  17  19
ENDBRANCH  14   6
ENDBRANCH   8  14
TORSDOF 8
ENDMDL
MODEL 3
REMARK VINA RESULT:       2.6      2.939      5.629
REMARK  Name = 75536302
REMARK  9 active torsions:
REMARK  status: ('A' for Active; 'I' for Inactive)
REMARK    1  A    between atoms: O_2  and  C_10
REMARK    2  A    between atoms: O_5  and  C_27
REMARK    3  A    between atoms: O_5  and  C_31
REMARK    4  A    between atoms: N_6  and  C_14
REMARK    5  A    between atoms: C_8  and  C_14
REMARK    6  A    between atoms: C_9  and  C_13
REMARK    7  A    between atoms: C_13  and  C_15
REMARK    8  A    between atoms: C_17  and  C_19
REMARK    9  A    between atoms: C_18  and  C_20
REMARK                            x       y       z     vdW  Elec       q    Type
REMARK                         _______ _______ _______ _____ _____    ______ ____
ROOT
ATOM      1  O   UNL     1      -1.826   0.144  24.861  0.00  0.00    -0.369 OA
ATOM      8  C   UNL     1      -1.815  -1.288  24.928  0.00  0.00    +0.164 C 
ATOM      9  C   UNL     1      -2.662   0.699  23.842  0.00  0.00    +0.125 C 
ATOM     10  C   UNL     1      -3.233  -1.850  25.091  0.00  0.00    +0.145 C 
ATOM     11  C   UNL     1      -4.112   0.257  24.037  0.00  0.00    +0.034 C 
ATOM     12  C   UNL     1      -4.211  -1.265  24.076  0.00  0.00    +0.036 C 
ENDROOT
BRANCH  10   2
ATOM      2  O   UNL     1      -3.712  -1.520  26.397  0.00  0.00    -0.389 OA
ATOM     32  H   UNL     1      -3.222  -0.737  26.702  0.00  0.00    +0.210 HD
ENDBRANCH  10   2
BRANCH   9  13
ATOM     13  C   UNL     1      -2.541   2.215  23.926  0.00  0.00    +0.090 C 
BRANCH  13  15
ATOM      3  O   UNL     1       0.135   3.836  25.715  0.00  0.00    -0.354 OA
ATOM      7  N   UNL     1      -0.759   3.748  24.655  0.00  0.00    -0.083 NA
ATOM     15  C   UNL     1      -1.461   2.636  24.887  0.00  0.00    +0.087 A 
ATOM     16  C   UNL     1      -1.059   1.986  26.066  0.00  0.00    +0.076 A 
ATOM     18  C   UNL     1      -0.053   2.782  26.548  0.00  0.00    +0.167 A 
BRANCH  18  20
ATOM     20  C   UNL     1       0.802   2.738  27.698  0.00  0.00    +0.020 A 
ATOM     23  C   UNL     1       2.150   3.079  27.578  0.00  0.00    +0.011 A 
ATOM     24  C   UNL     1       0.287   2.357  28.938  0.00  0.00    +0.011 A 
ATOM     28  C   UNL     1       2.982   3.038  28.697  0.00  0.00    +0.001 A 
ATOM     29  C   UNL     1       1.120   2.315  30.056  0.00  0.00    +0.001 A 
ATOM     30  C   UNL     1       2.468   2.655  29.936  0.00  0.00    +0.000 A 
ENDBRANCH  18  20
ENDBRANCH  13  15
ENDBRANCH   9  13
BRANCH   8  14
ATOM     14  C   UNL     1      -1.069  -1.890  23.738  0.00  0.00    +0.138 C 
BRANCH  14   6
ATOM      4  O   UNL     1       0.236   0.184  22.243  0.00  0.00    -0.270 OA
ATOM      6  N   UNL     1       0.321  -1.551  23.780  0.00  0.00    -0.309 N 
ATOM     17  C   UNL     1       0.873  -0.525  23.018  0.00  0.00    +0.244 C 
ATOM     33  H   UNL     1       0.921  -2.153  24.335  0.00  0.00    +0.149 HD
BRANCH  17  19
ATOM     19  C   UNL     1       2.338  -0.316  23.155  0.00  0.00    +0.037 A 
ATOM     21  C   UNL     1       3.139  -1.326  23.690  0.00  0.00    +0.016 A 
ATOM     22  C   UNL     1       2.912   0.889  22.749  0.00  0.00    +0.016 A 
ATOM     25  C   UNL     1       4.514  -1.130  23.818  0.00  0.00    +0.046 A 
ATOM     26  C   UNL     1       4.287   1.083  22.877  0.00  0.00    +0.046 A 
ATOM     27  C   UNL     1       5.088   0.075  23.412  0.00  0.00    +0.120 A 
BRANCH  27   5
ATOM      5  O   UNL     1       6.430   0.266  23.538  0.00  0.00    -0.495 OA
ATOM     31  C   UNL     1       7.283  -0.652  22.855  0.00  0.00    +0.277 C 
ENDBRANCH  27   5
ENDBRANCH  17  19
ENDBRANCH  14   6
ENDBRANCH   8  14
TORSDOF 8
ENDMDL
MODEL 4
REMARK VINA RESULT:       2.7      2.082      5.337
REMARK  Name = 75536302
REMARK  9 active torsions:
REMARK  status: ('A' for Active; 'I' for Inactive)
REMARK    1  A    between atoms: O_2  and  C_10
REMARK    2  A    between atoms: O_5  and  C_27
REMARK    3  A    between atoms: O_5  and  C_31
REMARK    4  A    between atoms: N_6  and  C_14
REMARK    5  A    between atoms: C_8  and  C_14
REMARK    6  A    between atoms: C_9  and  C_13
REMARK    7  A    between atoms: C_13  and  C_15
REMARK    8  A    between atoms: C_17  and  C_19
REMARK    9  A    between atoms: C_18  and  C_20
REMARK                            x       y       z     vdW  Elec       q    Type
REMARK                         _______ _______ _______ _____ _____    ______ ____
ROOT
ATOM      1  O   UNL     1      -3.579  -1.062  23.182  0.00  0.00    -0.369 OA
ATOM      8  C   UNL     1      -4.431  -1.776  24.086  0.00  0.00    +0.164 C 
ATOM      9  C   UNL     1      -2.365  -0.567  23.752  0.00  0.00    +0.125 C 
ATOM     10  C   UNL     1      -3.688  -2.939  24.754  0.00  0.00    +0.145 C 
ATOM     11  C   UNL     1      -1.534  -1.713  24.327  0.00  0.00    +0.034 C 
ATOM     12  C   UNL     1      -2.346  -2.510  25.343  0.00  0.00    +0.036 C 
ENDROOT
BRANCH  10   2
ATOM      2  O   UNL     1      -3.429  -3.946  23.772  0.00  0.00    -0.389 OA
ATOM     32  H   UNL     1      -4.250  -4.451  23.645  0.00  0.00    +0.210 HD
ENDBRANCH  10   2
BRANCH   9  13
ATOM     13  C   UNL     1      -1.602   0.157  22.650  0.00  0.00    +0.090 C 
BRANCH  13  15
ATOM      3  O   UNL     1       1.568   1.360  23.871  0.00  0.00    -0.354 OA
ATOM      7  N   UNL     1       0.194   1.473  23.698  0.00  0.00    -0.083 NA
ATOM     15  C   UNL     1      -0.160   0.377  23.022  0.00  0.00    +0.087 A 
ATOM     16  C   UNL     1       0.937  -0.455  22.741  0.00  0.00    +0.076 A 
ATOM     18  C   UNL     1       1.999   0.208  23.297  0.00  0.00    +0.167 A 
BRANCH  18  20
ATOM     20  C   UNL     1       3.406  -0.048  23.397  0.00  0.00    +0.020 A 
ATOM     23  C   UNL     1       4.321   0.961  23.094  0.00  0.00    +0.011 A 
ATOM     24  C   UNL     1       3.860  -1.304  23.798  0.00  0.00    +0.011 A 
ATOM     28  C   UNL     1       5.690   0.713  23.192  0.00  0.00    +0.001 A 
ATOM     29  C   UNL     1       5.230  -1.552  23.896  0.00  0.00    +0.001 A 
ATOM     30  C   UNL     1       6.145  -0.544  23.593  0.00  0.00    +0.000 A 
ENDBRANCH  18  20
ENDBRANCH  13  15
ENDBRANCH   9  13
BRANCH   8  14
ATOM     14  C   UNL     1      -5.082  -0.829  25.093  0.00  0.00    +0.138 C 
BRANCH  14   6
ATOM      4  O   UNL     1      -6.130   1.819  24.730  0.00  0.00    -0.270 OA
ATOM      6  N   UNL     1      -4.353   0.399  25.187  0.00  0.00    -0.309 N 
ATOM     17  C   UNL     1      -4.943   1.646  24.996  0.00  0.00    +0.244 C 
ATOM     33  H   UNL     1      -3.350   0.325  25.319  0.00  0.00    +0.149 HD
BRANCH  17  19
ATOM     19  C   UNL     1      -4.044   2.824  25.101  0.00  0.00    +0.037 A 
ATOM     21  C   UNL     1      -3.053   3.034  24.141  0.00  0.00    +0.016 A 
ATOM     22  C   UNL     1      -4.191   3.722  26.160  0.00  0.00    +0.016 A 
ATOM     25  C   UNL     1      -2.210   4.140  24.240  0.00  0.00    +0.046 A 
ATOM     26  C   UNL     1      -3.347   4.827  26.258  0.00  0.00    +0.046 A 
ATOM     27  C   UNL     1      -2.356   5.036  25.299  0.00  0.00    +0.120 A 
BRANCH  27   5
ATOM      5  O   UNL     1      -1.532   6.116  25.395  0.00  0.00    -0.495 OA
ATOM     31  C   UNL     1      -0.310   6.067  24.661  0.00  0.00    +0.277 C 
ENDBRANCH  27   5
ENDBRANCH  17  19
ENDBRANCH  14   6
ENDBRANCH   8  14
TORSDOF 8
ENDMDL
MODEL 5
REMARK VINA RESULT:       3.5      2.518      6.363
REMARK  Name = 75536302
REMARK  9 active torsions:
REMARK  status: ('A' for Active; 'I' for Inactive)
REMARK    1  A    between atoms: O_2  and  C_10
REMARK    2  A    between atoms: O_5  and  C_27
REMARK    3  A    between atoms: O_5  and  C_31
REMARK    4  A    between atoms: N_6  and  C_14
REMARK    5  A    between atoms: C_8  and  C_14
REMARK    6  A    between atoms: C_9  and  C_13
REMARK    7  A    between atoms: C_13  and  C_15
REMARK    8  A    between atoms: C_17  and  C_19
REMARK    9  A    between atoms: C_18  and  C_20
REMARK                            x       y       z     vdW  Elec       q    Type
REMARK                         _______ _______ _______ _____ _____    ______ ____
ROOT
ATOM      1  O   UNL     1      -2.841  -0.821  24.880  0.00  0.00    -0.369 OA
ATOM      8  C   UNL     1      -1.687  -1.627  24.608  0.00  0.00    +0.164 C 
ATOM      9  C   UNL     1      -3.957  -1.045  24.014  0.00  0.00    +0.125 C 
ATOM     10  C   UNL     1      -2.033  -3.120  24.622  0.00  0.00    +0.145 C 
ATOM     11  C   UNL     1      -4.411  -2.501  24.088  0.00  0.00    +0.034 C 
ATOM     12  C   UNL     1      -3.255  -3.443  23.765  0.00  0.00    +0.036 C 
ENDROOT
BRANCH  10   2
ATOM      2  O   UNL     1      -2.328  -3.513  25.965  0.00  0.00    -0.389 OA
ATOM     32  H   UNL     1      -2.646  -2.726  26.439  0.00  0.00    +0.210 HD
ENDBRANCH  10   2
BRANCH   9  13
ATOM     13  C   UNL     1      -5.073  -0.105  24.455  0.00  0.00    +0.090 C 
BRANCH  13  15
ATOM      3  O   UNL     1      -4.587   3.350  25.359  0.00  0.00    -0.354 OA
ATOM      7  N   UNL     1      -5.360   2.198  25.272  0.00  0.00    -0.083 NA
ATOM     15  C   UNL     1      -4.562   1.287  24.709  0.00  0.00    +0.087 A 
ATOM     16  C   UNL     1      -3.286   1.801  24.421  0.00  0.00    +0.076 A 
ATOM     18  C   UNL     1      -3.354   3.100  24.849  0.00  0.00    +0.167 A 
BRANCH  18  20
ATOM     20  C   UNL     1      -2.438   4.203  24.874  0.00  0.00    +0.020 A 
ATOM     23  C   UNL     1      -2.913   5.501  25.063  0.00  0.00    +0.011 A 
ATOM     24  C   UNL     1      -1.071   3.978  24.710  0.00  0.00    +0.011 A 
ATOM     28  C   UNL     1      -2.022   6.574  25.087  0.00  0.00    +0.001 A 
ATOM     29  C   UNL     1      -0.179   5.051  24.734  0.00  0.00    +0.001 A 
ATOM     30  C   UNL     1      -0.655   6.349  24.922  0.00  0.00    +0.000 A 
ENDBRANCH  18  20
ENDBRANCH  13  15
ENDBRANCH   9  13
BRANCH   8  14
ATOM     14  C   UNL     1      -1.000  -1.186  23.316  0.00  0.00    +0.138 C 
BRANCH  14   6
ATOM      4  O   UNL     1       0.920  -0.350  21.352  0.00  0.00    -0.270 OA
ATOM      6  N   UNL     1       0.393  -0.940  23.533  0.00  0.00    -0.309 N 
ATOM     17  C   UNL     1       1.257  -0.535  22.519  0.00  0.00    +0.244 C 
ATOM     33  H   UNL     1       0.756  -1.157  24.455  0.00  0.00    +0.149 HD
BRANCH  17  19
ATOM     19  C   UNL     1       2.680  -0.347  22.901  0.00  0.00    +0.037 A 
ATOM     21  C   UNL     1       3.326   0.858  22.618  0.00  0.00    +0.016 A 
ATOM     22  C   UNL     1       3.372  -1.374  23.543  0.00  0.00    +0.016 A 
ATOM     25  C   UNL     1       4.662   1.034  22.977  0.00  0.00    +0.046 A 
ATOM     26  C   UNL     1       4.707  -1.197  23.902  0.00  0.00    +0.046 A 
ATOM     27  C   UNL     1       5.353   0.006  23.619  0.00  0.00    +0.120 A 
BRANCH  27   5
ATOM      5  O   UNL     1       6.657   0.178  23.969  0.00  0.00    -0.495 OA
ATOM     31  C   UNL     1       7.641  -0.411  23.121  0.00  0.00    +0.277 C 
ENDBRANCH  27   5
ENDBRANCH  17  19
ENDBRANCH  14   6
ENDBRANCH   8  14
TORSDOF 8
ENDMDL
MODEL 6
REMARK VINA RESULT:       4.4      2.180      3.677
REMARK  Name = 75536302
REMARK  9 active torsions:
REMARK  status: ('A' for Active; 'I' for Inactive)
REMARK    1  A    between atoms: O_2  and  C_10
REMARK    2  A    between atoms: O_5  and  C_27
REMARK    3  A    between atoms: O_5  and  C_31
REMARK    4  A    between atoms: N_6  and  C_14
REMARK    5  A    between atoms: C_8  and  C_14
REMARK    6  A    between atoms: C_9  and  C_13
REMARK    7  A    between atoms: C_13  and  C_15
REMARK    8  A    between atoms: C_17  and  C_19
REMARK    9  A    between atoms: C_18  and  C_20
REMARK                            x       y       z     vdW  Elec       q    Type
REMARK                         _______ _______ _______ _____ _____    ______ ____
ROOT
ATOM      1  O   UNL     1      -0.818   3.339  24.279  0.00  0.00    -0.369 OA
ATOM      8  C   UNL     1      -1.007   4.002  25.536  0.00  0.00    +0.164 C 
ATOM      9  C   UNL     1      -1.959   2.630  23.788  0.00  0.00    +0.125 C 
ATOM     10  C   UNL     1      -2.203   4.961  25.487  0.00  0.00    +0.145 C 
ATOM     11  C   UNL     1      -3.145   3.576  23.612  0.00  0.00    +0.034 C 
ATOM     12  C   UNL     1      -3.456   4.299  24.918  0.00  0.00    +0.036 C 
ENDROOT
BRANCH  10   2
ATOM      2  O   UNL     1      -1.874   6.067  24.643  0.00  0.00    -0.389 OA
ATOM     32  H   UNL     1      -2.540   6.760  24.792  0.00  0.00    +0.210 HD
ENDBRANCH  10   2
BRANCH   9  13
ATOM     13  C   UNL     1      -1.567   1.997  22.458  0.00  0.00    +0.090 C 
BRANCH  13  15
ATOM      3  O   UNL     1       0.904  -0.627  22.505  0.00  0.00    -0.354 OA
ATOM      7  N   UNL     1      -0.382  -0.151  22.273  0.00  0.00    -0.083 NA
ATOM     15  C   UNL     1      -0.333   1.145  22.588  0.00  0.00    +0.087 A 
ATOM     16  C   UNL     1       0.944   1.542  23.022  0.00  0.00    +0.076 A 
ATOM     18  C   UNL     1       1.683   0.391  22.951  0.00  0.00    +0.167 A 
BRANCH  18  20
ATOM     20  C   UNL     1       3.047   0.050  23.233  0.00  0.00    +0.020 A 
ATOM     23  C   UNL     1       4.049   1.011  23.095  0.00  0.00    +0.011 A 
ATOM     24  C   UNL     1       3.373  -1.242  23.647  0.00  0.00    +0.011 A 
ATOM     28  C   UNL     1       5.376   0.681  23.369  0.00  0.00    +0.001 A 
ATOM     29  C   UNL     1       4.701  -1.572  23.922  0.00  0.00    +0.001 A 
ATOM     30  C   UNL     1       5.702  -0.611  23.782  0.00  0.00    +0.000 A 
ENDBRANCH  18  20
ENDBRANCH  13  15
ENDBRANCH   9  13
BRANCH   8  14
ATOM     14  C   UNL     1      -1.096   2.995  26.681  0.00  0.00    +0.138 C 
BRANCH  14   6
ATOM      4  O   UNL     1       0.206   0.548  25.935  0.00  0.00    -0.270 OA
ATOM      6  N   UNL     1      -1.731   1.786  26.253  0.00  0.00    -0.309 N 
ATOM     17  C   UNL     1      -1.019   0.639  25.908  0.00  0.00    +0.244 C 
ATOM     33  H   UNL     1      -2.736   1.819  26.125  0.00  0.00    +0.149 HD
BRANCH  17  19
ATOM     19  C   UNL     1      -1.823  -0.525  25.458  0.00  0.00    +0.037 A 
ATOM     21  C   UNL     1      -3.215  -0.438  25.416  0.00  0.00    +0.016 A 
ATOM     22  C   UNL     1      -1.187  -1.707  25.075  0.00  0.00    +0.016 A 
ATOM     25  C   UNL     1      -3.970  -1.531  24.992  0.00  0.00    +0.046 A 
ATOM     26  C   UNL     1      -1.943  -2.800  24.651  0.00  0.00    +0.046 A 
ATOM     27  C   UNL     1      -3.334  -2.713  24.611  0.00  0.00    +0.120 A 
BRANCH  27   5
ATOM      5  O   UNL     1      -4.071  -3.780  24.197  0.00  0.00    -0.495 OA
ATOM     31  C   UNL     1      -4.966  -3.567  23.106  0.00  0.00    +0.277 C 
ENDBRANCH  27   5
ENDBRANCH  17  19
ENDBRANCH  14   6
ENDBRANCH   8  14
TORSDOF 8
ENDMDL
MODEL 7
REMARK VINA RESULT:       4.7      2.231      5.763
REMARK  Name = 75536302
REMARK  9 active torsions:
REMARK  status: ('A' for Active; 'I' for Inactive)
REMARK    1  A    between atoms: O_2  and  C_10
REMARK    2  A    between atoms: O_5  and  C_27
REMARK    3  A    between atoms: O_5  and  C_31
REMARK    4  A    between atoms: N_6  and  C_14
REMARK    5  A    between atoms: C_8  and  C_14
REMARK    6  A    between atoms: C_9  and  C_13
REMARK    7  A    between atoms: C_13  and  C_15
REMARK    8  A    between atoms: C_17  and  C_19
REMARK    9  A    between atoms: C_18  and  C_20
REMARK                            x       y       z     vdW  Elec       q    Type
REMARK                         _______ _______ _______ _____ _____    ______ ____
ROOT
ATOM      1  O   UNL     1      -1.319  -1.694  23.772  0.00  0.00    -0.369 OA
ATOM      8  C   UNL     1      -1.798  -2.496  24.860  0.00  0.00    +0.164 C 
ATOM      9  C   UNL     1      -1.484  -0.283  23.937  0.00  0.00    +0.125 C 
ATOM     10  C   UNL     1      -1.158  -2.074  26.187  0.00  0.00    +0.145 C 
ATOM     11  C   UNL     1      -0.758   0.200  25.191  0.00  0.00    +0.034 C 
ATOM     12  C   UNL     1      -1.237  -0.567  26.420  0.00  0.00    +0.036 C 
ENDROOT
BRANCH  10   2
ATOM      2  O   UNL     1       0.225  -2.439  26.169  0.00  0.00    -0.389 OA
ATOM     32  H   UNL     1       0.404  -2.870  25.316  0.00  0.00    +0.210 HD
ENDBRANCH  10   2
BRANCH   9  13
ATOM     13  C   UNL     1      -0.923   0.392  22.691  0.00  0.00    +0.090 C 
BRANCH  13  15
ATOM      3  O   UNL     1       2.429  -0.303  21.565  0.00  0.00    -0.354 OA
ATOM      7  N   UNL     1       1.066  -0.145  21.346  0.00  0.00    -0.083 NA
ATOM     15  C   UNL     1       0.555   0.150  22.544  0.00  0.00    +0.087 A 
ATOM     16  C   UNL     1       1.538   0.191  23.548  0.00  0.00    +0.076 A 
ATOM     18  C   UNL     1       2.697  -0.101  22.880  0.00  0.00    +0.167 A 
BRANCH  18  20
ATOM     20  C   UNL     1       4.074  -0.229  23.260  0.00  0.00    +0.020 A 
ATOM     23  C   UNL     1       4.925   0.874  23.179  0.00  0.00    +0.011 A 
ATOM     24  C   UNL     1       4.563  -1.455  23.711  0.00  0.00    +0.011 A 
ATOM     28  C   UNL     1       6.264   0.751  23.549  0.00  0.00    +0.001 A 
ATOM     29  C   UNL     1       5.903  -1.578  24.081  0.00  0.00    +0.001 A 
ATOM     30  C   UNL     1       6.753  -0.476  24.000  0.00  0.00    +0.000 A 
ENDBRANCH  18  20
ENDBRANCH  13  15
ENDBRANCH   9  13
BRANCH   8  14
ATOM     14  C   UNL     1      -3.326  -2.500  24.909  0.00  0.00    +0.138 C 
BRANCH  14   6
ATOM      4  O   UNL     1      -4.286  -0.539  23.046  0.00  0.00    -0.270 OA
ATOM      6  N   UNL     1      -3.832  -1.198  25.223  0.00  0.00    -0.309 N 
ATOM     17  C   UNL     1      -4.280  -0.306  24.251  0.00  0.00    +0.244 C 
ATOM     33  H   UNL     1      -3.775  -0.909  26.193  0.00  0.00    +0.149 HD
BRANCH  17  19
ATOM     19  C   UNL     1      -4.751   1.016  24.738  0.00  0.00    +0.037 A 
ATOM     21  C   UNL     1      -5.889   1.100  25.541  0.00  0.00    +0.016 A 
ATOM     22  C   UNL     1      -4.055   2.175  24.392  0.00  0.00    +0.016 A 
ATOM     25  C   UNL     1      -6.331   2.341  25.997  0.00  0.00    +0.046 A 
ATOM     26  C   UNL     1      -4.497   3.416  24.850  0.00  0.00    +0.046 A 
ATOM     27  C   UNL     1      -5.635   3.500  25.651  0.00  0.00    +0.120 A 
BRANCH  27   5
ATOM      5  O   UNL     1      -6.066   4.711  26.097  0.00  0.00    -0.495 OA
ATOM     31  C   UNL     1      -6.439   5.671  25.110  0.00  0.00    +0.277 C 
ENDBRANCH  27   5
ENDBRANCH  17  19
ENDBRANCH  14   6
ENDBRANCH   8  14
TORSDOF 8
ENDMDL
MODEL 8
REMARK VINA RESULT:       5.3      2.185      4.725
REMARK  Name = 75536302
REMARK  9 active torsions:
REMARK  status: ('A' for Active; 'I' for Inactive)
REMARK    1  A    between atoms: O_2  and  C_10
REMARK    2  A    between atoms: O_5  and  C_27
REMARK    3  A    between atoms: O_5  and  C_31
REMARK    4  A    between atoms: N_6  and  C_14
REMARK    5  A    between atoms: C_8  and  C_14
REMARK    6  A    between atoms: C_9  and  C_13
REMARK    7  A    between atoms: C_13  and  C_15
REMARK    8  A    between atoms: C_17  and  C_19
REMARK    9  A    between atoms: C_18  and  C_20
REMARK                            x       y       z     vdW  Elec       q    Type
REMARK                         _______ _______ _______ _____ _____    ______ ____
ROOT
ATOM      1  O   UNL     1      -3.618  -0.058  22.989  0.00  0.00    -0.369 OA
ATOM      8  C   UNL     1      -4.643  -0.349  23.949  0.00  0.00    +0.164 C 
ATOM      9  C   UNL     1      -2.285  -0.057  23.505  0.00  0.00    +0.125 C 
ATOM     10  C   UNL     1      -4.384  -1.685  24.655  0.00  0.00    +0.145 C 
ATOM     11  C   UNL     1      -1.943  -1.416  24.115  0.00  0.00    +0.034 C 
ATOM     12  C   UNL     1      -2.958  -1.795  25.189  0.00  0.00    +0.036 C 
ENDROOT
BRANCH  10   2
ATOM      2  O   UNL     1      -4.581  -2.747  23.718  0.00  0.00    -0.389 OA
ATOM     32  H   UNL     1      -4.998  -2.368  22.926  0.00  0.00    +0.210 HD
ENDBRANCH  10   2
BRANCH   9  13
ATOM     13  C   UNL     1      -1.347   0.270  22.349  0.00  0.00    +0.090 C 
BRANCH  13  15
ATOM      3  O   UNL     1       1.778   1.336  23.793  0.00  0.00    -0.354 OA
ATOM      7  N   UNL     1       0.421   1.499  23.540  0.00  0.00    -0.083 NA
ATOM     15  C   UNL     1       0.075   0.432  22.814  0.00  0.00    +0.087 A 
ATOM     16  C   UNL     1       1.160  -0.429  22.579  0.00  0.00    +0.076 A 
ATOM     18  C   UNL     1       2.206   0.185  23.216  0.00  0.00    +0.167 A 
BRANCH  18  20
ATOM     20  C   UNL     1       3.596  -0.121  23.396  0.00  0.00    +0.020 A 
ATOM     23  C   UNL     1       3.977  -1.367  23.894  0.00  0.00    +0.011 A 
ATOM     24  C   UNL     1       4.566   0.827  23.072  0.00  0.00    +0.011 A 
ATOM     28  C   UNL     1       5.328  -1.665  24.069  0.00  0.00    +0.001 A 
ATOM     29  C   UNL     1       5.918   0.529  23.247  0.00  0.00    +0.001 A 
ATOM     30  C   UNL     1       6.299  -0.717  23.746  0.00  0.00    +0.000 A 
ENDBRANCH  18  20
ENDBRANCH  13  15
ENDBRANCH   9  13
BRANCH   8  14
ATOM     14  C   UNL     1      -4.830   0.814  24.923  0.00  0.00    +0.138 C 
BRANCH  14   6
ATOM      4  O   UNL     1      -3.285   3.139  24.257  0.00  0.00    -0.270 OA
ATOM      6  N   UNL     1      -3.580   1.204  25.502  0.00  0.00    -0.309 N 
ATOM     17  C   UNL     1      -2.896   2.355  25.118  0.00  0.00    +0.244 C 
ATOM     33  H   UNL     1      -3.159   0.555  26.158  0.00  0.00    +0.149 HD
BRANCH  17  19
ATOM     19  C   UNL     1      -1.598   2.606  25.795  0.00  0.00    +0.037 A 
ATOM     21  C   UNL     1      -0.867   3.757  25.498  0.00  0.00    +0.016 A 
ATOM     22  C   UNL     1      -1.109   1.691  26.729  0.00  0.00    +0.016 A 
ATOM     25  C   UNL     1       0.352   3.993  26.134  0.00  0.00    +0.046 A 
ATOM     26  C   UNL     1       0.109   1.928  27.364  0.00  0.00    +0.046 A 
ATOM     27  C   UNL     1       0.840   3.078  27.067  0.00  0.00    +0.120 A 
BRANCH  27   5
ATOM      5  O   UNL     1       2.029   3.309  27.688  0.00  0.00    -0.495 OA
ATOM     31  C   UNL     1       2.241   2.668  28.945  0.00  0.00    +0.277 C 
ENDBRANCH  27   5
ENDBRANCH  17  19
ENDBRANCH  14   6
ENDBRANCH   8  14
TORSDOF 8
ENDMDL
