MODEL 1
REMARK VINA RESULT:      -4.6      0.000      0.000
REMARK  Name = 75368664
REMARK  5 active torsions:
REMARK  status: ('A' for Active; 'I' for Inactive)
REMARK    1  A    between atoms: N_4  and  C_9
REMARK    2  A    between atoms: N_5  and  C_15
REMARK    3  A    between atoms: C_15  and  C_18
REMARK    4  A    between atoms: C_18  and  C_19
REMARK    5  A    between atoms: C_19  and  C_20
REMARK                            x       y       z     vdW  Elec       q    Type
REMARK                         _______ _______ _______ _____ _____    ______ ____
ROOT
ATOM      2  O   UNL     1       0.695   2.694  26.232  0.00  0.00    -0.252 OA
ATOM      3  N   UNL     1      -1.367   3.163  25.207  0.00  0.00    -0.278 N 
ATOM      4  N   UNL     1       0.085   1.839  24.119  0.00  0.00    -0.280 N 
ATOM      5  N   UNL     1      -4.142   3.533  24.942  0.00  0.00    -0.299 NA
ATOM      6  C   UNL     1      -1.986   2.925  23.921  0.00  0.00    +0.109 C 
ATOM      7  C   UNL     1      -1.107   1.848  23.290  0.00  0.00    +0.133 C 
ATOM      8  C   UNL     1      -3.452   2.533  24.102  0.00  0.00    +0.108 C 
ATOM     10  C   UNL     1      -2.035   4.014  26.169  0.00  0.00    +0.125 C 
ATOM     11  C   UNL     1      -0.095   2.584  25.303  0.00  0.00    +0.305 C 
ATOM     12  C   UNL     1      -3.512   3.625  26.275  0.00  0.00    +0.103 C 
ENDROOT
BRANCH   4   9
ATOM      1  O   UNL     1       3.096   0.048  21.838  0.00  0.00    -0.380 OA
ATOM      9  C   UNL     1       1.233   1.027  23.801  0.00  0.00    +0.082 C 
ATOM     13  C   UNL     1       2.374   1.885  23.254  0.00  0.00    +0.050 C 
ATOM     14  C   UNL     1       0.870  -0.073  22.802  0.00  0.00    +0.050 C 
ATOM     16  C   UNL     1       3.534   1.010  22.798  0.00  0.00    +0.161 C 
ATOM     17  C   UNL     1       2.115  -0.839  22.373  0.00  0.00    +0.161 C 
ENDBRANCH   4   9
BRANCH   5  15
ATOM     15  C   UNL     1      -5.560   3.199  25.071  0.00  0.00    +0.085 C 
BRANCH  15  18
ATOM     18  C   UNL     1      -5.795   1.733  24.709  0.00  0.00    +0.020 C 
BRANCH  18  19
ATOM     19  C   UNL     1      -5.299   0.805  25.821  0.00  0.00    +0.036 C 
BRANCH  19  20
ATOM     20  C   UNL     1      -4.304  -0.202  25.303  0.00  0.00    -0.047 A 
ATOM     21  C   UNL     1      -4.671  -1.089  24.292  0.00  0.00    +0.003 A 
ATOM     22  C   UNL     1      -3.016  -0.247  25.837  0.00  0.00    +0.003 A 
ATOM     23  C   UNL     1      -3.749  -2.022  23.813  0.00  0.00    +0.000 A 
ATOM     24  C   UNL     1      -2.095  -1.179  25.359  0.00  0.00    +0.000 A 
ATOM     25  C   UNL     1      -2.462  -2.066  24.346  0.00  0.00    +0.000 A 
ENDBRANCH  19  20
ENDBRANCH  18  19
ENDBRANCH  15  18
ENDBRANCH   5  15
TORSDOF 5
ENDMDL
MODEL 2
REMARK VINA RESULT:      -2.7     15.312     17.396
REMARK  Name = 75368664
REMARK  5 active torsions:
REMARK  status: ('A' for Active; 'I' for Inactive)
REMARK    1  A    between atoms: N_4  and  C_9
REMARK    2  A    between atoms: N_5  and  C_15
REMARK    3  A    between atoms: C_15  and  C_18
REMARK    4  A    between atoms: C_18  and  C_19
REMARK    5  A    between atoms: C_19  and  C_20
REMARK                            x       y       z     vdW  Elec       q    Type
REMARK                         _______ _______ _______ _____ _____    ______ ____
ROOT
ATOM      2  O   UNL     1      -4.480  -9.040   8.868  0.00  0.00    -0.252 OA
ATOM      3  N   UNL     1      -6.532  -9.703   9.801  0.00  0.00    -0.278 N 
ATOM      4  N   UNL     1      -4.642 -10.286  10.865  0.00  0.00    -0.280 N 
ATOM      5  N   UNL     1      -9.202  -9.522  10.667  0.00  0.00    -0.299 NA
ATOM      6  C   UNL     1      -6.975 -10.546  10.892  0.00  0.00    +0.109 C 
ATOM      7  C   UNL     1      -5.715 -10.742  11.732  0.00  0.00    +0.133 C 
ATOM      8  C   UNL     1      -8.143  -9.892  11.628  0.00  0.00    +0.108 C 
ATOM     10  C   UNL     1      -7.510  -9.161   8.882  0.00  0.00    +0.125 C 
ATOM     11  C   UNL     1      -5.136  -9.607   9.732  0.00  0.00    +0.305 C 
ATOM     12  C   UNL     1      -8.689  -8.570   9.660  0.00  0.00    +0.103 C 
ENDROOT
BRANCH   4   9
ATOM      1  O   UNL     1      -0.990  -9.358  12.676  0.00  0.00    -0.380 OA
ATOM      9  C   UNL     1      -3.254 -10.402  11.240  0.00  0.00    +0.082 C 
ATOM     13  C   UNL     1      -3.108 -10.545  12.755  0.00  0.00    +0.050 C 
ATOM     14  C   UNL     1      -2.446  -9.205  10.739  0.00  0.00    +0.050 C 
ATOM     16  C   UNL     1      -1.639 -10.536  13.156  0.00  0.00    +0.161 C 
ATOM     17  C   UNL     1      -1.014  -9.272  11.252  0.00  0.00    +0.161 C 
ENDBRANCH   4   9
BRANCH   5  15
ATOM     15  C   UNL     1     -10.351  -8.950  11.369  0.00  0.00    +0.085 C 
BRANCH  15  18
ATOM     18  C   UNL     1     -10.689  -9.787  12.602  0.00  0.00    +0.020 C 
BRANCH  18  19
ATOM     19  C   UNL     1      -9.535  -9.776  13.608  0.00  0.00    +0.036 C 
BRANCH  19  20
ATOM     20  C   UNL     1      -9.939  -9.137  14.912  0.00  0.00    -0.047 A 
ATOM     21  C   UNL     1     -10.344  -7.802  14.939  0.00  0.00    +0.003 A 
ATOM     22  C   UNL     1      -9.907  -9.880  16.093  0.00  0.00    +0.003 A 
ATOM     23  C   UNL     1     -10.717  -7.210  16.147  0.00  0.00    +0.000 A 
ATOM     24  C   UNL     1     -10.280  -9.289  17.299  0.00  0.00    +0.000 A 
ATOM     25  C   UNL     1     -10.685  -7.954  17.326  0.00  0.00    +0.000 A 
ENDBRANCH  19  20
ENDBRANCH  18  19
ENDBRANCH  15  18
ENDBRANCH   5  15
TORSDOF 5
ENDMDL
MODEL 3
REMARK VINA RESULT:      -2.3      1.860      3.752
REMARK  Name = 75368664
REMARK  5 active torsions:
REMARK  status: ('A' for Active; 'I' for Inactive)
REMARK    1  A    between atoms: N_4  and  C_9
REMARK    2  A    between atoms: N_5  and  C_15
REMARK    3  A    between atoms: C_15  and  C_18
REMARK    4  A    between atoms: C_18  and  C_19
REMARK    5  A    between atoms: C_19  and  C_20
REMARK                            x       y       z     vdW  Elec       q    Type
REMARK                         _______ _______ _______ _____ _____    ______ ____
ROOT
ATOM      2  O   UNL     1       0.377  -2.211  24.890  0.00  0.00    -0.252 OA
ATOM      3  N   UNL     1      -1.259  -0.536  25.081  0.00  0.00    -0.278 N 
ATOM      4  N   UNL     1       0.587  -0.087  23.883  0.00  0.00    -0.280 N 
ATOM      5  N   UNL     1      -3.810   0.649  25.125  0.00  0.00    -0.299 NA
ATOM      6  C   UNL     1      -1.391   0.860  24.720  0.00  0.00    +0.109 C 
ATOM      7  C   UNL     1      -0.256   1.085  23.723  0.00  0.00    +0.133 C 
ATOM      8  C   UNL     1      -2.791   1.138  24.174  0.00  0.00    +0.108 C 
ATOM     10  C   UNL     1      -2.285  -1.158  25.892  0.00  0.00    +0.125 C 
ATOM     11  C   UNL     1      -0.044  -1.086  24.653  0.00  0.00    +0.305 C 
ATOM     12  C   UNL     1      -3.670  -0.805  25.344  0.00  0.00    +0.103 C 
ENDROOT
BRANCH   4   9
ATOM      1  O   UNL     1       4.706   0.091  23.186  0.00  0.00    -0.380 OA
ATOM      9  C   UNL     1       1.845  -0.225  23.192  0.00  0.00    +0.082 C 
ATOM     13  C   UNL     1       2.777  -1.179  23.939  0.00  0.00    +0.050 C 
ATOM     14  C   UNL     1       2.520   1.134  23.000  0.00  0.00    +0.050 C 
ATOM     16  C   UNL     1       4.147  -1.220  23.278  0.00  0.00    +0.161 C 
ATOM     17  C   UNL     1       3.905   0.963  22.389  0.00  0.00    +0.161 C 
ENDBRANCH   4   9
BRANCH   5  15
ATOM     15  C   UNL     1      -5.153   0.965  24.639  0.00  0.00    +0.085 C 
BRANCH  15  18
ATOM     18  C   UNL     1      -5.912   1.789  25.677  0.00  0.00    +0.020 C 
BRANCH  18  19
ATOM     19  C   UNL     1      -5.821   3.285  25.366  0.00  0.00    +0.036 C 
BRANCH  19  20
ATOM     20  C   UNL     1      -4.391   3.759  25.322  0.00  0.00    -0.047 A 
ATOM     21  C   UNL     1      -3.837   4.196  24.119  0.00  0.00    +0.003 A 
ATOM     22  C   UNL     1      -3.620   3.759  26.485  0.00  0.00    +0.003 A 
ATOM     23  C   UNL     1      -2.513   4.634  24.078  0.00  0.00    +0.000 A 
ATOM     24  C   UNL     1      -2.297   4.196  26.445  0.00  0.00    +0.000 A 
ATOM     25  C   UNL     1      -1.743   4.634  25.241  0.00  0.00    +0.000 A 
ENDBRANCH  19  20
ENDBRANCH  18  19
ENDBRANCH  15  18
ENDBRANCH   5  15
TORSDOF 5
ENDMDL
MODEL 4
REMARK VINA RESULT:      -2.2     16.555     18.398
REMARK  Name = 75368664
REMARK  5 active torsions:
REMARK  status: ('A' for Active; 'I' for Inactive)
REMARK    1  A    between atoms: N_4  and  C_9
REMARK    2  A    between atoms: N_5  and  C_15
REMARK    3  A    between atoms: C_15  and  C_18
REMARK    4  A    between atoms: C_18  and  C_19
REMARK    5  A    between atoms: C_19  and  C_20
REMARK                            x       y       z     vdW  Elec       q    Type
REMARK                         _______ _______ _______ _____ _____    ______ ____
ROOT
ATOM      2  O   UNL     1      -4.759  -7.569  10.630  0.00  0.00    -0.252 OA
ATOM      3  N   UNL     1      -6.290  -8.677   9.235  0.00  0.00    -0.278 N 
ATOM      4  N   UNL     1      -4.462  -9.795   9.907  0.00  0.00    -0.280 N 
ATOM      5  N   UNL     1      -8.767  -9.550   8.226  0.00  0.00    -0.299 NA
ATOM      6  C   UNL     1      -6.354  -9.937   8.526  0.00  0.00    +0.109 C 
ATOM      7  C   UNL     1      -5.242 -10.768   9.163  0.00  0.00    +0.133 C 
ATOM      8  C   UNL     1      -7.753 -10.541   8.641  0.00  0.00    +0.108 C 
ATOM     10  C   UNL     1      -7.322  -7.686   9.013  0.00  0.00    +0.125 C 
ATOM     11  C   UNL     1      -5.123  -8.553  10.000  0.00  0.00    +0.305 C 
ATOM     12  C   UNL     1      -8.703  -8.344   9.079  0.00  0.00    +0.103 C 
ENDROOT
BRANCH   4   9
ATOM      1  O   UNL     1      -1.341  -9.643  12.685  0.00  0.00    -0.380 OA
ATOM      9  C   UNL     1      -3.237 -10.150  10.580  0.00  0.00    +0.082 C 
ATOM     13  C   UNL     1      -3.506 -10.534  12.036  0.00  0.00    +0.050 C 
ATOM     14  C   UNL     1      -2.220  -9.012  10.511  0.00  0.00    +0.050 C 
ATOM     16  C   UNL     1      -2.199 -10.781  12.776  0.00  0.00    +0.161 C 
ATOM     17  C   UNL     1      -0.983  -9.345  11.336  0.00  0.00    +0.161 C 
ENDBRANCH   4   9
BRANCH   5  15
ATOM     15  C   UNL     1     -10.105 -10.137   8.275  0.00  0.00    +0.085 C 
BRANCH  15  18
ATOM     18  C   UNL     1     -10.490 -10.462   9.717  0.00  0.00    +0.020 C 
BRANCH  18  19
ATOM     19  C   UNL     1      -9.249 -10.755  10.566  0.00  0.00    +0.036 C 
BRANCH  19  20
ATOM     20  C   UNL     1      -9.392 -10.216  11.966  0.00  0.00    -0.047 A 
ATOM     21  C   UNL     1     -10.587  -9.615  12.364  0.00  0.00    +0.003 A 
ATOM     22  C   UNL     1      -8.329 -10.316  12.864  0.00  0.00    +0.003 A 
ATOM     23  C   UNL     1     -10.719  -9.116  13.660  0.00  0.00    +0.000 A 
ATOM     24  C   UNL     1      -8.461  -9.816  14.159  0.00  0.00    +0.000 A 
ATOM     25  C   UNL     1      -9.656  -9.217  14.558  0.00  0.00    +0.000 A 
ENDBRANCH  19  20
ENDBRANCH  18  19
ENDBRANCH  15  18
ENDBRANCH   5  15
TORSDOF 5
ENDMDL
MODEL 5
REMARK VINA RESULT:      -1.1      1.963      4.971
REMARK  Name = 75368664
REMARK  5 active torsions:
REMARK  status: ('A' for Active; 'I' for Inactive)
REMARK    1  A    between atoms: N_4  and  C_9
REMARK    2  A    between atoms: N_5  and  C_15
REMARK    3  A    between atoms: C_15  and  C_18
REMARK    4  A    between atoms: C_18  and  C_19
REMARK    5  A    between atoms: C_19  and  C_20
REMARK                            x       y       z     vdW  Elec       q    Type
REMARK                         _______ _______ _______ _____ _____    ______ ____
ROOT
ATOM      2  O   UNL     1       0.624   2.242  23.615  0.00  0.00    -0.252 OA
ATOM      3  N   UNL     1      -0.181   0.284  24.633  0.00  0.00    -0.278 N 
ATOM      4  N   UNL     1      -0.762   2.262  25.524  0.00  0.00    -0.280 N 
ATOM      5  N   UNL     1      -1.301  -2.286  24.862  0.00  0.00    -0.299 NA
ATOM      6  C   UNL     1      -0.910  -0.059  25.836  0.00  0.00    +0.109 C 
ATOM      7  C   UNL     1      -1.490   1.274  26.300  0.00  0.00    +0.133 C 
ATOM      8  C   UNL     1      -1.946  -1.142  25.539  0.00  0.00    +0.108 C 
ATOM     10  C   UNL     1       0.369  -0.773  23.812  0.00  0.00    +0.125 C 
ATOM     11  C   UNL     1      -0.020   1.668  24.482  0.00  0.00    +0.305 C 
ATOM     12  C   UNL     1      -0.682  -1.863  23.589  0.00  0.00    +0.103 C 
ENDROOT
BRANCH   4   9
ATOM      1  O   UNL     1      -2.118   6.171  24.924  0.00  0.00    -0.380 OA
ATOM      9  C   UNL     1      -0.931   3.679  25.736  0.00  0.00    +0.082 C 
ATOM     13  C   UNL     1      -2.396   4.018  26.013  0.00  0.00    +0.050 C 
ATOM     14  C   UNL     1      -0.418   4.480  24.539  0.00  0.00    +0.050 C 
ATOM     16  C   UNL     1      -2.590   5.525  26.106  0.00  0.00    +0.161 C 
ATOM     17  C   UNL     1      -0.722   5.962  24.716  0.00  0.00    +0.161 C 
ENDBRANCH   4   9
BRANCH   5  15
ATOM     15  C   UNL     1      -2.272  -3.354  24.628  0.00  0.00    +0.085 C 
BRANCH  15  18
ATOM     18  C   UNL     1      -3.690  -2.848  24.886  0.00  0.00    +0.020 C 
BRANCH  18  19
ATOM     19  C   UNL     1      -4.243  -2.111  23.664  0.00  0.00    +0.036 C 
BRANCH  19  20
ATOM     20  C   UNL     1      -4.246  -0.618  23.868  0.00  0.00    -0.047 A 
ATOM     21  C   UNL     1      -3.453   0.198  23.060  0.00  0.00    +0.003 A 
ATOM     22  C   UNL     1      -5.041  -0.051  24.865  0.00  0.00    +0.003 A 
ATOM     23  C   UNL     1      -3.456   1.581  23.249  0.00  0.00    +0.000 A 
ATOM     24  C   UNL     1      -5.043   1.330  25.054  0.00  0.00    +0.000 A 
ATOM     25  C   UNL     1      -4.251   2.147  24.246  0.00  0.00    +0.000 A 
ENDBRANCH  19  20
ENDBRANCH  18  19
ENDBRANCH  15  18
ENDBRANCH   5  15
TORSDOF 5
ENDMDL
MODEL 6
REMARK VINA RESULT:      -0.9      1.889      3.099
REMARK  Name = 75368664
REMARK  5 active torsions:
REMARK  status: ('A' for Active; 'I' for Inactive)
REMARK    1  A    between atoms: N_4  and  C_9
REMARK    2  A    between atoms: N_5  and  C_15
REMARK    3  A    between atoms: C_15  and  C_18
REMARK    4  A    between atoms: C_18  and  C_19
REMARK    5  A    between atoms: C_19  and  C_20
REMARK                            x       y       z     vdW  Elec       q    Type
REMARK                         _______ _______ _______ _____ _____    ______ ____
ROOT
ATOM      2  O   UNL     1       0.934  -0.368  20.848  0.00  0.00    -0.252 OA
ATOM      3  N   UNL     1      -0.474   0.382  22.573  0.00  0.00    -0.278 N 
ATOM      4  N   UNL     1       1.692   0.025  23.047  0.00  0.00    -0.280 N 
ATOM      5  N   UNL     1      -2.461   1.893  23.869  0.00  0.00    -0.299 NA
ATOM      6  C   UNL     1      -0.375   0.592  24.002  0.00  0.00    +0.109 C 
ATOM      7  C   UNL     1       1.128   0.573  24.268  0.00  0.00    +0.133 C 
ATOM      8  C   UNL     1      -1.082   1.888  24.398  0.00  0.00    +0.108 C 
ATOM     10  C   UNL     1      -1.762   0.511  21.924  0.00  0.00    +0.125 C 
ATOM     11  C   UNL     1       0.739  -0.034  22.009  0.00  0.00    +0.305 C 
ATOM     12  C   UNL     1      -2.459   1.791  22.395  0.00  0.00    +0.103 C 
ENDROOT
BRANCH   4   9
ATOM      1  O   UNL     1       5.711  -0.407  24.116  0.00  0.00    -0.380 OA
ATOM      9  C   UNL     1       3.099  -0.266  22.917  0.00  0.00    +0.082 C 
ATOM     13  C   UNL     1       3.510  -1.401  23.854  0.00  0.00    +0.050 C 
ATOM     14  C   UNL     1       3.946   0.978  23.187  0.00  0.00    +0.050 C 
ATOM     16  C   UNL     1       5.017  -1.616  23.809  0.00  0.00    +0.161 C 
ATOM     17  C   UNL     1       5.429   0.630  23.177  0.00  0.00    +0.161 C 
ENDBRANCH   4   9
BRANCH   5  15
ATOM     15  C   UNL     1      -3.165   3.102  24.294  0.00  0.00    +0.085 C 
BRANCH  15  18
ATOM     18  C   UNL     1      -4.217   2.760  25.348  0.00  0.00    +0.020 C 
BRANCH  18  19
ATOM     19  C   UNL     1      -5.175   1.679  24.841  0.00  0.00    +0.036 C 
BRANCH  19  20
ATOM     20  C   UNL     1      -4.555   0.307  24.915  0.00  0.00    -0.047 A 
ATOM     21  C   UNL     1      -4.705  -0.585  23.853  0.00  0.00    +0.003 A 
ATOM     22  C   UNL     1      -3.833  -0.072  26.047  0.00  0.00    +0.003 A 
ATOM     23  C   UNL     1      -4.132  -1.855  23.922  0.00  0.00    +0.000 A 
ATOM     24  C   UNL     1      -3.261  -1.341  26.117  0.00  0.00    +0.000 A 
ATOM     25  C   UNL     1      -3.409  -2.233  25.054  0.00  0.00    +0.000 A 
ENDBRANCH  19  20
ENDBRANCH  18  19
ENDBRANCH  15  18
ENDBRANCH   5  15
TORSDOF 5
ENDMDL
