MODEL 1
REMARK VINA RESULT:      -2.9      0.000      0.000
REMARK  Name = 25313754
REMARK  7 active torsions:
REMARK  status: ('A' for Active; 'I' for Inactive)
REMARK    1  A    between atoms: C_8  and  C_12
REMARK    2  A    between atoms: C_9  and  C_13
REMARK    3  A    between atoms: C_12  and  C_22
REMARK    4  A    between atoms: C_13  and  C_21
REMARK    5  A    between atoms: C_15  and  C_18
REMARK    6  A    between atoms: C_18  and  C_24
REMARK    7  A    between atoms: C_30  and  C_31
REMARK                            x       y       z     vdW  Elec       q    Type
REMARK                         _______ _______ _______ _____ _____    ______ ____
ROOT
ATOM      4  N   UNL     1      -3.483  -3.368  24.511  0.00  0.00    -0.316 NA
ATOM      8  C   UNL     1      -2.745  -0.513  24.613  0.00  0.00    +0.004 C 
ATOM      9  C   UNL     1      -4.214  -0.999  24.653  0.00  0.00    +0.012 C 
ATOM     10  C   UNL     1      -1.830  -1.638  25.124  0.00  0.00    +0.019 C 
ATOM     11  C   UNL     1      -4.381  -2.357  23.951  0.00  0.00    +0.085 C 
ATOM     14  C   UNL     1      -2.082  -2.965  24.411  0.00  0.00    +0.081 C 
ATOM     32  H   UNL     1      -3.617  -4.249  24.016  0.00  0.00    +0.122 HD
ENDROOT
BRANCH   8  12
ATOM     12  C   UNL     1      -2.287  -0.021  23.235  0.00  0.00    +0.100 C 
BRANCH  12  22
ATOM      2  O   UNL     1      -1.606   2.248  23.279  0.00  0.00    -0.276 OA
ATOM      3  O   UNL     1       4.381  -1.643  23.613  0.00  0.00    -0.276 OA
ATOM      5  N   UNL     1       0.047   0.662  23.661  0.00  0.00    -0.298 N 
ATOM      6  N   UNL     1       2.740  -0.060  23.164  0.00  0.00    -0.299 N 
ATOM     22  C   UNL     1      -1.259   1.070  23.392  0.00  0.00    +0.216 C 
ATOM     26  C   UNL     1       1.106   1.660  23.825  0.00  0.00    +0.126 C 
ATOM     27  C   UNL     1       0.477  -0.727  23.877  0.00  0.00    +0.126 C 
ATOM     28  C   UNL     1       2.310   1.327  22.949  0.00  0.00    +0.126 C 
ATOM     29  C   UNL     1       1.681  -1.059  23.000  0.00  0.00    +0.126 C 
ATOM     30  C   UNL     1       4.046  -0.469  23.435  0.00  0.00    +0.213 C 
ATOM     31  C   UNL     1       5.089   0.616  23.513  0.00  0.00    +0.109 C 
ENDBRANCH  12  22
ENDBRANCH   8  12
BRANCH   9  13
ATOM     13  C   UNL     1      -5.199   0.024  24.086  0.00  0.00    +0.064 C 
BRANCH  13  21
ATOM      1  O   UNL     1      -5.754   2.738  26.385  0.00  0.00    -0.359 OA
ATOM      7  N   UNL     1      -6.044   1.478  25.878  0.00  0.00    -0.083 NA
ATOM     21  C   UNL     1      -5.178   1.300  24.876  0.00  0.00    +0.084 A 
ATOM     24  C   UNL     1      -4.729   3.281  25.679  0.00  0.00    +0.138 A 
ATOM     25  C   UNL     1      -4.325   2.405  24.706  0.00  0.00    +0.071 A 
BRANCH  24  18
ATOM     18  C   UNL     1      -4.291   4.622  26.085  0.00  0.00    +0.080 C 
BRANCH  18  15
ATOM     15  C   UNL     1      -2.773   4.781  26.097  0.00  0.00    -0.004 C 
ATOM     16  C   UNL     1      -2.087   3.418  26.267  0.00  0.00    +0.004 C 
ATOM     17  C   UNL     1      -2.291   5.479  24.819  0.00  0.00    +0.004 C 
ATOM     19  C   UNL     1      -0.566   3.545  26.229  0.00  0.00    +0.000 C 
ATOM     20  C   UNL     1      -0.769   5.601  24.782  0.00  0.00    +0.000 C 
ATOM     23  C   UNL     1      -0.091   4.246  24.961  0.00  0.00    +0.000 C 
ENDBRANCH  18  15
ENDBRANCH  24  18
ENDBRANCH  13  21
ENDBRANCH   9  13
TORSDOF 6
ENDMDL
MODEL 2
REMARK VINA RESULT:      -1.9      1.692      6.374
REMARK  Name = 25313754
REMARK  7 active torsions:
REMARK  status: ('A' for Active; 'I' for Inactive)
REMARK    1  A    between atoms: C_8  and  C_12
REMARK    2  A    between atoms: C_9  and  C_13
REMARK    3  A    between atoms: C_12  and  C_22
REMARK    4  A    between atoms: C_13  and  C_21
REMARK    5  A    between atoms: C_15  and  C_18
REMARK    6  A    between atoms: C_18  and  C_24
REMARK    7  A    between atoms: C_30  and  C_31
REMARK                            x       y       z     vdW  Elec       q    Type
REMARK                         _______ _______ _______ _____ _____    ______ ____
ROOT
ATOM      4  N   UNL     1      -3.402  -3.587  24.240  0.00  0.00    -0.316 NA
ATOM      8  C   UNL     1      -3.702  -0.652  24.200  0.00  0.00    +0.004 C 
ATOM      9  C   UNL     1      -2.345  -1.351  24.453  0.00  0.00    +0.012 C 
ATOM     10  C   UNL     1      -4.615  -1.602  23.409  0.00  0.00    +0.019 C 
ATOM     11  C   UNL     1      -2.532  -2.749  25.065  0.00  0.00    +0.085 C 
ATOM     14  C   UNL     1      -4.720  -2.984  24.053  0.00  0.00    +0.081 C 
ATOM     32  H   UNL     1      -3.510  -4.501  24.680  0.00  0.00    +0.122 HD
ENDROOT
BRANCH   8  12
ATOM     12  C   UNL     1      -4.399  -0.161  25.475  0.00  0.00    +0.100 C 
BRANCH  12  22
ATOM      2  O   UNL     1      -6.200   1.280  24.932  0.00  0.00    -0.276 OA
ATOM      3  O   UNL     1      -0.355   5.387  25.151  0.00  0.00    -0.276 OA
ATOM      5  N   UNL     1      -4.160   2.295  25.381  0.00  0.00    -0.298 N 
ATOM      6  N   UNL     1      -2.378   4.367  24.638  0.00  0.00    -0.299 N 
ATOM     22  C   UNL     1      -5.008   1.198  25.237  0.00  0.00    +0.216 C 
ATOM     26  C   UNL     1      -4.674   3.650  25.164  0.00  0.00    +0.126 C 
ATOM     27  C   UNL     1      -2.758   2.236  25.817  0.00  0.00    +0.126 C 
ATOM     28  C   UNL     1      -3.779   4.426  24.203  0.00  0.00    +0.126 C 
ATOM     29  C   UNL     1      -1.863   3.012  24.854  0.00  0.00    +0.126 C 
ATOM     30  C   UNL     1      -1.530   5.464  24.783  0.00  0.00    +0.213 C 
ATOM     31  C   UNL     1      -2.117   6.816  24.468  0.00  0.00    +0.109 C 
ENDBRANCH  12  22
ENDBRANCH   8  12
BRANCH   9  13
ATOM     13  C   UNL     1      -1.390  -0.515  25.307  0.00  0.00    +0.064 C 
BRANCH  13  21
ATOM      1  O   UNL     1       1.317   1.367  23.861  0.00  0.00    -0.359 OA
ATOM      7  N   UNL     1       0.302   1.191  24.793  0.00  0.00    -0.083 NA
ATOM     21  C   UNL     1      -0.244   0.010  24.491  0.00  0.00    +0.084 A 
ATOM     24  C   UNL     1       1.353   0.294  23.029  0.00  0.00    +0.138 A 
ATOM     25  C   UNL     1       0.379  -0.600  23.388  0.00  0.00    +0.071 A 
BRANCH  24  18
ATOM     18  C   UNL     1       2.374   0.316  21.976  0.00  0.00    +0.080 C 
BRANCH  18  15
ATOM     15  C   UNL     1       3.747  -0.150  22.458  0.00  0.00    -0.004 C 
ATOM     16  C   UNL     1       4.538   1.022  23.054  0.00  0.00    +0.004 C 
ATOM     17  C   UNL     1       3.604  -1.287  23.478  0.00  0.00    +0.004 C 
ATOM     19  C   UNL     1       5.893   0.571  23.592  0.00  0.00    +0.000 C 
ATOM     20  C   UNL     1       4.961  -1.735  24.017  0.00  0.00    +0.000 C 
ATOM     23  C   UNL     1       5.749  -0.565  24.600  0.00  0.00    +0.000 C 
ENDBRANCH  18  15
ENDBRANCH  24  18
ENDBRANCH  13  21
ENDBRANCH   9  13
TORSDOF 6
ENDMDL
MODEL 3
REMARK VINA RESULT:       0.5      1.927      6.952
REMARK  Name = 25313754
REMARK  7 active torsions:
REMARK  status: ('A' for Active; 'I' for Inactive)
REMARK    1  A    between atoms: C_8  and  C_12
REMARK    2  A    between atoms: C_9  and  C_13
REMARK    3  A    between atoms: C_12  and  C_22
REMARK    4  A    between atoms: C_13  and  C_21
REMARK    5  A    between atoms: C_15  and  C_18
REMARK    6  A    between atoms: C_18  and  C_24
REMARK    7  A    between atoms: C_30  and  C_31
REMARK                            x       y       z     vdW  Elec       q    Type
REMARK                         _______ _______ _______ _____ _____    ______ ____
ROOT
ATOM      4  N   UNL     1      -0.640   5.729  24.659  0.00  0.00    -0.316 NA
ATOM      8  C   UNL     1      -2.818   4.076  25.769  0.00  0.00    +0.004 C 
ATOM      9  C   UNL     1      -1.344   3.605  25.734  0.00  0.00    +0.012 C 
ATOM     10  C   UNL     1      -2.853   5.613  25.751  0.00  0.00    +0.019 C 
ATOM     11  C   UNL     1      -0.563   4.270  24.589  0.00  0.00    +0.085 C 
ATOM     14  C   UNL     1      -2.022   6.203  24.613  0.00  0.00    +0.081 C 
ATOM     32  H   UNL     1      -0.119   6.134  23.882  0.00  0.00    +0.122 HD
ENDROOT
BRANCH   8  12
ATOM     12  C   UNL     1      -3.686   3.497  24.646  0.00  0.00    +0.100 C 
BRANCH  12  22
ATOM      2  O   UNL     1      -5.457   2.656  25.976  0.00  0.00    -0.276 OA
ATOM      3  O   UNL     1      -1.972  -3.050  23.451  0.00  0.00    -0.276 OA
ATOM      5  N   UNL     1      -4.259   1.098  24.740  0.00  0.00    -0.298 N 
ATOM      6  N   UNL     1      -3.127  -1.499  24.738  0.00  0.00    -0.299 N 
ATOM     22  C   UNL     1      -4.551   2.386  25.184  0.00  0.00    +0.216 C 
ATOM     26  C   UNL     1      -5.051  -0.039  25.218  0.00  0.00    +0.126 C 
ATOM     27  C   UNL     1      -3.238   0.753  23.741  0.00  0.00    +0.126 C 
ATOM     28  C   UNL     1      -4.148  -1.154  25.735  0.00  0.00    +0.126 C 
ATOM     29  C   UNL     1      -2.334  -0.363  24.259  0.00  0.00    +0.126 C 
ATOM     30  C   UNL     1      -2.835  -2.788  24.292  0.00  0.00    +0.213 C 
ATOM     31  C   UNL     1      -3.647  -3.908  24.891  0.00  0.00    +0.109 C 
ENDBRANCH  12  22
ENDBRANCH   8  12
BRANCH   9  13
ATOM     13  C   UNL     1      -1.204   2.084  25.667  0.00  0.00    +0.064 C 
BRANCH  13  21
ATOM      1  O   UNL     1       1.914   1.639  23.922  0.00  0.00    -0.359 OA
ATOM      7  N   UNL     1       1.127   2.230  24.903  0.00  0.00    -0.083 NA
ATOM     21  C   UNL     1      -0.080   1.677  24.758  0.00  0.00    +0.084 A 
ATOM     24  C   UNL     1       1.163   0.752  23.219  0.00  0.00    +0.138 A 
ATOM     25  C   UNL     1      -0.116   0.739  23.712  0.00  0.00    +0.071 A 
BRANCH  24  18
ATOM     18  C   UNL     1       1.842   0.033  22.135  0.00  0.00    +0.080 C 
BRANCH  18  15
ATOM     15  C   UNL     1       3.287  -0.333  22.469  0.00  0.00    -0.004 C 
ATOM     16  C   UNL     1       4.095   0.922  22.826  0.00  0.00    +0.004 C 
ATOM     17  C   UNL     1       3.336  -1.357  23.611  0.00  0.00    +0.004 C 
ATOM     19  C   UNL     1       5.530   0.576  23.216  0.00  0.00    +0.000 C 
ATOM     20  C   UNL     1       4.772  -1.699  24.000  0.00  0.00    +0.000 C 
ATOM     23  C   UNL     1       5.574  -0.448  24.346  0.00  0.00    +0.000 C 
ENDBRANCH  18  15
ENDBRANCH  24  18
ENDBRANCH  13  21
ENDBRANCH   9  13
TORSDOF 6
ENDMDL
