MODEL 1
REMARK VINA RESULT:      -5.1      0.000      0.000
REMARK  Name = 75536460
REMARK  9 active torsions:
REMARK  status: ('A' for Active; 'I' for Inactive)
REMARK    1  A    between atoms: O_2  and  C_10
REMARK    2  A    between atoms: N_4  and  C_9
REMARK    3  A    between atoms: N_4  and  C_17
REMARK    4  A    between atoms: N_4  and  C_18
REMARK    5  A    between atoms: N_5  and  C_15
REMARK    6  A    between atoms: C_8  and  C_16
REMARK    7  A    between atoms: C_11  and  C_15
REMARK    8  A    between atoms: C_17  and  C_19
REMARK    9  A    between atoms: C_18  and  C_20
REMARK                            x       y       z     vdW  Elec       q    Type
REMARK                         _______ _______ _______ _____ _____    ______ ____
ROOT
ATOM      4  N   UNL     1       0.322   0.306  23.604  0.00  0.00    -0.283 NA
ENDROOT
BRANCH   4   9
ATOM      1  O   UNL     1      -1.773  -2.557  24.409  0.00  0.00    -0.371 OA
ATOM      9  C   UNL     1      -0.164  -0.810  24.399  0.00  0.00    +0.114 C 
ATOM     10  C   UNL     1      -1.291  -0.439  25.346  0.00  0.00    +0.164 C 
ATOM     11  C   UNL     1      -1.899  -1.806  25.629  0.00  0.00    +0.165 C 
ATOM     14  C   UNL     1      -0.820  -1.893  23.560  0.00  0.00    +0.182 C 
BRANCH  10   2
ATOM      2  O   UNL     1      -0.830   0.188  26.526  0.00  0.00    -0.388 OA
ATOM     30  H   UNL     1      -0.260   0.935  26.274  0.00  0.00    +0.210 HD
ENDBRANCH  10   2
BRANCH  11  15
ATOM     15  C   UNL     1      -3.358  -1.741  26.043  0.00  0.00    +0.138 C 
BRANCH  15   5
ATOM      3  O   UNL     1      -4.451  -0.693  23.561  0.00  0.00    -0.276 OA
ATOM      5  N   UNL     1      -3.909  -0.437  25.812  0.00  0.00    -0.313 N 
ATOM     16  C   UNL     1      -4.410  -0.023  24.587  0.00  0.00    +0.216 C 
ATOM     29  H   UNL     1      -3.944   0.207  26.598  0.00  0.00    +0.149 HD
BRANCH  16   8
ATOM      8  C   UNL     1      -4.936   1.374  24.575  0.00  0.00    +0.075 C 
ATOM     12  C   UNL     1      -6.396   1.587  24.798  0.00  0.00    +0.013 C 
ATOM     13  C   UNL     1      -5.409   1.967  25.861  0.00  0.00    +0.013 C 
ENDBRANCH  16   8
ENDBRANCH  15   5
ENDBRANCH  11  15
ENDBRANCH   4   9
BRANCH   4  17
ATOM     17  C   UNL     1       1.189  -0.166  22.521  0.00  0.00    +0.140 C 
BRANCH  17  19
ATOM      6  N   UNL     1       3.131  -1.288  23.464  0.00  0.00    -0.259 NA
ATOM     19  C   UNL     1       2.641  -0.152  22.917  0.00  0.00    +0.055 A 
ATOM     21  C   UNL     1       3.391   0.994  22.708  0.00  0.00    +0.024 A 
ATOM     23  C   UNL     1       4.729   0.974  23.085  0.00  0.00    +0.003 A 
ATOM     25  C   UNL     1       4.435  -1.269  23.818  0.00  0.00    +0.111 A 
ATOM     27  C   UNL     1       5.269  -0.176  23.651  0.00  0.00    +0.020 A 
ENDBRANCH  17  19
ENDBRANCH   4  17
BRANCH   4  18
ATOM     18  C   UNL     1      -0.795   1.080  23.055  0.00  0.00    +0.140 C 
BRANCH  18  20
ATOM      7  N   UNL     1      -0.092   2.753  24.674  0.00  0.00    -0.259 NA
ATOM     20  C   UNL     1      -1.089   2.304  23.880  0.00  0.00    +0.055 A 
ATOM     22  C   UNL     1      -2.337   2.899  23.788  0.00  0.00    +0.024 A 
ATOM     24  C   UNL     1      -2.576   4.030  24.562  0.00  0.00    +0.003 A 
ATOM     26  C   UNL     1      -0.361   3.853  25.411  0.00  0.00    +0.111 A 
ATOM     28  C   UNL     1      -1.575   4.522  25.392  0.00  0.00    +0.020 A 
ENDBRANCH  18  20
ENDBRANCH   4  18
TORSDOF 9
ENDMDL
MODEL 2
REMARK VINA RESULT:      -5.0      1.901      5.376
REMARK  Name = 75536460
REMARK  9 active torsions:
REMARK  status: ('A' for Active; 'I' for Inactive)
REMARK    1  A    between atoms: O_2  and  C_10
REMARK    2  A    between atoms: N_4  and  C_9
REMARK    3  A    between atoms: N_4  and  C_17
REMARK    4  A    between atoms: N_4  and  C_18
REMARK    5  A    between atoms: N_5  and  C_15
REMARK    6  A    between atoms: C_8  and  C_16
REMARK    7  A    between atoms: C_11  and  C_15
REMARK    8  A    between atoms: C_17  and  C_19
REMARK    9  A    between atoms: C_18  and  C_20
REMARK                            x       y       z     vdW  Elec       q    Type
REMARK                         _______ _______ _______ _____ _____    ______ ____
ROOT
ATOM      4  N   UNL     1       0.155   0.546  23.684  0.00  0.00    -0.283 NA
ENDROOT
BRANCH   4   9
ATOM      1  O   UNL     1      -0.729   2.741  26.447  0.00  0.00    -0.371 OA
ATOM      9  C   UNL     1       0.286   1.687  24.577  0.00  0.00    +0.114 C 
ATOM     10  C   UNL     1      -0.463   2.919  24.103  0.00  0.00    +0.164 C 
ATOM     11  C   UNL     1      -0.571   3.712  25.399  0.00  0.00    +0.165 C 
ATOM     14  C   UNL     1      -0.350   1.451  25.936  0.00  0.00    +0.182 C 
BRANCH  10   2
ATOM      2  O   UNL     1       0.237   3.635  23.104  0.00  0.00    -0.388 OA
ATOM     30  H   UNL     1       0.446   4.519  23.451  0.00  0.00    +0.210 HD
ENDBRANCH  10   2
BRANCH  11  15
ATOM     15  C   UNL     1      -1.740   4.680  25.416  0.00  0.00    +0.138 C 
BRANCH  15   5
ATOM      3  O   UNL     1      -3.876   3.589  23.773  0.00  0.00    -0.276 OA
ATOM      5  N   UNL     1      -2.943   4.038  25.860  0.00  0.00    -0.313 N 
ATOM     16  C   UNL     1      -3.912   3.546  24.997  0.00  0.00    +0.216 C 
ATOM     29  H   UNL     1      -3.079   3.928  26.861  0.00  0.00    +0.149 HD
BRANCH  16   8
ATOM      8  C   UNL     1      -5.081   2.914  25.678  0.00  0.00    +0.075 C 
ATOM     12  C   UNL     1      -6.093   2.203  24.842  0.00  0.00    +0.013 C 
ATOM     13  C   UNL     1      -5.160   1.423  25.720  0.00  0.00    +0.013 C 
ENDBRANCH  16   8
ENDBRANCH  15   5
ENDBRANCH  11  15
ENDBRANCH   4   9
BRANCH   4  17
ATOM     17  C   UNL     1      -1.213   0.440  23.172  0.00  0.00    +0.140 C 
BRANCH  17  19
ATOM      6  N   UNL     1      -1.226  -1.660  24.400  0.00  0.00    -0.259 NA
ATOM     19  C   UNL     1      -1.967  -0.693  23.813  0.00  0.00    +0.055 A 
ATOM     21  C   UNL     1      -3.353  -0.695  23.773  0.00  0.00    +0.024 A 
ATOM     23  C   UNL     1      -4.019  -1.757  24.375  0.00  0.00    +0.003 A 
ATOM     25  C   UNL     1      -1.909  -2.675  24.974  0.00  0.00    +0.111 A 
ATOM     27  C   UNL     1      -3.291  -2.770  24.990  0.00  0.00    +0.020 A 
ENDBRANCH  17  19
ENDBRANCH   4  17
BRANCH   4  18
ATOM     18  C   UNL     1       1.104   0.645  22.571  0.00  0.00    +0.140 C 
BRANCH  18  20
ATOM      7  N   UNL     1       2.634  -1.033  23.443  0.00  0.00    -0.259 NA
ATOM     20  C   UNL     1       2.492   0.228  22.979  0.00  0.00    +0.055 A 
ATOM     22  C   UNL     1       3.534   1.134  22.862  0.00  0.00    +0.024 A 
ATOM     24  C   UNL     1       4.805   0.717  23.245  0.00  0.00    +0.003 A 
ATOM     26  C   UNL     1       3.883  -1.402  23.806  0.00  0.00    +0.111 A 
ATOM     28  C   UNL     1       4.991  -0.573  23.727  0.00  0.00    +0.020 A 
ENDBRANCH  18  20
ENDBRANCH   4  18
TORSDOF 9
ENDMDL
MODEL 3
REMARK VINA RESULT:      -4.7      1.838      3.801
REMARK  Name = 75536460
REMARK  9 active torsions:
REMARK  status: ('A' for Active; 'I' for Inactive)
REMARK    1  A    between atoms: O_2  and  C_10
REMARK    2  A    between atoms: N_4  and  C_9
REMARK    3  A    between atoms: N_4  and  C_17
REMARK    4  A    between atoms: N_4  and  C_18
REMARK    5  A    between atoms: N_5  and  C_15
REMARK    6  A    between atoms: C_8  and  C_16
REMARK    7  A    between atoms: C_11  and  C_15
REMARK    8  A    between atoms: C_17  and  C_19
REMARK    9  A    between atoms: C_18  and  C_20
REMARK                            x       y       z     vdW  Elec       q    Type
REMARK                         _______ _______ _______ _____ _____    ______ ____
ROOT
ATOM      4  N   UNL     1       0.167   0.137  23.147  0.00  0.00    -0.283 NA
ENDROOT
BRANCH   4   9
ATOM      1  O   UNL     1       0.367   2.830  25.584  0.00  0.00    -0.371 OA
ATOM      9  C   UNL     1       0.242   1.513  23.612  0.00  0.00    +0.114 C 
ATOM     10  C   UNL     1      -1.115   2.142  23.873  0.00  0.00    +0.164 C 
ATOM     11  C   UNL     1      -0.730   3.301  24.782  0.00  0.00    +0.165 C 
ATOM     14  C   UNL     1       0.901   1.642  24.975  0.00  0.00    +0.182 C 
BRANCH  10   2
ATOM      2  O   UNL     1      -1.749   2.587  22.690  0.00  0.00    -0.388 OA
ATOM     30  H   UNL     1      -2.019   3.512  22.818  0.00  0.00    +0.210 HD
ENDBRANCH  10   2
BRANCH  11  15
ATOM     15  C   UNL     1      -1.863   3.761  25.683  0.00  0.00    +0.138 C 
BRANCH  15   5
ATOM      3  O   UNL     1      -4.099   4.390  23.934  0.00  0.00    -0.276 OA
ATOM      5  N   UNL     1      -3.050   2.984  25.466  0.00  0.00    -0.313 N 
ATOM     16  C   UNL     1      -4.069   3.367  24.607  0.00  0.00    +0.216 C 
ATOM     29  H   UNL     1      -3.133   2.100  25.961  0.00  0.00    +0.149 HD
BRANCH  16   8
ATOM      8  C   UNL     1      -5.209   2.405  24.535  0.00  0.00    +0.075 C 
ATOM     12  C   UNL     1      -4.978   0.993  24.960  0.00  0.00    +0.013 C 
ATOM     13  C   UNL     1      -5.804   1.910  25.812  0.00  0.00    +0.013 C 
ENDBRANCH  16   8
ENDBRANCH  15   5
ENDBRANCH  11  15
ENDBRANCH   4   9
BRANCH   4  17
ATOM     17  C   UNL     1       1.193  -0.126  22.135  0.00  0.00    +0.140 C 
BRANCH  17  19
ATOM      6  N   UNL     1       2.949  -1.303  23.339  0.00  0.00    -0.259 NA
ATOM     19  C   UNL     1       2.576  -0.156  22.729  0.00  0.00    +0.055 A 
ATOM     21  C   UNL     1       3.382   0.967  22.628  0.00  0.00    +0.024 A 
ATOM     23  C   UNL     1       4.653   0.907  23.187  0.00  0.00    +0.003 A 
ATOM     25  C   UNL     1       4.191  -1.323  23.871  0.00  0.00    +0.111 A 
ATOM     27  C   UNL     1       5.074  -0.256  23.823  0.00  0.00    +0.020 A 
ENDBRANCH  17  19
ENDBRANCH   4  17
BRANCH   4  18
ATOM     18  C   UNL     1       0.311  -0.799  24.266  0.00  0.00    +0.140 C 
BRANCH  18  20
ATOM      7  N   UNL     1      -1.535  -2.361  24.005  0.00  0.00    -0.259 NA
ATOM     20  C   UNL     1      -1.019  -1.338  24.721  0.00  0.00    +0.055 A 
ATOM     22  C   UNL     1      -1.636  -0.774  25.826  0.00  0.00    +0.024 A 
ATOM     24  C   UNL     1      -2.864  -1.296  26.222  0.00  0.00    +0.003 A 
ATOM     26  C   UNL     1      -2.729  -2.842  24.419  0.00  0.00    +0.111 A 
ATOM     28  C   UNL     1      -3.427  -2.349  25.510  0.00  0.00    +0.020 A 
ENDBRANCH  18  20
ENDBRANCH   4  18
TORSDOF 9
ENDMDL
MODEL 4
REMARK VINA RESULT:      -4.1      0.899      4.409
REMARK  Name = 75536460
REMARK  9 active torsions:
REMARK  status: ('A' for Active; 'I' for Inactive)
REMARK    1  A    between atoms: O_2  and  C_10
REMARK    2  A    between atoms: N_4  and  C_9
REMARK    3  A    between atoms: N_4  and  C_17
REMARK    4  A    between atoms: N_4  and  C_18
REMARK    5  A    between atoms: N_5  and  C_15
REMARK    6  A    between atoms: C_8  and  C_16
REMARK    7  A    between atoms: C_11  and  C_15
REMARK    8  A    between atoms: C_17  and  C_19
REMARK    9  A    between atoms: C_18  and  C_20
REMARK                            x       y       z     vdW  Elec       q    Type
REMARK                         _______ _______ _______ _____ _____    ______ ____
ROOT
ATOM      4  N   UNL     1       0.251   0.391  23.522  0.00  0.00    -0.283 NA
ENDROOT
BRANCH   4   9
ATOM      1  O   UNL     1      -1.644  -2.681  23.967  0.00  0.00    -0.371 OA
ATOM      9  C   UNL     1      -0.149  -0.848  24.169  0.00  0.00    +0.114 C 
ATOM     10  C   UNL     1      -1.278  -0.676  25.168  0.00  0.00    +0.164 C 
ATOM     11  C   UNL     1      -1.793  -2.105  25.276  0.00  0.00    +0.165 C 
ATOM     14  C   UNL     1      -0.751  -1.853  23.203  0.00  0.00    +0.182 C 
BRANCH  10   2
ATOM      2  O   UNL     1      -0.835  -0.180  26.416  0.00  0.00    -0.388 OA
ATOM     30  H   UNL     1      -1.585  -0.194  27.035  0.00  0.00    +0.210 HD
ENDBRANCH  10   2
BRANCH  11  15
ATOM     15  C   UNL     1      -3.245  -2.190  25.712  0.00  0.00    +0.138 C 
BRANCH  15   5
ATOM      3  O   UNL     1      -4.380  -0.355  23.763  0.00  0.00    -0.276 OA
ATOM      5  N   UNL     1      -3.794  -0.887  25.954  0.00  0.00    -0.313 N 
ATOM     16  C   UNL     1      -4.316  -0.078  24.955  0.00  0.00    +0.216 C 
ATOM     29  H   UNL     1      -3.812  -0.552  26.913  0.00  0.00    +0.149 HD
BRANCH  16   8
ATOM      8  C   UNL     1      -4.836   1.237  25.434  0.00  0.00    +0.075 C 
ATOM     12  C   UNL     1      -4.761   2.410  24.515  0.00  0.00    +0.013 C 
ATOM     13  C   UNL     1      -6.086   1.775  24.819  0.00  0.00    +0.013 C 
ENDBRANCH  16   8
ENDBRANCH  15   5
ENDBRANCH  11  15
ENDBRANCH   4   9
BRANCH   4  17
ATOM     17  C   UNL     1       0.872   1.305  24.484  0.00  0.00    +0.140 C 
BRANCH  17  19
ATOM      6  N   UNL     1      -0.778   2.462  25.848  0.00  0.00    -0.259 NA
ATOM     19  C   UNL     1       0.012   2.511  24.751  0.00  0.00    +0.055 A 
ATOM     21  C   UNL     1       0.066   3.589  23.882  0.00  0.00    +0.024 A 
ATOM     23  C   UNL     1      -0.741   4.687  24.157  0.00  0.00    +0.003 A 
ATOM     25  C   UNL     1      -1.548   3.547  26.082  0.00  0.00    +0.111 A 
ATOM     27  C   UNL     1      -1.566   4.674  25.276  0.00  0.00    +0.020 A 
ENDBRANCH  17  19
ENDBRANCH   4  17
BRANCH   4  18
ATOM     18  C   UNL     1       1.171   0.126  22.412  0.00  0.00    +0.140 C 
BRANCH  18  20
ATOM      7  N   UNL     1       2.936  -1.211  23.416  0.00  0.00    -0.259 NA
ATOM     20  C   UNL     1       2.593  -0.018  22.884  0.00  0.00    +0.055 A 
ATOM     22  C   UNL     1       3.462   1.053  22.754  0.00  0.00    +0.024 A 
ATOM     24  C   UNL     1       4.770   0.887  23.198  0.00  0.00    +0.003 A 
ATOM     26  C   UNL     1       4.215  -1.335  23.838  0.00  0.00    +0.111 A 
ATOM     28  C   UNL     1       5.161  -0.326  23.752  0.00  0.00    +0.020 A 
ENDBRANCH  18  20
ENDBRANCH   4  18
TORSDOF 9
ENDMDL
MODEL 5
REMARK VINA RESULT:      -3.5      2.186      5.369
REMARK  Name = 75536460
REMARK  9 active torsions:
REMARK  status: ('A' for Active; 'I' for Inactive)
REMARK    1  A    between atoms: O_2  and  C_10
REMARK    2  A    between atoms: N_4  and  C_9
REMARK    3  A    between atoms: N_4  and  C_17
REMARK    4  A    between atoms: N_4  and  C_18
REMARK    5  A    between atoms: N_5  and  C_15
REMARK    6  A    between atoms: C_8  and  C_16
REMARK    7  A    between atoms: C_11  and  C_15
REMARK    8  A    between atoms: C_17  and  C_19
REMARK    9  A    between atoms: C_18  and  C_20
REMARK                            x       y       z     vdW  Elec       q    Type
REMARK                         _______ _______ _______ _____ _____    ______ ____
ROOT
ATOM      4  N   UNL     1      -0.330   0.958  24.919  0.00  0.00    -0.283 NA
ENDROOT
BRANCH   4   9
ATOM      1  O   UNL     1      -1.122   4.461  25.498  0.00  0.00    -0.371 OA
ATOM      9  C   UNL     1      -0.574   2.347  24.565  0.00  0.00    +0.114 C 
ATOM     10  C   UNL     1      -2.031   2.654  24.271  0.00  0.00    +0.164 C 
ATOM     11  C   UNL     1      -2.052   4.167  24.441  0.00  0.00    +0.165 C 
ATOM     14  C   UNL     1      -0.288   3.308  25.706  0.00  0.00    +0.182 C 
BRANCH  10   2
ATOM      2  O   UNL     1      -2.421   2.265  22.968  0.00  0.00    -0.388 OA
ATOM     30  H   UNL     1      -2.278   1.307  22.880  0.00  0.00    +0.210 HD
ENDBRANCH  10   2
BRANCH  11  15
ATOM     15  C   UNL     1      -3.423   4.713  24.798  0.00  0.00    +0.138 C 
BRANCH  15   5
ATOM      3  O   UNL     1      -6.132   4.930  25.831  0.00  0.00    -0.276 OA
ATOM      5  N   UNL     1      -4.372   3.656  24.992  0.00  0.00    -0.313 N 
ATOM     16  C   UNL     1      -5.649   3.856  25.494  0.00  0.00    +0.216 C 
ATOM     29  H   UNL     1      -4.091   2.714  24.731  0.00  0.00    +0.149 HD
BRANCH  16   8
ATOM      8  C   UNL     1      -6.468   2.612  25.609  0.00  0.00    +0.075 C 
ATOM     12  C   UNL     1      -6.114   1.443  24.752  0.00  0.00    +0.013 C 
ATOM     13  C   UNL     1      -5.845   1.405  26.227  0.00  0.00    +0.013 C 
ENDBRANCH  16   8
ENDBRANCH  15   5
ENDBRANCH  11  15
ENDBRANCH   4   9
BRANCH   4  17
ATOM     17  C   UNL     1      -1.404   0.443  25.773  0.00  0.00    +0.140 C 
BRANCH  17  19
ATOM      6  N   UNL     1      -1.429  -1.878  25.042  0.00  0.00    -0.259 NA
ATOM     19  C   UNL     1      -2.119  -0.719  25.137  0.00  0.00    +0.055 A 
ATOM     21  C   UNL     1      -3.420  -0.552  24.688  0.00  0.00    +0.024 A 
ATOM     23  C   UNL     1      -4.052  -1.644  24.106  0.00  0.00    +0.003 A 
ATOM     25  C   UNL     1      -2.077  -2.917  24.470  0.00  0.00    +0.111 A 
ATOM     27  C   UNL     1      -3.376  -2.853  23.991  0.00  0.00    +0.020 A 
ENDBRANCH  17  19
ENDBRANCH   4  17
BRANCH   4  18
ATOM     18  C   UNL     1      -0.200   0.129  23.717  0.00  0.00    +0.140 C 
BRANCH  18  20
ATOM      7  N   UNL     1       2.031   1.097  23.698  0.00  0.00    -0.259 NA
ATOM     20  C   UNL     1       1.161   0.262  23.088  0.00  0.00    +0.055 A 
ATOM     22  C   UNL     1       1.451  -0.460  21.942  0.00  0.00    +0.024 A 
ATOM     24  C   UNL     1       2.719  -0.317  21.386  0.00  0.00    +0.003 A 
ATOM     26  C   UNL     1       3.252   1.211  23.130  0.00  0.00    +0.111 A 
ATOM     28  C   UNL     1       3.642   0.533  21.985  0.00  0.00    +0.020 A 
ENDBRANCH  18  20
ENDBRANCH   4  18
TORSDOF 9
ENDMDL
MODEL 6
REMARK VINA RESULT:      -3.0      2.196      4.485
REMARK  Name = 75536460
REMARK  9 active torsions:
REMARK  status: ('A' for Active; 'I' for Inactive)
REMARK    1  A    between atoms: O_2  and  C_10
REMARK    2  A    between atoms: N_4  and  C_9
REMARK    3  A    between atoms: N_4  and  C_17
REMARK    4  A    between atoms: N_4  and  C_18
REMARK    5  A    between atoms: N_5  and  C_15
REMARK    6  A    between atoms: C_8  and  C_16
REMARK    7  A    between atoms: C_11  and  C_15
REMARK    8  A    between atoms: C_17  and  C_19
REMARK    9  A    between atoms: C_18  and  C_20
REMARK                            x       y       z     vdW  Elec       q    Type
REMARK                         _______ _______ _______ _____ _____    ______ ____
ROOT
ATOM      4  N   UNL     1      -0.891   1.340  24.226  0.00  0.00    -0.283 NA
ENDROOT
BRANCH   4   9
ATOM      1  O   UNL     1      -1.649   4.819  24.969  0.00  0.00    -0.371 OA
ATOM      9  C   UNL     1      -1.188   2.732  23.932  0.00  0.00    +0.114 C 
ATOM     10  C   UNL     1      -2.672   3.027  23.812  0.00  0.00    +0.164 C 
ATOM     11  C   UNL     1      -2.689   4.535  24.017  0.00  0.00    +0.165 C 
ATOM     14  C   UNL     1      -0.785   3.672  25.055  0.00  0.00    +0.182 C 
BRANCH  10   2
ATOM      2  O   UNL     1      -3.202   2.660  22.553  0.00  0.00    -0.388 OA
ATOM     30  H   UNL     1      -2.461   2.493  21.946  0.00  0.00    +0.210 HD
ENDBRANCH  10   2
BRANCH  11  15
ATOM     15  C   UNL     1      -4.017   5.056  24.538  0.00  0.00    +0.138 C 
BRANCH  15   5
ATOM      3  O   UNL     1      -4.395   3.653  27.056  0.00  0.00    -0.276 OA
ATOM      5  N   UNL     1      -4.927   3.982  24.812  0.00  0.00    -0.313 N 
ATOM     16  C   UNL     1      -5.039   3.371  26.052  0.00  0.00    +0.216 C 
ATOM     29  H   UNL     1      -5.530   3.668  24.056  0.00  0.00    +0.149 HD
BRANCH  16   8
ATOM      8  C   UNL     1      -6.053   2.276  26.112  0.00  0.00    +0.075 C 
ATOM     12  C   UNL     1      -6.579   1.722  24.830  0.00  0.00    +0.013 C 
ATOM     13  C   UNL     1      -5.648   0.907  25.678  0.00  0.00    +0.013 C 
ENDBRANCH  16   8
ENDBRANCH  15   5
ENDBRANCH  11  15
ENDBRANCH   4   9
BRANCH   4  17
ATOM     17  C   UNL     1       0.489   1.189  24.693  0.00  0.00    +0.140 C 
BRANCH  17  19
ATOM      6  N   UNL     1       2.664   1.284  23.606  0.00  0.00    -0.259 NA
ATOM     19  C   UNL     1       1.415   0.766  23.584  0.00  0.00    +0.055 A 
ATOM     21  C   UNL     1       0.957  -0.112  22.616  0.00  0.00    +0.024 A 
ATOM     23  C   UNL     1       1.837  -0.483  21.605  0.00  0.00    +0.003 A 
ATOM     25  C   UNL     1       3.490   0.901  22.608  0.00  0.00    +0.111 A 
ATOM     27  C   UNL     1       3.130   0.028  21.594  0.00  0.00    +0.020 A 
ENDBRANCH  17  19
ENDBRANCH   4  17
BRANCH   4  18
ATOM     18  C   UNL     1      -1.823   0.808  25.225  0.00  0.00    +0.140 C 
BRANCH  18  20
ATOM      7  N   UNL     1      -1.641  -1.610  25.036  0.00  0.00    -0.259 NA
ATOM     20  C   UNL     1      -2.401  -0.517  24.804  0.00  0.00    +0.055 A 
ATOM     22  C   UNL     1      -3.654  -0.553  24.214  0.00  0.00    +0.024 A 
ATOM     24  C   UNL     1      -4.160  -1.793  23.839  0.00  0.00    +0.003 A 
ATOM     26  C   UNL     1      -2.166  -2.797  24.658  0.00  0.00    +0.111 A 
ATOM     28  C   UNL     1      -3.408  -2.941  24.060  0.00  0.00    +0.020 A 
ENDBRANCH  18  20
ENDBRANCH   4  18
TORSDOF 9
ENDMDL
MODEL 7
REMARK VINA RESULT:      -2.8      2.206      6.766
REMARK  Name = 75536460
REMARK  9 active torsions:
REMARK  status: ('A' for Active; 'I' for Inactive)
REMARK    1  A    between atoms: O_2  and  C_10
REMARK    2  A    between atoms: N_4  and  C_9
REMARK    3  A    between atoms: N_4  and  C_17
REMARK    4  A    between atoms: N_4  and  C_18
REMARK    5  A    between atoms: N_5  and  C_15
REMARK    6  A    between atoms: C_8  and  C_16
REMARK    7  A    between atoms: C_11  and  C_15
REMARK    8  A    between atoms: C_17  and  C_19
REMARK    9  A    between atoms: C_18  and  C_20
REMARK                            x       y       z     vdW  Elec       q    Type
REMARK                         _______ _______ _______ _____ _____    ______ ____
ROOT
ATOM      4  N   UNL     1      -2.544   1.220  23.558  0.00  0.00    -0.283 NA
ENDROOT
BRANCH   4   9
ATOM      1  O   UNL     1       1.060   1.613  23.851  0.00  0.00    -0.371 OA
ATOM      9  C   UNL     1      -1.205   0.926  24.042  0.00  0.00    +0.114 C 
ATOM     10  C   UNL     1      -0.455  -0.077  23.185  0.00  0.00    +0.164 C 
ATOM     11  C   UNL     1       0.983   0.199  23.601  0.00  0.00    +0.165 C 
ATOM     14  C   UNL     1      -0.277   2.127  23.982  0.00  0.00    +0.182 C 
BRANCH  10   2
ATOM      2  O   UNL     1      -0.833  -1.414  23.449  0.00  0.00    -0.388 OA
ATOM     30  H   UNL     1      -0.364  -1.993  22.824  0.00  0.00    +0.210 HD
ENDBRANCH  10   2
BRANCH  11  15
ATOM     15  C   UNL     1       2.001  -0.191  22.544  0.00  0.00    +0.138 C 
BRANCH  15   5
ATOM      3  O   UNL     1       4.077   1.842  22.434  0.00  0.00    -0.276 OA
ATOM      5  N   UNL     1       3.324  -0.261  23.094  0.00  0.00    -0.313 N 
ATOM     16  C   UNL     1       4.252   0.765  22.991  0.00  0.00    +0.216 C 
ATOM     29  H   UNL     1       3.582  -1.106  23.597  0.00  0.00    +0.149 HD
BRANCH  16   8
ATOM      8  C   UNL     1       5.566   0.475  23.639  0.00  0.00    +0.075 C 
ATOM     12  C   UNL     1       5.697  -0.763  24.462  0.00  0.00    +0.013 C 
ATOM     13  C   UNL     1       6.375  -0.670  23.128  0.00  0.00    +0.013 C 
ENDBRANCH  16   8
ENDBRANCH  15   5
ENDBRANCH  11  15
ENDBRANCH   4   9
BRANCH   4  17
ATOM     17  C   UNL     1      -3.556   0.767  24.517  0.00  0.00    +0.140 C 
BRANCH  17  19
ATOM      6  N   UNL     1      -4.088  -1.391  23.528  0.00  0.00    -0.259 NA
ATOM     19  C   UNL     1      -3.610  -0.734  24.609  0.00  0.00    +0.055 A 
ATOM     21  C   UNL     1      -3.180  -1.359  25.769  0.00  0.00    +0.024 A 
ATOM     23  C   UNL     1      -3.243  -2.747  25.821  0.00  0.00    +0.003 A 
ATOM     25  C   UNL     1      -4.134  -2.739  23.617  0.00  0.00    +0.111 A 
ATOM     27  C   UNL     1      -3.728  -3.458  24.729  0.00  0.00    +0.020 A 
ENDBRANCH  17  19
ENDBRANCH   4  17
BRANCH   4  18
ATOM     18  C   UNL     1      -2.701   2.655  23.300  0.00  0.00    +0.140 C 
BRANCH  18  20
ATOM      7  N   UNL     1      -4.761   3.319  24.411  0.00  0.00    -0.259 NA
ATOM     20  C   UNL     1      -3.410   3.353  24.430  0.00  0.00    +0.055 A 
ATOM     22  C   UNL     1      -2.663   3.983  25.412  0.00  0.00    +0.024 A 
ATOM     24  C   UNL     1      -3.348   4.618  26.443  0.00  0.00    +0.003 A 
ATOM     26  C   UNL     1      -5.392   3.947  25.428  0.00  0.00    +0.111 A 
ATOM     28  C   UNL     1      -4.738   4.605  26.459  0.00  0.00    +0.020 A 
ENDBRANCH  18  20
ENDBRANCH   4  18
TORSDOF 9
ENDMDL
MODEL 8
REMARK VINA RESULT:      -2.3      2.133      7.094
REMARK  Name = 75536460
REMARK  9 active torsions:
REMARK  status: ('A' for Active; 'I' for Inactive)
REMARK    1  A    between atoms: O_2  and  C_10
REMARK    2  A    between atoms: N_4  and  C_9
REMARK    3  A    between atoms: N_4  and  C_17
REMARK    4  A    between atoms: N_4  and  C_18
REMARK    5  A    between atoms: N_5  and  C_15
REMARK    6  A    between atoms: C_8  and  C_16
REMARK    7  A    between atoms: C_11  and  C_15
REMARK    8  A    between atoms: C_17  and  C_19
REMARK    9  A    between atoms: C_18  and  C_20
REMARK                            x       y       z     vdW  Elec       q    Type
REMARK                         _______ _______ _______ _____ _____    ______ ____
ROOT
ATOM      4  N   UNL     1      -3.328   1.479  25.324  0.00  0.00    -0.283 NA
ENDROOT
BRANCH   4   9
ATOM      1  O   UNL     1      -1.104   1.202  22.460  0.00  0.00    -0.371 OA
ATOM      9  C   UNL     1      -2.168   1.782  24.502  0.00  0.00    +0.114 C 
ATOM     10  C   UNL     1      -0.963   0.910  24.803  0.00  0.00    +0.164 C 
ATOM     11  C   UNL     1      -0.148   1.085  23.528  0.00  0.00    +0.165 C 
ATOM     14  C   UNL     1      -2.394   1.486  23.029  0.00  0.00    +0.182 C 
BRANCH  10   2
ATOM      2  O   UNL     1      -0.250   1.339  25.947  0.00  0.00    -0.388 OA
ATOM     30  H   UNL     1      -0.394   2.294  26.058  0.00  0.00    +0.210 HD
ENDBRANCH  10   2
BRANCH  11  15
ATOM     15  C   UNL     1       0.792  -0.074  23.252  0.00  0.00    +0.138 C 
BRANCH  15   5
ATOM      3  O   UNL     1       2.946   0.084  21.305  0.00  0.00    -0.276 OA
ATOM      5  N   UNL     1       2.158   0.294  23.487  0.00  0.00    -0.313 N 
ATOM     16  C   UNL     1       3.121   0.342  22.490  0.00  0.00    +0.216 C 
ATOM     29  H   UNL     1       2.423   0.547  24.436  0.00  0.00    +0.149 HD
BRANCH  16   8
ATOM      8  C   UNL     1       4.477   0.753  22.961  0.00  0.00    +0.075 C 
ATOM     12  C   UNL     1       5.004   0.156  24.224  0.00  0.00    +0.013 C 
ATOM     13  C   UNL     1       5.585  -0.246  22.901  0.00  0.00    +0.013 C 
ENDBRANCH  16   8
ENDBRANCH  15   5
ENDBRANCH  11  15
ENDBRANCH   4   9
BRANCH   4  17
ATOM     17  C   UNL     1      -3.953   2.709  25.817  0.00  0.00    +0.140 C 
BRANCH  17  19
ATOM      6  N   UNL     1      -3.962   4.577  24.258  0.00  0.00    -0.259 NA
ATOM     19  C   UNL     1      -3.298   3.939  25.248  0.00  0.00    +0.055 A 
ATOM     21  C   UNL     1      -2.075   4.351  25.752  0.00  0.00    +0.024 A 
ATOM     23  C   UNL     1      -1.497   5.491  25.205  0.00  0.00    +0.003 A 
ATOM     25  C   UNL     1      -3.369   5.680  23.751  0.00  0.00    +0.111 A 
ATOM     27  C   UNL     1      -2.149   6.174  24.185  0.00  0.00    +0.020 A 
ENDBRANCH  17  19
ENDBRANCH   4  17
BRANCH   4  18
ATOM     18  C   UNL     1      -4.304   0.682  24.575  0.00  0.00    +0.140 C 
BRANCH  18  20
ATOM      7  N   UNL     1      -4.339  -1.533  23.573  0.00  0.00    -0.259 NA
ATOM     20  C   UNL     1      -4.002  -0.791  24.650  0.00  0.00    +0.055 A 
ATOM     22  C   UNL     1      -3.407  -1.303  25.791  0.00  0.00    +0.024 A 
ATOM     24  C   UNL     1      -3.139  -2.668  25.828  0.00  0.00    +0.003 A 
ATOM     26  C   UNL     1      -4.065  -2.855  23.645  0.00  0.00    +0.111 A 
ATOM     28  C   UNL     1      -3.472  -3.466  24.739  0.00  0.00    +0.020 A 
ENDBRANCH  18  20
ENDBRANCH   4  18
TORSDOF 9
ENDMDL
MODEL 9
REMARK VINA RESULT:      -1.8      2.178      6.587
REMARK  Name = 75536460
REMARK  9 active torsions:
REMARK  status: ('A' for Active; 'I' for Inactive)
REMARK    1  A    between atoms: O_2  and  C_10
REMARK    2  A    between atoms: N_4  and  C_9
REMARK    3  A    between atoms: N_4  and  C_17
REMARK    4  A    between atoms: N_4  and  C_18
REMARK    5  A    between atoms: N_5  and  C_15
REMARK    6  A    between atoms: C_8  and  C_16
REMARK    7  A    between atoms: C_11  and  C_15
REMARK    8  A    between atoms: C_17  and  C_19
REMARK    9  A    between atoms: C_18  and  C_20
REMARK                            x       y       z     vdW  Elec       q    Type
REMARK                         _______ _______ _______ _____ _____    ______ ____
ROOT
ATOM      4  N   UNL     1      -2.148   0.979  24.925  0.00  0.00    -0.283 NA
ENDROOT
BRANCH   4   9
ATOM      1  O   UNL     1       0.759  -0.998  23.989  0.00  0.00    -0.371 OA
ATOM      9  C   UNL     1      -1.368   0.050  24.123  0.00  0.00    +0.114 C 
ATOM     10  C   UNL     1      -0.554   0.722  23.032  0.00  0.00    +0.164 C 
ATOM     11  C   UNL     1       0.480  -0.355  22.733  0.00  0.00    +0.165 C 
ATOM     14  C   UNL     1      -0.283  -0.653  24.919  0.00  0.00    +0.182 C 
BRANCH  10   2
ATOM      2  O   UNL     1      -1.326   1.042  21.891  0.00  0.00    -0.388 OA
ATOM     30  H   UNL     1      -0.978   1.864  21.507  0.00  0.00    +0.210 HD
ENDBRANCH  10   2
BRANCH  11  15
ATOM     15  C   UNL     1       1.766   0.195  22.142  0.00  0.00    +0.138 C 
BRANCH  15   5
ATOM      3  O   UNL     1       4.260   1.681  22.292  0.00  0.00    -0.276 OA
ATOM      5  N   UNL     1       2.886  -0.061  23.000  0.00  0.00    -0.313 N 
ATOM     16  C   UNL     1       4.041   0.707  23.001  0.00  0.00    +0.216 C 
ATOM     29  H   UNL     1       2.816  -0.840  23.650  0.00  0.00    +0.149 HD
BRANCH  16   8
ATOM      8  C   UNL     1       5.078   0.260  23.979  0.00  0.00    +0.075 C 
ATOM     12  C   UNL     1       5.309  -1.204  24.154  0.00  0.00    +0.013 C 
ATOM     13  C   UNL     1       6.331  -0.359  23.454  0.00  0.00    +0.013 C 
ENDBRANCH  16   8
ENDBRANCH  15   5
ENDBRANCH  11  15
ENDBRANCH   4   9
BRANCH   4  17
ATOM     17  C   UNL     1      -3.143   0.265  25.729  0.00  0.00    +0.140 C 
BRANCH  17  19
ATOM      6  N   UNL     1      -3.097  -2.168  25.718  0.00  0.00    -0.259 NA
ATOM     19  C   UNL     1      -3.535  -1.047  25.102  0.00  0.00    +0.055 A 
ATOM     21  C   UNL     1      -4.308  -1.045  23.952  0.00  0.00    +0.024 A 
ATOM     23  C   UNL     1      -4.653  -2.272  23.398  0.00  0.00    +0.003 A 
ATOM     25  C   UNL     1      -3.453  -3.342  25.151  0.00  0.00    +0.111 A 
ATOM     27  C   UNL     1      -4.222  -3.448  24.003  0.00  0.00    +0.020 A 
ENDBRANCH  17  19
ENDBRANCH   4  17
BRANCH   4  18
ATOM     18  C   UNL     1      -1.277   1.776  25.793  0.00  0.00    +0.140 C 
BRANCH  18  20
ATOM      7  N   UNL     1      -2.588   3.815  25.989  0.00  0.00    -0.259 NA
ATOM     20  C   UNL     1      -1.441   3.253  25.551  0.00  0.00    +0.055 A 
ATOM     22  C   UNL     1      -0.433   3.949  24.905  0.00  0.00    +0.024 A 
ATOM     24  C   UNL     1      -0.614   5.313  24.697  0.00  0.00    +0.003 A 
ATOM     26  C   UNL     1      -2.730   5.141  25.770  0.00  0.00    +0.111 A 
ATOM     28  C   UNL     1      -1.782   5.927  25.135  0.00  0.00    +0.020 A 
ENDBRANCH  18  20
ENDBRANCH   4  18
TORSDOF 9
ENDMDL
MODEL 10
REMARK VINA RESULT:      -1.4      1.364      2.067
REMARK  Name = 75536460
REMARK  9 active torsions:
REMARK  status: ('A' for Active; 'I' for Inactive)
REMARK    1  A    between atoms: O_2  and  C_10
REMARK    2  A    between atoms: N_4  and  C_9
REMARK    3  A    between atoms: N_4  and  C_17
REMARK    4  A    between atoms: N_4  and  C_18
REMARK    5  A    between atoms: N_5  and  C_15
REMARK    6  A    between atoms: C_8  and  C_16
REMARK    7  A    between atoms: C_11  and  C_15
REMARK    8  A    between atoms: C_17  and  C_19
REMARK    9  A    between atoms: C_18  and  C_20
REMARK                            x       y       z     vdW  Elec       q    Type
REMARK                         _______ _______ _______ _____ _____    ______ ____
ROOT
ATOM      4  N   UNL     1       0.177  -0.455  23.845  0.00  0.00    -0.283 NA
ENDROOT
BRANCH   4   9
ATOM      1  O   UNL     1      -3.209   0.750  23.284  0.00  0.00    -0.371 OA
ATOM      9  C   UNL     1      -1.215  -0.532  23.434  0.00  0.00    +0.114 C 
ATOM     10  C   UNL     1      -2.157  -0.950  24.549  0.00  0.00    +0.164 C 
ATOM     11  C   UNL     1      -3.492  -0.463  24.003  0.00  0.00    +0.165 C 
ATOM     14  C   UNL     1      -1.792   0.817  23.042  0.00  0.00    +0.182 C 
BRANCH  10   2
ATOM      2  O   UNL     1      -2.156  -2.347  24.772  0.00  0.00    -0.388 OA
ATOM     30  H   UNL     1      -2.549  -2.780  23.995  0.00  0.00    +0.210 HD
ENDBRANCH  10   2
BRANCH  11  15
ATOM     15  C   UNL     1      -4.520  -0.189  25.085  0.00  0.00    +0.138 C 
BRANCH  15   5
ATOM      3  O   UNL     1      -6.788   1.577  24.642  0.00  0.00    -0.276 OA
ATOM      5  N   UNL     1      -4.608   1.212  25.379  0.00  0.00    -0.313 N 
ATOM     16  C   UNL     1      -5.738   1.977  25.131  0.00  0.00    +0.216 C 
ATOM     29  H   UNL     1      -3.800   1.657  25.806  0.00  0.00    +0.149 HD
BRANCH  16   8
ATOM      8  C   UNL     1      -5.608   3.414  25.519  0.00  0.00    +0.075 C 
ATOM     12  C   UNL     1      -4.369   3.851  26.227  0.00  0.00    +0.013 C 
ATOM     13  C   UNL     1      -4.605   4.256  24.802  0.00  0.00    +0.013 C 
ENDBRANCH  16   8
ENDBRANCH  15   5
ENDBRANCH  11  15
ENDBRANCH   4   9
BRANCH   4  17
ATOM     17  C   UNL     1       0.978   0.251  22.841  0.00  0.00    +0.140 C 
BRANCH  17  19
ATOM      6  N   UNL     1       2.841  -1.157  23.523  0.00  0.00    -0.259 NA
ATOM     19  C   UNL     1       2.454   0.052  23.057  0.00  0.00    +0.055 A 
ATOM     21  C   UNL     1       3.327   1.090  22.776  0.00  0.00    +0.024 A 
ATOM     23  C   UNL     1       4.684   0.874  22.987  0.00  0.00    +0.003 A 
ATOM     25  C   UNL     1       4.167  -1.330  23.715  0.00  0.00    +0.111 A 
ATOM     27  C   UNL     1       5.121  -0.356  23.465  0.00  0.00    +0.020 A 
ENDBRANCH  17  19
ENDBRANCH   4  17
BRANCH   4  18
ATOM     18  C   UNL     1       0.301   0.210  25.145  0.00  0.00    +0.140 C 
BRANCH  18  20
ATOM      7  N   UNL     1       0.422   2.394  24.082  0.00  0.00    -0.259 NA
ATOM     20  C   UNL     1      -0.114   1.656  25.078  0.00  0.00    +0.055 A 
ATOM     22  C   UNL     1      -1.004   2.149  26.018  0.00  0.00    +0.024 A 
ATOM     24  C   UNL     1      -1.369   3.489  25.928  0.00  0.00    +0.003 A 
ATOM     26  C   UNL     1       0.045   3.691  24.026  0.00  0.00    +0.111 A 
ATOM     28  C   UNL     1      -0.838   4.281  24.916  0.00  0.00    +0.020 A 
ENDBRANCH  18  20
ENDBRANCH   4  18
TORSDOF 9
ENDMDL
