MODEL 1
REMARK VINA RESULT:       3.2      0.000      0.000
REMARK  Name = 7134372
REMARK  13 active torsions:
REMARK  status: ('A' for Active; 'I' for Inactive)
REMARK    1  A    between atoms: S_1  and  N_12
REMARK    2  A    between atoms: S_1  and  C_24
REMARK    3  A    between atoms: S_2  and  C_23
REMARK    4  A    between atoms: S_2  and  C_30
REMARK    5  A    between atoms: O_9  and  C_37
REMARK    6  A    between atoms: N_12  and  C_15
REMARK    7  A    between atoms: N_13  and  C_22
REMARK    8  A    between atoms: C_17  and  C_20
REMARK    9  A    between atoms: C_21  and  C_23
REMARK   10  A    between atoms: C_22  and  C_25
REMARK   11  A    between atoms: C_22  and  C_26
REMARK   12  A    between atoms: C_25  and  C_27
REMARK   13  A    between atoms: C_30  and  C_37
REMARK                            x       y       z     vdW  Elec       q    Type
REMARK                         _______ _______ _______ _____ _____    ______ ____
ROOT
ATOM      5  O   UNL     1       2.802  -1.604  23.297  0.00  0.00    -0.275 OA
ATOM     11  N   UNL     1       0.869  -0.310  23.386  0.00  0.00    -0.289 N 
ATOM     15  C   UNL     1      -1.970  -0.132  24.021  0.00  0.00    +0.080 C 
ATOM     16  C   UNL     1      -1.373   0.690  22.877  0.00  0.00    +0.052 C 
ATOM     17  C   UNL     1       0.134   0.913  23.021  0.00  0.00    +0.163 C 
ATOM     18  C   UNL     1      -1.185  -1.426  24.215  0.00  0.00    +0.039 C 
ATOM     19  C   UNL     1       0.289  -1.130  24.457  0.00  0.00    +0.110 C 
ATOM     21  C   UNL     1       2.133  -0.650  22.891  0.00  0.00    +0.226 C 
ENDROOT
BRANCH  17  20
ATOM      4  O   UNL     1       1.562   2.472  24.133  0.00  0.00    -0.274 OA
ATOM     13  N   UNL     1      -0.611   2.181  24.913  0.00  0.00    -0.302 N 
ATOM     20  C   UNL     1       0.456   1.942  24.065  0.00  0.00    +0.234 C 
ATOM     39  H   UNL     1      -1.500   1.723  24.729  0.00  0.00    +0.150 HD
BRANCH  13  22
ATOM     22  C   UNL     1      -0.552   3.112  26.016  0.00  0.00    +0.163 C 
BRANCH  22  26
ATOM      8  O   UNL     1      -2.695   4.142  26.515  0.00  0.00    -0.274 OA
ATOM     14  N   UNL     1      -1.426   5.017  24.813  0.00  0.00    -0.328 N 
ATOM     26  C   UNL     1      -1.682   4.112  25.821  0.00  0.00    +0.231 C 
ATOM     40  H   UNL     1      -2.093   5.747  24.587  0.00  0.00    +0.145 HD
ATOM     41  H   UNL     1      -0.573   4.995  24.263  0.00  0.00    +0.145 HD
ENDBRANCH  22  26
BRANCH  22  25
ATOM     25  C   UNL     1      -0.687   2.412  27.374  0.00  0.00    +0.067 C 
BRANCH  25  27
ATOM     27  C   UNL     1       0.574   2.495  28.201  0.00  0.00    -0.045 A 
ATOM     32  C   UNL     1       0.549   2.132  29.546  0.00  0.00    +0.004 A 
ATOM     33  C   UNL     1       1.762   2.936  27.617  0.00  0.00    +0.004 A 
ATOM     34  C   UNL     1       1.714   2.208  30.311  0.00  0.00    +0.000 A 
ATOM     35  C   UNL     1       2.927   3.012  28.382  0.00  0.00    +0.000 A 
ATOM     36  C   UNL     1       2.903   2.649  29.727  0.00  0.00    +0.000 A 
ENDBRANCH  25  27
ENDBRANCH  22  25
ENDBRANCH  13  22
ENDBRANCH  17  20
BRANCH  15  12
ATOM     12  N   UNL     1      -3.383  -0.453  23.705  0.00  0.00    -0.186 NA
ATOM     38  H   UNL     1      -3.515  -1.352  23.224  0.00  0.00    +0.148 HD
BRANCH  12   1
ATOM      1  S   UNL     1      -4.571  -0.050  24.869  0.00  0.00    +0.065 S 
ATOM      6  O   UNL     1      -4.054  -0.319  26.197  0.00  0.00    -0.153 OA
ATOM      7  O   UNL     1      -5.848  -0.581  24.435  0.00  0.00    -0.153 OA
BRANCH   1  24
ATOM      3  S   UNL     1      -5.839   2.363  26.002  0.00  0.00    -0.077 S 
ATOM     24  C   UNL     1      -4.804   1.725  24.797  0.00  0.00    +0.142 A 
ATOM     28  C   UNL     1      -4.317   2.707  23.961  0.00  0.00    +0.036 A 
ATOM     29  C   UNL     1      -4.802   3.999  24.315  0.00  0.00    +0.010 A 
ATOM     31  C   UNL     1      -5.640   3.956  25.407  0.00  0.00    +0.047 A 
ENDBRANCH   1  24
ENDBRANCH  12   1
ENDBRANCH  15  12
BRANCH  21  23
ATOM     23  C   UNL     1       2.685   0.214  21.783  0.00  0.00    +0.165 C 
BRANCH  23   2
ATOM      2  S   UNL     1       3.903   1.321  22.507  0.00  0.00    -0.140 S 
BRANCH   2  30
ATOM     30  C   UNL     1       5.250   0.136  22.745  0.00  0.00    +0.189 C 
BRANCH  30  37
ATOM     10  O   UNL     1       5.515   0.700  25.072  0.00  0.00    -0.250 OA
ATOM     37  C   UNL     1       5.403  -0.160  24.208  0.00  0.00    +0.315 C 
BRANCH  37   9
ATOM      9  O   UNL     1       5.386  -1.490  24.479  0.00  0.00    -0.480 OA
ATOM     42  H   UNL     1       6.087  -1.972  23.992  0.00  0.00    +0.295 HD
ENDBRANCH  37   9
ENDBRANCH  30  37
ENDBRANCH   2  30
ENDBRANCH  23   2
ENDBRANCH  21  23
TORSDOF 13
ENDMDL
MODEL 2
REMARK VINA RESULT:       3.4      2.663      7.295
REMARK  Name = 7134372
REMARK  13 active torsions:
REMARK  status: ('A' for Active; 'I' for Inactive)
REMARK    1  A    between atoms: S_1  and  N_12
REMARK    2  A    between atoms: S_1  and  C_24
REMARK    3  A    between atoms: S_2  and  C_23
REMARK    4  A    between atoms: S_2  and  C_30
REMARK    5  A    between atoms: O_9  and  C_37
REMARK    6  A    between atoms: N_12  and  C_15
REMARK    7  A    between atoms: N_13  and  C_22
REMARK    8  A    between atoms: C_17  and  C_20
REMARK    9  A    between atoms: C_21  and  C_23
REMARK   10  A    between atoms: C_22  and  C_25
REMARK   11  A    between atoms: C_22  and  C_26
REMARK   12  A    between atoms: C_25  and  C_27
REMARK   13  A    between atoms: C_30  and  C_37
REMARK                            x       y       z     vdW  Elec       q    Type
REMARK                         _______ _______ _______ _____ _____    ______ ____
ROOT
ATOM      5  O   UNL     1      -4.457   0.060  23.971  0.00  0.00    -0.275 OA
ATOM     11  N   UNL     1      -2.189   0.320  24.428  0.00  0.00    -0.289 N 
ATOM     15  C   UNL     1       0.549   0.389  23.434  0.00  0.00    +0.080 C 
ATOM     16  C   UNL     1       0.241  -0.134  24.839  0.00  0.00    +0.052 C 
ATOM     17  C   UNL     1      -1.083   0.390  25.397  0.00  0.00    +0.163 C 
ATOM     18  C   UNL     1      -0.635   0.149  22.503  0.00  0.00    +0.039 C 
ATOM     19  C   UNL     1      -1.899   0.784  23.065  0.00  0.00    +0.110 C 
ATOM     21  C   UNL     1      -3.509  -0.010  24.757  0.00  0.00    +0.226 C 
ENDROOT
BRANCH  17  20
ATOM      4  O   UNL     1      -0.157   2.184  26.675  0.00  0.00    -0.274 OA
ATOM     13  N   UNL     1      -1.923   2.628  25.225  0.00  0.00    -0.302 N 
ATOM     20  C   UNL     1      -0.983   1.820  25.841  0.00  0.00    +0.234 C 
ATOM     39  H   UNL     1      -2.524   2.229  24.509  0.00  0.00    +0.150 HD
BRANCH  13  22
ATOM     22  C   UNL     1      -2.051   4.042  25.497  0.00  0.00    +0.163 C 
BRANCH  22  26
ATOM      8  O   UNL     1      -0.682   5.944  24.854  0.00  0.00    -0.274 OA
ATOM     14  N   UNL     1      -0.189   3.885  23.964  0.00  0.00    -0.328 N 
ATOM     26  C   UNL     1      -0.931   4.745  24.744  0.00  0.00    +0.231 C 
ATOM     40  H   UNL     1       0.598   4.223  23.420  0.00  0.00    +0.145 HD
ATOM     41  H   UNL     1      -0.392   2.892  23.902  0.00  0.00    +0.145 HD
ENDBRANCH  22  26
BRANCH  22  25
ATOM     25  C   UNL     1      -3.414   4.595  25.064  0.00  0.00    +0.067 C 
BRANCH  25  27
ATOM     27  C   UNL     1      -4.542   3.620  25.305  0.00  0.00    -0.045 A 
ATOM     32  C   UNL     1      -4.896   3.273  26.608  0.00  0.00    +0.004 A 
ATOM     33  C   UNL     1      -5.229   3.068  24.224  0.00  0.00    +0.004 A 
ATOM     34  C   UNL     1      -5.938   2.372  26.832  0.00  0.00    +0.000 A 
ATOM     35  C   UNL     1      -6.271   2.168  24.448  0.00  0.00    +0.000 A 
ATOM     36  C   UNL     1      -6.625   1.820  25.750  0.00  0.00    +0.000 A 
ENDBRANCH  25  27
ENDBRANCH  22  25
ENDBRANCH  13  22
ENDBRANCH  17  20
BRANCH  15  12
ATOM     12  N   UNL     1       1.745  -0.310  22.904  0.00  0.00    -0.186 NA
ATOM     38  H   UNL     1       1.532  -1.112  22.298  0.00  0.00    +0.148 HD
BRANCH  12   1
ATOM      1  S   UNL     1       3.083   0.646  22.431  0.00  0.00    +0.065 S 
ATOM      6  O   UNL     1       2.931   1.985  22.966  0.00  0.00    -0.153 OA
ATOM      7  O   UNL     1       3.343   0.422  21.023  0.00  0.00    -0.153 OA
BRANCH   1  24
ATOM      3  S   UNL     1       4.335  -1.615  23.859  0.00  0.00    -0.077 S 
ATOM     24  C   UNL     1       4.532  -0.030  23.242  0.00  0.00    +0.142 A 
ATOM     28  C   UNL     1       5.796   0.464  23.478  0.00  0.00    +0.036 A 
ATOM     29  C   UNL     1       6.613  -0.472  24.176  0.00  0.00    +0.010 A 
ATOM     31  C   UNL     1       5.943  -1.644  24.446  0.00  0.00    +0.047 A 
ENDBRANCH   1  24
ENDBRANCH  12   1
ENDBRANCH  15  12
BRANCH  21  23
ATOM     23  C   UNL     1      -3.758  -0.493  26.166  0.00  0.00    +0.165 C 
BRANCH  23   2
ATOM      2  S   UNL     1      -2.641  -1.867  26.478  0.00  0.00    -0.140 S 
BRANCH   2  30
ATOM     30  C   UNL     1      -3.464  -3.130  25.476  0.00  0.00    +0.189 C 
BRANCH  30  37
ATOM     10  O   UNL     1      -1.867  -3.012  23.676  0.00  0.00    -0.250 OA
ATOM     37  C   UNL     1      -3.034  -2.990  24.045  0.00  0.00    +0.315 C 
BRANCH  37   9
ATOM      9  O   UNL     1      -4.082  -2.854  23.193  0.00  0.00    -0.480 OA
ATOM     42  H   UNL     1      -4.838  -3.423  23.449  0.00  0.00    +0.295 HD
ENDBRANCH  37   9
ENDBRANCH  30  37
ENDBRANCH   2  30
ENDBRANCH  23   2
ENDBRANCH  21  23
TORSDOF 13
ENDMDL
MODEL 3
REMARK VINA RESULT:       6.2      2.310      3.577
REMARK  Name = 7134372
REMARK  13 active torsions:
REMARK  status: ('A' for Active; 'I' for Inactive)
REMARK    1  A    between atoms: S_1  and  N_12
REMARK    2  A    between atoms: S_1  and  C_24
REMARK    3  A    between atoms: S_2  and  C_23
REMARK    4  A    between atoms: S_2  and  C_30
REMARK    5  A    between atoms: O_9  and  C_37
REMARK    6  A    between atoms: N_12  and  C_15
REMARK    7  A    between atoms: N_13  and  C_22
REMARK    8  A    between atoms: C_17  and  C_20
REMARK    9  A    between atoms: C_21  and  C_23
REMARK   10  A    between atoms: C_22  and  C_25
REMARK   11  A    between atoms: C_22  and  C_26
REMARK   12  A    between atoms: C_25  and  C_27
REMARK   13  A    between atoms: C_30  and  C_37
REMARK                            x       y       z     vdW  Elec       q    Type
REMARK                         _______ _______ _______ _____ _____    ______ ____
ROOT
ATOM      5  O   UNL     1       2.889  -1.471  23.765  0.00  0.00    -0.275 OA
ATOM     11  N   UNL     1       0.656  -0.906  24.098  0.00  0.00    -0.289 N 
ATOM     15  C   UNL     1      -2.010  -1.722  24.947  0.00  0.00    +0.080 C 
ATOM     16  C   UNL     1      -1.827  -0.687  23.835  0.00  0.00    +0.052 C 
ATOM     17  C   UNL     1      -0.471   0.019  23.888  0.00  0.00    +0.163 C 
ATOM     18  C   UNL     1      -0.829  -2.687  24.977  0.00  0.00    +0.039 C 
ATOM     19  C   UNL     1       0.482  -1.929  25.137  0.00  0.00    +0.110 C 
ATOM     21  C   UNL     1       1.909  -0.775  23.488  0.00  0.00    +0.226 C 
ENDROOT
BRANCH  17  20
ATOM      4  O   UNL     1      -0.492   0.722  26.172  0.00  0.00    -0.274 OA
ATOM     13  N   UNL     1      -0.271   2.328  24.501  0.00  0.00    -0.302 N 
ATOM     20  C   UNL     1      -0.408   1.039  24.988  0.00  0.00    +0.234 C 
ATOM     39  H   UNL     1      -0.156   2.468  23.501  0.00  0.00    +0.150 HD
BRANCH  13  22
ATOM     22  C   UNL     1      -0.208   3.493  25.354  0.00  0.00    +0.163 C 
BRANCH  22  26
ATOM      8  O   UNL     1      -0.587   5.832  24.816  0.00  0.00    -0.274 OA
ATOM     14  N   UNL     1       0.232   4.446  23.178  0.00  0.00    -0.328 N 
ATOM     26  C   UNL     1      -0.234   4.714  24.447  0.00  0.00    +0.231 C 
ATOM     40  H   UNL     1       0.281   5.178  22.476  0.00  0.00    +0.145 HD
ATOM     41  H   UNL     1       0.544   3.523  22.894  0.00  0.00    +0.145 HD
ENDBRANCH  22  26
BRANCH  22  25
ATOM     25  C   UNL     1      -1.372   3.544  26.351  0.00  0.00    +0.067 C 
BRANCH  25  27
ATOM     27  C   UNL     1      -2.706   3.763  25.680  0.00  0.00    -0.045 A 
ATOM     32  C   UNL     1      -2.935   3.256  24.402  0.00  0.00    +0.004 A 
ATOM     33  C   UNL     1      -3.710   4.473  26.339  0.00  0.00    +0.004 A 
ATOM     34  C   UNL     1      -4.168   3.458  23.781  0.00  0.00    +0.000 A 
ATOM     35  C   UNL     1      -4.943   4.674  25.719  0.00  0.00    +0.000 A 
ATOM     36  C   UNL     1      -5.172   4.168  24.440  0.00  0.00    +0.000 A 
ENDBRANCH  25  27
ENDBRANCH  22  25
ENDBRANCH  13  22
ENDBRANCH  17  20
BRANCH  15  12
ATOM     12  N   UNL     1      -3.263  -2.479  24.707  0.00  0.00    -0.186 NA
ATOM     38  H   UNL     1      -3.617  -2.981  25.532  0.00  0.00    +0.148 HD
BRANCH  12   1
ATOM      1  S   UNL     1      -4.449  -1.761  23.706  0.00  0.00    +0.065 S 
ATOM      6  O   UNL     1      -5.548  -2.688  23.519  0.00  0.00    -0.153 OA
ATOM      7  O   UNL     1      -3.791  -1.134  22.577  0.00  0.00    -0.153 OA
BRANCH   1  24
ATOM      3  S   UNL     1      -4.327   0.005  26.069  0.00  0.00    -0.077 S 
ATOM     24  C   UNL     1      -5.141  -0.377  24.612  0.00  0.00    +0.142 A 
ATOM     28  C   UNL     1      -6.210   0.461  24.382  0.00  0.00    +0.036 A 
ATOM     29  C   UNL     1      -6.362   1.429  25.415  0.00  0.00    +0.010 A 
ATOM     31  C   UNL     1      -5.405   1.295  26.396  0.00  0.00    +0.047 A 
ENDBRANCH   1  24
ENDBRANCH  12   1
ENDBRANCH  15  12
BRANCH  21  23
ATOM     23  C   UNL     1       2.038   0.282  22.418  0.00  0.00    +0.165 C 
BRANCH  23   2
ATOM      2  S   UNL     1       3.705   0.184  21.751  0.00  0.00    -0.140 S 
BRANCH   2  30
ATOM     30  C   UNL     1       4.608   0.894  23.151  0.00  0.00    +0.189 C 
BRANCH  30  37
ATOM     10  O   UNL     1       6.753  -0.196  23.032  0.00  0.00    -0.250 OA
ATOM     37  C   UNL     1       5.674  -0.064  23.595  0.00  0.00    +0.315 C 
BRANCH  37   9
ATOM      9  O   UNL     1       5.323  -0.762  24.705  0.00  0.00    -0.480 OA
ATOM     42  H   UNL     1       4.770  -0.228  25.314  0.00  0.00    +0.295 HD
ENDBRANCH  37   9
ENDBRANCH  30  37
ENDBRANCH   2  30
ENDBRANCH  23   2
ENDBRANCH  21  23
TORSDOF 13
ENDMDL
