MODEL 1
REMARK VINA RESULT:      -4.4      0.000      0.000
REMARK  Name = 45783352
REMARK  11 active torsions:
REMARK  status: ('A' for Active; 'I' for Inactive)
REMARK    1  A    between atoms: O_2  and  C_19
REMARK    2  A    between atoms: O_2  and  C_27
REMARK    3  A    between atoms: O_3  and  C_25
REMARK    4  A    between atoms: O_3  and  C_28
REMARK    5  A    between atoms: O_4  and  C_29
REMARK    6  A    between atoms: O_4  and  C_30
REMARK    7  A    between atoms: N_5  and  C_13
REMARK    8  A    between atoms: C_9  and  C_14
REMARK    9  A    between atoms: C_13  and  C_15
REMARK   10  A    between atoms: C_18  and  C_21
REMARK   11  A    between atoms: C_28  and  C_29
REMARK                            x       y       z     vdW  Elec       q    Type
REMARK                         _______ _______ _______ _____ _____    ______ ____
ROOT
ATOM      1  O   UNL     1      -1.937   2.589  25.465  0.00  0.00    -0.336 OA
ATOM      6  N   UNL     1      -1.978   1.630  23.442  0.00  0.00    -0.190 NA
ATOM      7  N   UNL     1      -0.629   2.156  25.214  0.00  0.00    -0.056 NA
ATOM     14  C   UNL     1      -2.666   2.241  24.373  0.00  0.00    +0.245 A 
ATOM     18  C   UNL     1      -0.734   1.602  24.002  0.00  0.00    +0.202 A 
ENDROOT
BRANCH  18  21
ATOM      8  N   UNL     1       2.558  -0.149  22.006  0.00  0.00    -0.221 NA
ATOM     21  C   UNL     1       0.383   1.009  23.325  0.00  0.00    +0.029 A 
ATOM     23  C   UNL     1       1.661   1.528  23.498  0.00  0.00    +0.079 A 
ATOM     24  C   UNL     1       0.191  -0.090  22.493  0.00  0.00    +0.031 A 
ATOM     25  C   UNL     1       2.706   0.919  22.822  0.00  0.00    +0.215 A 
ATOM     26  C   UNL     1       1.302  -0.627  21.863  0.00  0.00    +0.115 A 
BRANCH  25   3
ATOM      3  O   UNL     1       3.975   1.413  22.975  0.00  0.00    -0.474 OA
BRANCH   3  28
ATOM     28  C   UNL     1       5.040   0.473  22.906  0.00  0.00    +0.258 C 
BRANCH  28  29
ATOM     29  C   UNL     1       5.691   0.361  24.271  0.00  0.00    +0.200 C 
BRANCH  29   4
ATOM      4  O   UNL     1       5.663  -0.998  24.689  0.00  0.00    -0.380 OA
ATOM     30  C   UNL     1       4.722  -1.754  23.940  0.00  0.00    +0.194 C 
ENDBRANCH  29   4
ENDBRANCH  28  29
ENDBRANCH   3  28
ENDBRANCH  25   3
ENDBRANCH  18  21
BRANCH  14   9
ATOM      5  N   UNL     1      -4.936   1.680  25.224  0.00  0.00    -0.287 NA
ATOM      9  C   UNL     1      -4.135   2.605  24.398  0.00  0.00    +0.146 C 
ATOM     10  C   UNL     1      -4.393   3.996  25.006  0.00  0.00    +0.030 C 
ATOM     11  C   UNL     1      -5.395   3.761  26.128  0.00  0.00    +0.017 C 
ATOM     12  C   UNL     1      -6.063   2.457  25.740  0.00  0.00    +0.085 C 
BRANCH   5  13
ATOM     13  C   UNL     1      -5.373   0.494  24.500  0.00  0.00    +0.120 C 
BRANCH  13  15
ATOM     15  C   UNL     1      -4.343  -0.603  24.548  0.00  0.00    -0.030 A 
ATOM     16  C   UNL     1      -3.179  -0.434  25.298  0.00  0.00    +0.050 A 
ATOM     17  C   UNL     1      -4.551  -1.788  23.841  0.00  0.00    +0.005 A 
ATOM     19  C   UNL     1      -2.224  -1.450  25.343  0.00  0.00    +0.120 A 
ATOM     20  C   UNL     1      -3.596  -2.803  23.885  0.00  0.00    +0.004 A 
ATOM     22  C   UNL     1      -2.433  -2.635  24.635  0.00  0.00    +0.045 A 
BRANCH  19   2
ATOM      2  O   UNL     1      -1.088  -1.284  26.074  0.00  0.00    -0.495 OA
ATOM     27  C   UNL     1       0.081  -1.967  25.622  0.00  0.00    +0.277 C 
ENDBRANCH  19   2
ENDBRANCH  13  15
ENDBRANCH   5  13
ENDBRANCH  14   9
TORSDOF 9
ENDMDL
MODEL 2
REMARK VINA RESULT:      -2.9     17.226     19.207
REMARK  Name = 45783352
REMARK  11 active torsions:
REMARK  status: ('A' for Active; 'I' for Inactive)
REMARK    1  A    between atoms: O_2  and  C_19
REMARK    2  A    between atoms: O_2  and  C_27
REMARK    3  A    between atoms: O_3  and  C_25
REMARK    4  A    between atoms: O_3  and  C_28
REMARK    5  A    between atoms: O_4  and  C_29
REMARK    6  A    between atoms: O_4  and  C_30
REMARK    7  A    between atoms: N_5  and  C_13
REMARK    8  A    between atoms: C_9  and  C_14
REMARK    9  A    between atoms: C_13  and  C_15
REMARK   10  A    between atoms: C_18  and  C_21
REMARK   11  A    between atoms: C_28  and  C_29
REMARK                            x       y       z     vdW  Elec       q    Type
REMARK                         _______ _______ _______ _____ _____    ______ ____
ROOT
ATOM      1  O   UNL     1      16.635  -1.421  26.314  0.00  0.00    -0.336 OA
ATOM      6  N   UNL     1      17.357  -3.350  27.192  0.00  0.00    -0.190 NA
ATOM      7  N   UNL     1      16.513  -1.285  27.703  0.00  0.00    -0.056 NA
ATOM     14  C   UNL     1      17.139  -2.664  26.100  0.00  0.00    +0.245 A 
ATOM     18  C   UNL     1      16.959  -2.463  28.150  0.00  0.00    +0.202 A 
ENDROOT
BRANCH  18  21
ATOM      8  N   UNL     1      17.129  -3.416  32.267  0.00  0.00    -0.221 NA
ATOM     21  C   UNL     1      17.016  -2.787  29.546  0.00  0.00    +0.029 A 
ATOM     23  C   UNL     1      16.727  -4.076  29.977  0.00  0.00    +0.079 A 
ATOM     24  C   UNL     1      17.363  -1.811  30.475  0.00  0.00    +0.031 A 
ATOM     25  C   UNL     1      16.797  -4.338  31.336  0.00  0.00    +0.215 A 
ATOM     26  C   UNL     1      17.404  -2.174  31.811  0.00  0.00    +0.115 A 
BRANCH  25   3
ATOM      3  O   UNL     1      16.515  -5.601  31.786  0.00  0.00    -0.474 OA
BRANCH   3  28
ATOM     28  C   UNL     1      15.142  -5.961  31.867  0.00  0.00    +0.258 C 
BRANCH  28  29
ATOM     29  C   UNL     1      14.985  -7.412  31.452  0.00  0.00    +0.200 C 
BRANCH  29   4
ATOM      4  O   UNL     1      13.828  -7.538  30.634  0.00  0.00    -0.380 OA
ATOM     30  C   UNL     1      13.046  -6.352  30.651  0.00  0.00    +0.194 C 
ENDBRANCH  29   4
ENDBRANCH  28  29
ENDBRANCH   3  28
ENDBRANCH  25   3
ENDBRANCH  18  21
BRANCH  14   9
ATOM      5  N   UNL     1      16.656  -4.298  24.287  0.00  0.00    -0.287 NA
ATOM      9  C   UNL     1      17.368  -3.059  24.656  0.00  0.00    +0.146 C 
ATOM     10  C   UNL     1      16.856  -2.001  23.661  0.00  0.00    +0.030 C 
ATOM     11  C   UNL     1      15.908  -2.752  22.736  0.00  0.00    +0.017 C 
ATOM     12  C   UNL     1      16.359  -4.194  22.858  0.00  0.00    +0.085 C 
BRANCH   5  13
ATOM     13  C   UNL     1      17.405  -5.508  24.604  0.00  0.00    +0.120 C 
BRANCH  13  15
ATOM     15  C   UNL     1      16.648  -6.404  25.546  0.00  0.00    -0.030 A 
ATOM     16  C   UNL     1      16.536  -7.769  25.272  0.00  0.00    +0.050 A 
ATOM     17  C   UNL     1      16.056  -5.873  26.693  0.00  0.00    +0.005 A 
ATOM     19  C   UNL     1      15.834  -8.600  26.144  0.00  0.00    +0.120 A 
ATOM     20  C   UNL     1      15.354  -6.704  27.565  0.00  0.00    +0.004 A 
ATOM     22  C   UNL     1      15.243  -8.068  27.291  0.00  0.00    +0.045 A 
BRANCH  19   2
ATOM      2  O   UNL     1      15.725  -9.930  25.876  0.00  0.00    -0.495 OA
ATOM     27  C   UNL     1      15.131 -10.749  26.883  0.00  0.00    +0.277 C 
ENDBRANCH  19   2
ENDBRANCH  13  15
ENDBRANCH   5  13
ENDBRANCH  14   9
TORSDOF 9
ENDMDL
MODEL 3
REMARK VINA RESULT:      -2.2     16.128     19.111
REMARK  Name = 45783352
REMARK  11 active torsions:
REMARK  status: ('A' for Active; 'I' for Inactive)
REMARK    1  A    between atoms: O_2  and  C_19
REMARK    2  A    between atoms: O_2  and  C_27
REMARK    3  A    between atoms: O_3  and  C_25
REMARK    4  A    between atoms: O_3  and  C_28
REMARK    5  A    between atoms: O_4  and  C_29
REMARK    6  A    between atoms: O_4  and  C_30
REMARK    7  A    between atoms: N_5  and  C_13
REMARK    8  A    between atoms: C_9  and  C_14
REMARK    9  A    between atoms: C_13  and  C_15
REMARK   10  A    between atoms: C_18  and  C_21
REMARK   11  A    between atoms: C_28  and  C_29
REMARK                            x       y       z     vdW  Elec       q    Type
REMARK                         _______ _______ _______ _____ _____    ______ ____
ROOT
ATOM      1  O   UNL     1      13.070  -6.519  29.712  0.00  0.00    -0.336 OA
ATOM      6  N   UNL     1      14.542  -7.707  30.910  0.00  0.00    -0.190 NA
ATOM      7  N   UNL     1      13.774  -7.307  28.792  0.00  0.00    -0.056 NA
ATOM     14  C   UNL     1      13.584  -6.815  30.933  0.00  0.00    +0.245 A 
ATOM     18  C   UNL     1      14.623  -7.979  29.576  0.00  0.00    +0.202 A 
ENDROOT
BRANCH  18  21
ATOM      8  N   UNL     1      17.404 -10.775  28.047  0.00  0.00    -0.221 NA
ATOM     21  C   UNL     1      15.565  -8.928  29.057  0.00  0.00    +0.029 A 
ATOM     23  C   UNL     1      15.698  -9.102  27.684  0.00  0.00    +0.079 A 
ATOM     24  C   UNL     1      16.352  -9.677  29.926  0.00  0.00    +0.031 A 
ATOM     25  C   UNL     1      16.623 -10.030  27.233  0.00  0.00    +0.215 A 
ATOM     26  C   UNL     1      17.248 -10.579  29.375  0.00  0.00    +0.115 A 
BRANCH  25   3
ATOM      3  O   UNL     1      16.772 -10.220  25.885  0.00  0.00    -0.474 OA
BRANCH   3  28
ATOM     28  C   UNL     1      16.419  -9.131  25.041  0.00  0.00    +0.258 C 
BRANCH  28  29
ATOM     29  C   UNL     1      17.405  -7.999  25.256  0.00  0.00    +0.200 C 
BRANCH  29   4
ATOM      4  O   UNL     1      16.775  -6.766  24.932  0.00  0.00    -0.380 OA
ATOM     30  C   UNL     1      16.703  -5.905  26.061  0.00  0.00    +0.194 C 
ENDBRANCH  29   4
ENDBRANCH  28  29
ENDBRANCH   3  28
ENDBRANCH  25   3
ENDBRANCH  18  21
BRANCH  14   9
ATOM      5  N   UNL     1      13.400  -4.670  32.180  0.00  0.00    -0.287 NA
ATOM      9  C   UNL     1      12.982  -6.084  32.115  0.00  0.00    +0.146 C 
ATOM     10  C   UNL     1      11.444  -6.037  32.064  0.00  0.00    +0.030 C 
ATOM     11  C   UNL     1      11.088  -4.560  32.166  0.00  0.00    +0.017 C 
ATOM     12  C   UNL     1      12.306  -3.945  32.826  0.00  0.00    +0.085 C 
BRANCH   5  13
ATOM     13  C   UNL     1      14.668  -4.476  32.869  0.00  0.00    +0.120 C 
BRANCH  13  15
ATOM     15  C   UNL     1      15.613  -3.616  32.073  0.00  0.00    -0.030 A 
ATOM     16  C   UNL     1      15.831  -3.887  30.721  0.00  0.00    +0.050 A 
ATOM     17  C   UNL     1      16.271  -2.549  32.685  0.00  0.00    +0.005 A 
ATOM     19  C   UNL     1      16.707  -3.091  29.983  0.00  0.00    +0.120 A 
ATOM     20  C   UNL     1      17.147  -1.753  31.947  0.00  0.00    +0.004 A 
ATOM     22  C   UNL     1      17.365  -2.024  30.596  0.00  0.00    +0.045 A 
BRANCH  19   2
ATOM      2  O   UNL     1      16.920  -3.357  28.665  0.00  0.00    -0.495 OA
ATOM     27  C   UNL     1      17.404  -2.285  27.857  0.00  0.00    +0.277 C 
ENDBRANCH  19   2
ENDBRANCH  13  15
ENDBRANCH   5  13
ENDBRANCH  14   9
TORSDOF 9
ENDMDL
MODEL 4
REMARK VINA RESULT:      -2.2     16.028     19.088
REMARK  Name = 45783352
REMARK  11 active torsions:
REMARK  status: ('A' for Active; 'I' for Inactive)
REMARK    1  A    between atoms: O_2  and  C_19
REMARK    2  A    between atoms: O_2  and  C_27
REMARK    3  A    between atoms: O_3  and  C_25
REMARK    4  A    between atoms: O_3  and  C_28
REMARK    5  A    between atoms: O_4  and  C_29
REMARK    6  A    between atoms: O_4  and  C_30
REMARK    7  A    between atoms: N_5  and  C_13
REMARK    8  A    between atoms: C_9  and  C_14
REMARK    9  A    between atoms: C_13  and  C_15
REMARK   10  A    between atoms: C_18  and  C_21
REMARK   11  A    between atoms: C_28  and  C_29
REMARK                            x       y       z     vdW  Elec       q    Type
REMARK                         _______ _______ _______ _____ _____    ______ ____
ROOT
ATOM      1  O   UNL     1      12.578  -6.920  30.361  0.00  0.00    -0.336 OA
ATOM      6  N   UNL     1      14.417  -7.488  31.505  0.00  0.00    -0.190 NA
ATOM      7  N   UNL     1      13.278  -7.823  29.549  0.00  0.00    -0.056 NA
ATOM     14  C   UNL     1      13.317  -6.780  31.491  0.00  0.00    +0.245 A 
ATOM     18  C   UNL     1      14.349  -8.112  30.294  0.00  0.00    +0.202 A 
ENDROOT
BRANCH  18  21
ATOM      8  N   UNL     1      17.366 -10.781  29.002  0.00  0.00    -0.221 NA
ATOM     21  C   UNL     1      15.372  -9.018  29.855  0.00  0.00    +0.029 A 
ATOM     23  C   UNL     1      15.433  -9.411  28.523  0.00  0.00    +0.079 A 
ATOM     24  C   UNL     1      16.308  -9.506  30.762  0.00  0.00    +0.031 A 
ATOM     25  C   UNL     1      16.439 -10.287  28.150  0.00  0.00    +0.215 A 
ATOM     26  C   UNL     1      17.276 -10.376  30.289  0.00  0.00    +0.115 A 
BRANCH  25   3
ATOM      3  O   UNL     1      16.521 -10.690  26.843  0.00  0.00    -0.474 OA
BRANCH   3  28
ATOM     28  C   UNL     1      16.615  -9.665  25.861  0.00  0.00    +0.258 C 
BRANCH  28  29
ATOM     29  C   UNL     1      15.270  -9.512  25.176  0.00  0.00    +0.200 C 
BRANCH  29   4
ATOM      4  O   UNL     1      14.560 -10.741  25.266  0.00  0.00    -0.380 OA
ATOM     30  C   UNL     1      13.300 -10.664  24.613  0.00  0.00    +0.194 C 
ENDBRANCH  29   4
ENDBRANCH  28  29
ENDBRANCH   3  28
ENDBRANCH  25   3
ENDBRANCH  18  21
BRANCH  14   9
ATOM      5  N   UNL     1      13.150  -4.436  32.310  0.00  0.00    -0.287 NA
ATOM      9  C   UNL     1      12.766  -5.842  32.545  0.00  0.00    +0.146 C 
ATOM     10  C   UNL     1      11.227  -5.827  32.582  0.00  0.00    +0.030 C 
ATOM     11  C   UNL     1      10.839  -4.364  32.420  0.00  0.00    +0.017 C 
ATOM     12  C   UNL     1      12.077  -3.616  32.873  0.00  0.00    +0.085 C 
BRANCH   5  13
ATOM     13  C   UNL     1      14.451  -4.094  32.869  0.00  0.00    +0.120 C 
BRANCH  13  15
ATOM     15  C   UNL     1      15.347  -3.447  31.847  0.00  0.00    -0.030 A 
ATOM     16  C   UNL     1      15.881  -2.180  32.090  0.00  0.00    +0.050 A 
ATOM     17  C   UNL     1      15.643  -4.111  30.657  0.00  0.00    +0.005 A 
ATOM     19  C   UNL     1      16.711  -1.580  31.144  0.00  0.00    +0.120 A 
ATOM     20  C   UNL     1      16.472  -3.511  29.710  0.00  0.00    +0.004 A 
ATOM     22  C   UNL     1      17.006  -2.245  29.953  0.00  0.00    +0.045 A 
BRANCH  19   2
ATOM      2  O   UNL     1      17.230  -0.344  31.381  0.00  0.00    -0.495 OA
ATOM     27  C   UNL     1      17.364   0.053  32.745  0.00  0.00    +0.277 C 
ENDBRANCH  19   2
ENDBRANCH  13  15
ENDBRANCH   5  13
ENDBRANCH  14   9
TORSDOF 9
ENDMDL
MODEL 5
REMARK VINA RESULT:      -1.8      1.806      3.496
REMARK  Name = 45783352
REMARK  11 active torsions:
REMARK  status: ('A' for Active; 'I' for Inactive)
REMARK    1  A    between atoms: O_2  and  C_19
REMARK    2  A    between atoms: O_2  and  C_27
REMARK    3  A    between atoms: O_3  and  C_25
REMARK    4  A    between atoms: O_3  and  C_28
REMARK    5  A    between atoms: O_4  and  C_29
REMARK    6  A    between atoms: O_4  and  C_30
REMARK    7  A    between atoms: N_5  and  C_13
REMARK    8  A    between atoms: C_9  and  C_14
REMARK    9  A    between atoms: C_13  and  C_15
REMARK   10  A    between atoms: C_18  and  C_21
REMARK   11  A    between atoms: C_28  and  C_29
REMARK                            x       y       z     vdW  Elec       q    Type
REMARK                         _______ _______ _______ _____ _____    ______ ____
ROOT
ATOM      1  O   UNL     1      -2.299  -0.545  25.982  0.00  0.00    -0.336 OA
ATOM      6  N   UNL     1      -2.118   0.710  24.136  0.00  0.00    -0.190 NA
ATOM      7  N   UNL     1      -1.055  -0.858  25.419  0.00  0.00    -0.056 NA
ATOM     14  C   UNL     1      -2.858   0.385  25.165  0.00  0.00    +0.245 A 
ATOM     18  C   UNL     1      -1.022  -0.077  24.335  0.00  0.00    +0.202 A 
ENDROOT
BRANCH  18  21
ATOM      8  N   UNL     1       2.255  -0.034  21.661  0.00  0.00    -0.221 NA
ATOM     21  C   UNL     1       0.090  -0.062  23.428  0.00  0.00    +0.029 A 
ATOM     23  C   UNL     1       1.253   0.623  23.760  0.00  0.00    +0.079 A 
ATOM     24  C   UNL     1       0.008  -0.733  22.212  0.00  0.00    +0.031 A 
ATOM     25  C   UNL     1       2.298   0.607  22.851  0.00  0.00    +0.215 A 
ATOM     26  C   UNL     1       1.109  -0.689  21.372  0.00  0.00    +0.115 A 
BRANCH  25   3
ATOM      3  O   UNL     1       3.455   1.275  23.154  0.00  0.00    -0.474 OA
BRANCH   3  28
ATOM     28  C   UNL     1       4.676   0.600  22.877  0.00  0.00    +0.258 C 
BRANCH  28  29
ATOM     29  C   UNL     1       5.493   0.513  24.153  0.00  0.00    +0.200 C 
BRANCH  29   4
ATOM      4  O   UNL     1       5.645  -0.855  24.514  0.00  0.00    -0.380 OA
ATOM     30  C   UNL     1       4.694  -1.677  23.852  0.00  0.00    +0.194 C 
ENDBRANCH  29   4
ENDBRANCH  28  29
ENDBRANCH   3  28
ENDBRANCH  25   3
ENDBRANCH  18  21
BRANCH  14   9
ATOM      5  N   UNL     1      -4.464   2.285  25.126  0.00  0.00    -0.287 NA
ATOM      9  C   UNL     1      -4.228   0.895  25.562  0.00  0.00    +0.146 C 
ATOM     10  C   UNL     1      -5.372   0.084  24.926  0.00  0.00    +0.030 C 
ATOM     11  C   UNL     1      -6.232   1.112  24.203  0.00  0.00    +0.017 C 
ATOM     12  C   UNL     1      -5.906   2.411  24.911  0.00  0.00    +0.085 C 
BRANCH   5  13
ATOM     13  C   UNL     1      -3.962   3.277  26.069  0.00  0.00    +0.120 C 
BRANCH  13  15
ATOM     15  C   UNL     1      -2.557   3.702  25.738  0.00  0.00    -0.030 A 
ATOM     16  C   UNL     1      -1.473   2.980  26.240  0.00  0.00    +0.050 A 
ATOM     17  C   UNL     1      -2.336   4.819  24.931  0.00  0.00    +0.005 A 
ATOM     19  C   UNL     1      -0.171   3.373  25.934  0.00  0.00    +0.120 A 
ATOM     20  C   UNL     1      -1.034   5.213  24.626  0.00  0.00    +0.004 A 
ATOM     22  C   UNL     1       0.049   4.490  25.127  0.00  0.00    +0.045 A 
BRANCH  19   2
ATOM      2  O   UNL     1       0.886   2.668  26.424  0.00  0.00    -0.495 OA
ATOM     27  C   UNL     1       0.901   2.414  27.829  0.00  0.00    +0.277 C 
ENDBRANCH  19   2
ENDBRANCH  13  15
ENDBRANCH   5  13
ENDBRANCH  14   9
TORSDOF 9
ENDMDL
MODEL 6
REMARK VINA RESULT:      -1.4      1.016      1.641
REMARK  Name = 45783352
REMARK  11 active torsions:
REMARK  status: ('A' for Active; 'I' for Inactive)
REMARK    1  A    between atoms: O_2  and  C_19
REMARK    2  A    between atoms: O_2  and  C_27
REMARK    3  A    between atoms: O_3  and  C_25
REMARK    4  A    between atoms: O_3  and  C_28
REMARK    5  A    between atoms: O_4  and  C_29
REMARK    6  A    between atoms: O_4  and  C_30
REMARK    7  A    between atoms: N_5  and  C_13
REMARK    8  A    between atoms: C_9  and  C_14
REMARK    9  A    between atoms: C_13  and  C_15
REMARK   10  A    between atoms: C_18  and  C_21
REMARK   11  A    between atoms: C_28  and  C_29
REMARK                            x       y       z     vdW  Elec       q    Type
REMARK                         _______ _______ _______ _____ _____    ______ ____
ROOT
ATOM      1  O   UNL     1      -1.612   3.162  25.209  0.00  0.00    -0.336 OA
ATOM      6  N   UNL     1      -1.741   1.852  23.398  0.00  0.00    -0.190 NA
ATOM      7  N   UNL     1      -0.317   2.677  24.987  0.00  0.00    -0.056 NA
ATOM     14  C   UNL     1      -2.387   2.629  24.230  0.00  0.00    +0.245 A 
ATOM     18  C   UNL     1      -0.475   1.913  23.901  0.00  0.00    +0.202 A 
ENDROOT
BRANCH  18  21
ATOM      8  N   UNL     1       2.725  -0.205  22.122  0.00  0.00    -0.221 NA
ATOM     21  C   UNL     1       0.611   1.195  23.298  0.00  0.00    +0.029 A 
ATOM     23  C   UNL     1       1.916   1.650  23.444  0.00  0.00    +0.079 A 
ATOM     24  C   UNL     1       0.361   0.040  22.564  0.00  0.00    +0.031 A 
ATOM     25  C   UNL     1       2.929   0.921  22.843  0.00  0.00    +0.215 A 
ATOM     26  C   UNL     1       1.443  -0.617  22.002  0.00  0.00    +0.115 A 
BRANCH  25   3
ATOM      3  O   UNL     1       4.224   1.349  22.971  0.00  0.00    -0.474 OA
BRANCH   3  28
ATOM     28  C   UNL     1       5.004   0.732  23.989  0.00  0.00    +0.258 C 
BRANCH  28  29
ATOM     29  C   UNL     1       6.018  -0.193  23.343  0.00  0.00    +0.200 C 
BRANCH  29   4
ATOM      4  O   UNL     1       5.867  -1.499  23.884  0.00  0.00    -0.380 OA
ATOM     30  C   UNL     1       4.496  -1.848  24.027  0.00  0.00    +0.194 C 
ENDBRANCH  29   4
ENDBRANCH  28  29
ENDBRANCH   3  28
ENDBRANCH  25   3
ENDBRANCH  18  21
BRANCH  14   9
ATOM      5  N   UNL     1      -4.610   2.294  25.297  0.00  0.00    -0.287 NA
ATOM      9  C   UNL     1      -3.854   3.006  24.249  0.00  0.00    +0.146 C 
ATOM     10  C   UNL     1      -4.079   4.500  24.549  0.00  0.00    +0.030 C 
ATOM     11  C   UNL     1      -5.021   4.527  25.745  0.00  0.00    +0.017 C 
ATOM     12  C   UNL     1      -5.709   3.178  25.687  0.00  0.00    +0.085 C 
BRANCH   5  13
ATOM     13  C   UNL     1      -5.085   0.983  24.874  0.00  0.00    +0.120 C 
BRANCH  13  15
ATOM     15  C   UNL     1      -4.015  -0.068  25.001  0.00  0.00    -0.030 A 
ATOM     16  C   UNL     1      -4.089  -1.235  24.240  0.00  0.00    +0.050 A 
ATOM     17  C   UNL     1      -2.948   0.123  25.880  0.00  0.00    +0.005 A 
ATOM     19  C   UNL     1      -3.099  -2.209  24.357  0.00  0.00    +0.120 A 
ATOM     20  C   UNL     1      -1.958  -0.851  25.999  0.00  0.00    +0.004 A 
ATOM     22  C   UNL     1      -2.033  -2.017  25.237  0.00  0.00    +0.045 A 
BRANCH  19   2
ATOM      2  O   UNL     1      -3.173  -3.348  23.615  0.00  0.00    -0.495 OA
ATOM     27  C   UNL     1      -4.477  -3.824  23.284  0.00  0.00    +0.277 C 
ENDBRANCH  19   2
ENDBRANCH  13  15
ENDBRANCH   5  13
ENDBRANCH  14   9
TORSDOF 9
ENDMDL
