MODEL 1
REMARK VINA RESULT:      -2.3      0.000      0.000
REMARK  Name = 45783416
REMARK  9 active torsions:
REMARK  status: ('A' for Active; 'I' for Inactive)
REMARK    1  A    between atoms: O_2  and  C_25
REMARK    2  A    between atoms: O_2  and  C_29
REMARK    3  A    between atoms: O_3  and  C_30
REMARK    4  A    between atoms: O_3  and  C_31
REMARK    5  A    between atoms: N_4  and  C_13
REMARK    6  A    between atoms: C_9  and  C_14
REMARK    7  A    between atoms: C_13  and  C_15
REMARK    8  A    between atoms: C_19  and  C_23
REMARK    9  A    between atoms: C_29  and  C_30
REMARK                            x       y       z     vdW  Elec       q    Type
REMARK                         _______ _______ _______ _____ _____    ______ ____
ROOT
ATOM      4  N   UNL     1      -4.861   1.288  25.307  0.00  0.00    -0.287 NA
ATOM      9  C   UNL     1      -4.630   2.199  24.168  0.00  0.00    +0.146 C 
ATOM     10  C   UNL     1      -4.731   3.613  24.770  0.00  0.00    +0.030 C 
ATOM     11  C   UNL     1      -5.706   2.016  26.254  0.00  0.00    +0.085 C 
ATOM     12  C   UNL     1      -5.081   3.396  26.236  0.00  0.00    +0.017 C 
ENDROOT
BRANCH   9  14
ATOM      1  O   UNL     1      -3.208   2.341  22.185  0.00  0.00    -0.336 OA
ATOM      5  N   UNL     1      -2.212   1.404  23.959  0.00  0.00    -0.190 NA
ATOM      7  N   UNL     1      -1.911   2.012  21.774  0.00  0.00    -0.056 NA
ATOM     14  C   UNL     1      -3.302   1.951  23.484  0.00  0.00    +0.245 A 
ATOM     19  C   UNL     1      -1.386   1.464  22.875  0.00  0.00    +0.207 A 
BRANCH  19  23
ATOM      8  N   UNL     1       2.224   1.157  23.749  0.00  0.00    -0.221 NA
ATOM     23  C   UNL     1      -0.040   0.969  22.924  0.00  0.00    +0.084 A 
ATOM     25  C   UNL     1       0.944   1.589  23.674  0.00  0.00    +0.226 A 
ATOM     26  C   UNL     1       0.308  -0.170  22.206  0.00  0.00    +0.018 A 
ATOM     27  C   UNL     1       1.614  -0.645  22.258  0.00  0.00    +0.021 A 
ATOM     28  C   UNL     1       2.526   0.048  23.038  0.00  0.00    +0.114 A 
BRANCH  25   2
ATOM      2  O   UNL     1       0.650   2.715  24.399  0.00  0.00    -0.474 OA
BRANCH   2  29
ATOM     29  C   UNL     1       0.182   2.516  25.728  0.00  0.00    +0.258 C 
BRANCH  29  30
ATOM     30  C   UNL     1      -0.964   3.473  25.997  0.00  0.00    +0.200 C 
BRANCH  30   3
ATOM      3  O   UNL     1      -1.099   4.358  24.892  0.00  0.00    -0.380 OA
ATOM     31  C   UNL     1      -1.820   5.530  25.249  0.00  0.00    +0.194 C 
ENDBRANCH  30   3
ENDBRANCH  29  30
ENDBRANCH   2  29
ENDBRANCH  25   2
ENDBRANCH  19  23
ENDBRANCH   9  14
BRANCH   4  13
ATOM     13  C   UNL     1      -5.448   0.015  24.914  0.00  0.00    +0.122 C 
BRANCH  13  15
ATOM      6  N   UNL     1      -3.367  -2.723  23.602  0.00  0.00    -0.360 N 
ATOM     15  C   UNL     1      -4.395  -1.000  24.553  0.00  0.00    -0.008 A 
ATOM     16  C   UNL     1      -3.077  -1.078  25.081  0.00  0.00    +0.004 A 
ATOM     17  C   UNL     1      -4.544  -2.024  23.646  0.00  0.00    +0.088 A 
ATOM     18  C   UNL     1      -2.452  -2.167  24.469  0.00  0.00    +0.047 A 
ATOM     20  C   UNL     1      -2.351  -0.324  26.026  0.00  0.00    +0.010 A 
ATOM     21  C   UNL     1      -1.134  -2.541  24.754  0.00  0.00    +0.026 A 
ATOM     22  C   UNL     1      -1.032  -0.687  26.321  0.00  0.00    +0.001 A 
ATOM     24  C   UNL     1      -0.435  -1.779  25.693  0.00  0.00    +0.002 A 
ATOM     32  H   UNL     1      -3.194  -3.528  23.018  0.00  0.00    +0.165 HD
ENDBRANCH  13  15
ENDBRANCH   4  13
TORSDOF 8
ENDMDL
MODEL 2
REMARK VINA RESULT:      -0.7      1.704      4.392
REMARK  Name = 45783416
REMARK  9 active torsions:
REMARK  status: ('A' for Active; 'I' for Inactive)
REMARK    1  A    between atoms: O_2  and  C_25
REMARK    2  A    between atoms: O_2  and  C_29
REMARK    3  A    between atoms: O_3  and  C_30
REMARK    4  A    between atoms: O_3  and  C_31
REMARK    5  A    between atoms: N_4  and  C_13
REMARK    6  A    between atoms: C_9  and  C_14
REMARK    7  A    between atoms: C_13  and  C_15
REMARK    8  A    between atoms: C_19  and  C_23
REMARK    9  A    between atoms: C_29  and  C_30
REMARK                            x       y       z     vdW  Elec       q    Type
REMARK                         _______ _______ _______ _____ _____    ______ ____
ROOT
ATOM      4  N   UNL     1      -3.921  -1.389  24.175  0.00  0.00    -0.287 NA
ATOM      9  C   UNL     1      -3.018  -2.363  24.821  0.00  0.00    +0.146 C 
ATOM     10  C   UNL     1      -3.305  -3.696  24.106  0.00  0.00    +0.030 C 
ATOM     11  C   UNL     1      -5.078  -2.148  23.701  0.00  0.00    +0.085 C 
ATOM     12  C   UNL     1      -4.424  -3.386  23.120  0.00  0.00    +0.017 C 
ENDROOT
BRANCH   9  14
ATOM      1  O   UNL     1      -0.696  -2.622  25.540  0.00  0.00    -0.336 OA
ATOM      5  N   UNL     1      -1.000  -1.039  23.985  0.00  0.00    -0.190 NA
ATOM      7  N   UNL     1       0.569  -2.078  25.286  0.00  0.00    -0.056 NA
ATOM     14  C   UNL     1      -1.562  -1.955  24.732  0.00  0.00    +0.245 A 
ATOM     19  C   UNL     1       0.307  -1.152  24.359  0.00  0.00    +0.207 A 
BRANCH  19  23
ATOM      8  N   UNL     1       2.152   1.872  23.202  0.00  0.00    -0.221 NA
ATOM     23  C   UNL     1       1.329  -0.324  23.785  0.00  0.00    +0.084 A 
ATOM     25  C   UNL     1       1.215   1.055  23.733  0.00  0.00    +0.226 A 
ATOM     26  C   UNL     1       2.480  -0.903  23.260  0.00  0.00    +0.018 A 
ATOM     27  C   UNL     1       3.465  -0.095  22.705  0.00  0.00    +0.021 A 
ATOM     28  C   UNL     1       3.256   1.275  22.701  0.00  0.00    +0.114 A 
BRANCH  25   2
ATOM      2  O   UNL     1       0.099   1.672  24.238  0.00  0.00    -0.474 OA
BRANCH   2  29
ATOM     29  C   UNL     1       0.134   2.032  25.614  0.00  0.00    +0.258 C 
BRANCH  29  30
ATOM     30  C   UNL     1      -0.827   3.181  25.849  0.00  0.00    +0.200 C 
BRANCH  30   3
ATOM      3  O   UNL     1      -0.863   4.002  24.687  0.00  0.00    -0.380 OA
ATOM     31  C   UNL     1      -1.128   5.358  25.016  0.00  0.00    +0.194 C 
ENDBRANCH  30   3
ENDBRANCH  29  30
ENDBRANCH   2  29
ENDBRANCH  25   2
ENDBRANCH  19  23
ENDBRANCH   9  14
BRANCH   4  13
ATOM     13  C   UNL     1      -4.307  -0.294  25.055  0.00  0.00    +0.122 C 
BRANCH  13  15
ATOM      6  N   UNL     1      -3.161   2.628  23.136  0.00  0.00    -0.360 N 
ATOM     15  C   UNL     1      -4.017   1.049  24.439  0.00  0.00    -0.008 A 
ATOM     16  C   UNL     1      -4.590   2.296  24.816  0.00  0.00    +0.004 A 
ATOM     17  C   UNL     1      -3.143   1.286  23.404  0.00  0.00    +0.088 A 
ATOM     18  C   UNL     1      -4.036   3.271  23.983  0.00  0.00    +0.047 A 
ATOM     20  C   UNL     1      -5.530   2.690  25.789  0.00  0.00    +0.010 A 
ATOM     21  C   UNL     1      -4.377   4.625  24.074  0.00  0.00    +0.026 A 
ATOM     22  C   UNL     1      -5.879   4.042  25.892  0.00  0.00    +0.001 A 
ATOM     24  C   UNL     1      -5.310   4.992  25.047  0.00  0.00    +0.002 A 
ATOM     32  H   UNL     1      -2.612   3.083  22.419  0.00  0.00    +0.165 HD
ENDBRANCH  13  15
ENDBRANCH   4  13
TORSDOF 8
ENDMDL
MODEL 3
REMARK VINA RESULT:      -0.7      1.800      6.060
REMARK  Name = 45783416
REMARK  9 active torsions:
REMARK  status: ('A' for Active; 'I' for Inactive)
REMARK    1  A    between atoms: O_2  and  C_25
REMARK    2  A    between atoms: O_2  and  C_29
REMARK    3  A    between atoms: O_3  and  C_30
REMARK    4  A    between atoms: O_3  and  C_31
REMARK    5  A    between atoms: N_4  and  C_13
REMARK    6  A    between atoms: C_9  and  C_14
REMARK    7  A    between atoms: C_13  and  C_15
REMARK    8  A    between atoms: C_19  and  C_23
REMARK    9  A    between atoms: C_29  and  C_30
REMARK                            x       y       z     vdW  Elec       q    Type
REMARK                         _______ _______ _______ _____ _____    ______ ____
ROOT
ATOM      4  N   UNL     1       0.074  -1.056  24.161  0.00  0.00    -0.287 NA
ATOM      9  C   UNL     1      -1.372  -1.326  24.031  0.00  0.00    +0.146 C 
ATOM     10  C   UNL     1      -1.723  -2.180  25.264  0.00  0.00    +0.030 C 
ATOM     11  C   UNL     1       0.639  -2.177  24.910  0.00  0.00    +0.085 C 
ATOM     12  C   UNL     1      -0.402  -2.388  25.992  0.00  0.00    +0.017 C 
ENDROOT
BRANCH   9  14
ATOM      1  O   UNL     1      -2.040   0.692  22.824  0.00  0.00    -0.336 OA
ATOM      5  N   UNL     1      -3.051   0.436  24.805  0.00  0.00    -0.190 NA
ATOM      7  N   UNL     1      -2.889   1.795  22.972  0.00  0.00    -0.056 NA
ATOM     14  C   UNL     1      -2.196  -0.059  23.946  0.00  0.00    +0.245 A 
ATOM     19  C   UNL     1      -3.450   1.572  24.165  0.00  0.00    +0.207 A 
BRANCH  19  23
ATOM      8  N   UNL     1      -5.041   4.694  25.433  0.00  0.00    -0.221 NA
ATOM     23  C   UNL     1      -4.413   2.464  24.743  0.00  0.00    +0.084 A 
ATOM     25  C   UNL     1      -4.163   3.818  24.894  0.00  0.00    +0.226 A 
ATOM     26  C   UNL     1      -5.644   1.978  25.170  0.00  0.00    +0.018 A 
ATOM     27  C   UNL     1      -6.573   2.848  25.730  0.00  0.00    +0.021 A 
ATOM     28  C   UNL     1      -6.227   4.185  25.837  0.00  0.00    +0.114 A 
BRANCH  25   2
ATOM      2  O   UNL     1      -2.964   4.346  24.488  0.00  0.00    -0.474 OA
BRANCH   2  29
ATOM     29  C   UNL     1      -1.996   4.586  25.502  0.00  0.00    +0.258 C 
BRANCH  29  30
ATOM     30  C   UNL     1      -0.610   4.411  24.913  0.00  0.00    +0.200 C 
BRANCH  30   3
ATOM      3  O   UNL     1      -0.345   3.023  24.752  0.00  0.00    -0.380 OA
ATOM     31  C   UNL     1      -0.158   2.380  26.005  0.00  0.00    +0.194 C 
ENDBRANCH  30   3
ENDBRANCH  29  30
ENDBRANCH   2  29
ENDBRANCH  25   2
ENDBRANCH  19  23
ENDBRANCH   9  14
BRANCH   4  13
ATOM     13  C   UNL     1       0.738  -0.862  22.879  0.00  0.00    +0.122 C 
BRANCH  13  15
ATOM      6  N   UNL     1       3.253   1.820  23.018  0.00  0.00    -0.360 N 
ATOM     15  C   UNL     1       1.950   0.024  23.003  0.00  0.00    -0.008 A 
ATOM     16  C   UNL     1       3.271  -0.388  23.333  0.00  0.00    +0.004 A 
ATOM     17  C   UNL     1       1.971   1.387  22.816  0.00  0.00    +0.088 A 
ATOM     18  C   UNL     1       4.070   0.757  23.336  0.00  0.00    +0.047 A 
ATOM     20  C   UNL     1       3.866  -1.631  23.631  0.00  0.00    +0.010 A 
ATOM     21  C   UNL     1       5.439   0.723  23.623  0.00  0.00    +0.026 A 
ATOM     22  C   UNL     1       5.235  -1.680  23.919  0.00  0.00    +0.001 A 
ATOM     24  C   UNL     1       6.007  -0.520  23.914  0.00  0.00    +0.002 A 
ATOM     32  H   UNL     1       3.558   2.781  22.946  0.00  0.00    +0.165 HD
ENDBRANCH  13  15
ENDBRANCH   4  13
TORSDOF 8
ENDMDL
MODEL 4
REMARK VINA RESULT:      -0.2      1.430      5.159
REMARK  Name = 45783416
REMARK  9 active torsions:
REMARK  status: ('A' for Active; 'I' for Inactive)
REMARK    1  A    between atoms: O_2  and  C_25
REMARK    2  A    between atoms: O_2  and  C_29
REMARK    3  A    between atoms: O_3  and  C_30
REMARK    4  A    between atoms: O_3  and  C_31
REMARK    5  A    between atoms: N_4  and  C_13
REMARK    6  A    between atoms: C_9  and  C_14
REMARK    7  A    between atoms: C_13  and  C_15
REMARK    8  A    between atoms: C_19  and  C_23
REMARK    9  A    between atoms: C_29  and  C_30
REMARK                            x       y       z     vdW  Elec       q    Type
REMARK                         _______ _______ _______ _____ _____    ______ ____
ROOT
ATOM      4  N   UNL     1       1.061  -0.707  23.622  0.00  0.00    -0.287 NA
ATOM      9  C   UNL     1       0.816   0.701  23.992  0.00  0.00    +0.146 C 
ATOM     10  C   UNL     1       1.772   1.512  23.097  0.00  0.00    +0.030 C 
ATOM     11  C   UNL     1       2.445  -0.778  23.154  0.00  0.00    +0.085 C 
ATOM     12  C   UNL     1       2.553   0.473  22.305  0.00  0.00    +0.017 C 
ENDROOT
BRANCH   9  14
ATOM      1  O   UNL     1      -1.102   1.140  22.541  0.00  0.00    -0.336 OA
ATOM      5  N   UNL     1      -1.517   1.439  24.722  0.00  0.00    -0.190 NA
ATOM      7  N   UNL     1      -2.441   1.537  22.631  0.00  0.00    -0.056 NA
ATOM     14  C   UNL     1      -0.632   1.107  23.816  0.00  0.00    +0.245 A 
ATOM     19  C   UNL     1      -2.611   1.694  23.948  0.00  0.00    +0.207 A 
BRANCH  19  23
ATOM      8  N   UNL     1      -5.308   3.860  25.335  0.00  0.00    -0.221 NA
ATOM     23  C   UNL     1      -3.861   2.103  24.522  0.00  0.00    +0.084 A 
ATOM     25  C   UNL     1      -4.145   3.430  24.795  0.00  0.00    +0.226 A 
ATOM     26  C   UNL     1      -4.834   1.154  24.818  0.00  0.00    +0.018 A 
ATOM     27  C   UNL     1      -6.042   1.557  25.374  0.00  0.00    +0.021 A 
ATOM     28  C   UNL     1      -6.229   2.910  25.610  0.00  0.00    +0.114 A 
BRANCH  25   2
ATOM      2  O   UNL     1      -3.218   4.403  24.520  0.00  0.00    -0.474 OA
BRANCH   2  29
ATOM     29  C   UNL     1      -2.363   4.792  25.589  0.00  0.00    +0.258 C 
BRANCH  29  30
ATOM     30  C   UNL     1      -1.053   5.297  25.016  0.00  0.00    +0.200 C 
BRANCH  30   3
ATOM      3  O   UNL     1      -0.126   4.219  24.957  0.00  0.00    -0.380 OA
ATOM     31  C   UNL     1      -0.146   3.450  26.152  0.00  0.00    +0.194 C 
ENDBRANCH  30   3
ENDBRANCH  29  30
ENDBRANCH   2  29
ENDBRANCH  25   2
ENDBRANCH  19  23
ENDBRANCH   9  14
BRANCH   4  13
ATOM     13  C   UNL     1       0.801  -1.639  24.712  0.00  0.00    +0.122 C 
BRANCH  13  15
ATOM      6  N   UNL     1      -2.295  -0.887  26.552  0.00  0.00    -0.360 N 
ATOM     15  C   UNL     1      -0.593  -1.487  25.260  0.00  0.00    -0.008 A 
ATOM     16  C   UNL     1      -1.784  -2.036  24.709  0.00  0.00    +0.004 A 
ATOM     17  C   UNL     1      -0.939  -0.785  26.391  0.00  0.00    +0.088 A 
ATOM     18  C   UNL     1      -2.838  -1.645  25.539  0.00  0.00    +0.047 A 
ATOM     20  C   UNL     1      -2.069  -2.831  23.581  0.00  0.00    +0.010 A 
ATOM     21  C   UNL     1      -4.167  -2.010  25.295  0.00  0.00    +0.026 A 
ATOM     22  C   UNL     1      -3.394  -3.205  23.326  0.00  0.00    +0.001 A 
ATOM     24  C   UNL     1      -4.425  -2.799  24.171  0.00  0.00    +0.002 A 
ATOM     32  H   UNL     1      -2.822  -0.465  27.304  0.00  0.00    +0.165 HD
ENDBRANCH  13  15
ENDBRANCH   4  13
TORSDOF 8
ENDMDL
MODEL 5
REMARK VINA RESULT:       1.4      1.803      5.339
REMARK  Name = 45783416
REMARK  9 active torsions:
REMARK  status: ('A' for Active; 'I' for Inactive)
REMARK    1  A    between atoms: O_2  and  C_25
REMARK    2  A    between atoms: O_2  and  C_29
REMARK    3  A    between atoms: O_3  and  C_30
REMARK    4  A    between atoms: O_3  and  C_31
REMARK    5  A    between atoms: N_4  and  C_13
REMARK    6  A    between atoms: C_9  and  C_14
REMARK    7  A    between atoms: C_13  and  C_15
REMARK    8  A    between atoms: C_19  and  C_23
REMARK    9  A    between atoms: C_29  and  C_30
REMARK                            x       y       z     vdW  Elec       q    Type
REMARK                         _______ _______ _______ _____ _____    ______ ____
ROOT
ATOM      4  N   UNL     1      -0.530   3.568  24.350  0.00  0.00    -0.287 NA
ATOM      9  C   UNL     1      -0.761   3.014  25.699  0.00  0.00    +0.146 C 
ATOM     10  C   UNL     1      -1.827   3.934  26.323  0.00  0.00    +0.030 C 
ATOM     11  C   UNL     1      -0.827   4.998  24.433  0.00  0.00    +0.085 C 
ATOM     12  C   UNL     1      -2.087   5.008  25.275  0.00  0.00    +0.017 C 
ENDROOT
BRANCH   9  14
ATOM      1  O   UNL     1      -0.567   0.728  26.541  0.00  0.00    -0.336 OA
ATOM      5  N   UNL     1      -2.082   0.976  24.910  0.00  0.00    -0.190 NA
ATOM      7  N   UNL     1      -1.120  -0.541  26.327  0.00  0.00    -0.056 NA
ATOM     14  C   UNL     1      -1.189   1.562  25.667  0.00  0.00    +0.245 A 
ATOM     19  C   UNL     1      -2.005  -0.312  25.352  0.00  0.00    +0.207 A 
BRANCH  19  23
ATOM      8  N   UNL     1      -4.873  -2.029  23.703  0.00  0.00    -0.221 NA
ATOM     23  C   UNL     1      -2.828  -1.349  24.797  0.00  0.00    +0.084 A 
ATOM     25  C   UNL     1      -4.066  -1.084  24.235  0.00  0.00    +0.226 A 
ATOM     26  C   UNL     1      -2.388  -2.668  24.812  0.00  0.00    +0.018 A 
ATOM     27  C   UNL     1      -3.190  -3.668  24.273  0.00  0.00    +0.021 A 
ATOM     28  C   UNL     1      -4.413  -3.299  23.735  0.00  0.00    +0.114 A 
BRANCH  25   2
ATOM      2  O   UNL     1      -4.543   0.201  24.198  0.00  0.00    -0.474 OA
BRANCH   2  29
ATOM     29  C   UNL     1      -5.349   0.616  25.294  0.00  0.00    +0.258 C 
BRANCH  29  30
ATOM     30  C   UNL     1      -6.029   1.925  24.940  0.00  0.00    +0.200 C 
BRANCH  30   3
ATOM      3  O   UNL     1      -5.058   2.963  24.921  0.00  0.00    -0.380 OA
ATOM     31  C   UNL     1      -5.533   4.133  25.572  0.00  0.00    +0.194 C 
ENDBRANCH  30   3
ENDBRANCH  29  30
ENDBRANCH   2  29
ENDBRANCH  25   2
ENDBRANCH  19  23
ENDBRANCH   9  14
BRANCH   4  13
ATOM     13  C   UNL     1       0.815   3.315  23.848  0.00  0.00    +0.122 C 
BRANCH  13  15
ATOM      6  N   UNL     1       0.577  -0.223  22.869  0.00  0.00    -0.360 N 
ATOM     15  C   UNL     1       1.004   1.874  23.455  0.00  0.00    -0.008 A 
ATOM     16  C   UNL     1       2.244   1.196  23.295  0.00  0.00    +0.004 A 
ATOM     17  C   UNL     1      -0.002   0.976  23.186  0.00  0.00    +0.088 A 
ATOM     18  C   UNL     1       1.949  -0.119  22.927  0.00  0.00    +0.047 A 
ATOM     20  C   UNL     1       3.595   1.575  23.428  0.00  0.00    +0.010 A 
ATOM     21  C   UNL     1       2.940  -1.077  22.684  0.00  0.00    +0.026 A 
ATOM     22  C   UNL     1       4.597   0.626  23.189  0.00  0.00    +0.001 A 
ATOM     24  C   UNL     1       4.272  -0.678  22.823  0.00  0.00    +0.002 A 
ATOM     32  H   UNL     1       0.072  -1.064  22.625  0.00  0.00    +0.165 HD
ENDBRANCH  13  15
ENDBRANCH   4  13
TORSDOF 8
ENDMDL
