MODEL 1
REMARK VINA RESULT:       7.7      0.000      0.000
REMARK  Name = 45360392
REMARK  9 active torsions:
REMARK  status: ('A' for Active; 'I' for Inactive)
REMARK    1  A    between atoms: O_4  and  C_14
REMARK    2  A    between atoms: O_8  and  C_27
REMARK    3  A    between atoms: O_8  and  C_31
REMARK    4  A    between atoms: N_10  and  C_13
REMARK    5  A    between atoms: N_11  and  C_24
REMARK    6  A    between atoms: N_12  and  C_28
REMARK    7  A    between atoms: C_20  and  C_23
REMARK    8  A    between atoms: C_24  and  C_27
REMARK    9  A    between atoms: C_36  and  C_39
REMARK                            x       y       z     vdW  Elec       q    Type
REMARK                         _______ _______ _______ _____ _____    ______ ____
ROOT
ATOM      5  O   UNL     1      -6.368   1.359  24.760  0.00  0.00    -0.252 OA
ATOM      9  N   UNL     1      -5.388   2.914  26.161  0.00  0.00    -0.284 N 
ATOM     12  N   UNL     1      -4.253   0.915  25.611  0.00  0.00    -0.269 N 
ATOM     13  C   UNL     1      -3.244   4.234  26.117  0.00  0.00    +0.119 C 
ATOM     14  C   UNL     1      -3.806   5.108  24.981  0.00  0.00    +0.136 C 
ATOM     15  C   UNL     1      -5.140   5.802  25.274  0.00  0.00    +0.035 C 
ATOM     16  C   UNL     1      -4.267   3.448  26.946  0.00  0.00    +0.134 C 
ATOM     17  C   UNL     1      -6.356   4.905  25.026  0.00  0.00    +0.022 C 
ATOM     18  C   UNL     1      -6.547   3.802  26.060  0.00  0.00    +0.109 C 
ATOM     19  C   UNL     1      -5.402   1.688  25.454  0.00  0.00    +0.307 C 
ATOM     42  H   UNL     1      -3.501   1.282  26.184  0.00  0.00    +0.156 HD
ENDROOT
BRANCH  12  28
ATOM     28  C   UNL     1      -3.967  -0.350  25.038  0.00  0.00    +0.035 A 
ATOM     34  C   UNL     1      -2.698  -0.910  25.181  0.00  0.00    +0.035 A 
ATOM     35  C   UNL     1      -4.957  -1.034  24.333  0.00  0.00    +0.023 A 
ATOM     36  C   UNL     1      -2.418  -2.155  24.616  0.00  0.00    +0.057 A 
ATOM     37  C   UNL     1      -4.677  -2.279  23.769  0.00  0.00    +0.002 A 
ATOM     38  C   UNL     1      -3.407  -2.839  23.911  0.00  0.00    +0.012 A 
BRANCH  36  39
ATOM      1  F   UNL     1      -0.118  -1.870  25.212  0.00  0.00    -0.166 F 
ATOM      2  F   UNL     1      -0.572  -3.248  23.592  0.00  0.00    -0.166 F 
ATOM      3  F   UNL     1      -1.017  -3.796  25.649  0.00  0.00    -0.166 F 
ATOM     39  C   UNL     1      -1.060  -2.754  24.767  0.00  0.00    +0.417 C 
ENDBRANCH  36  39
ENDBRANCH  12  28
BRANCH  13  10
ATOM      7  O   UNL     1      -3.191   3.123  23.470  0.00  0.00    -0.270 OA
ATOM     10  N   UNL     1      -2.236   3.344  25.572  0.00  0.00    -0.305 N 
ATOM     20  C   UNL     1      -2.302   2.862  24.278  0.00  0.00    +0.244 C 
ATOM     40  H   UNL     1      -1.413   3.173  26.139  0.00  0.00    +0.149 HD
BRANCH  20  23
ATOM     23  C   UNL     1      -1.208   1.940  23.880  0.00  0.00    +0.037 A 
ATOM     29  C   UNL     1       0.044   2.041  24.486  0.00  0.00    +0.016 A 
ATOM     30  C   UNL     1      -1.432   0.973  22.900  0.00  0.00    +0.016 A 
ATOM     31  C   UNL     1       0.849   0.211  23.132  0.00  0.00    +0.121 A 
ATOM     32  C   UNL     1       1.073   1.176  24.113  0.00  0.00    +0.046 A 
ATOM     33  C   UNL     1      -0.403   0.108  22.525  0.00  0.00    +0.046 A 
BRANCH  31   8
ATOM      8  O   UNL     1       1.852  -0.634  22.766  0.00  0.00    -0.491 OA
BRANCH   8  27
ATOM     27  C   UNL     1       2.441  -0.426  21.483  0.00  0.00    +0.244 C 
BRANCH  27  24
ATOM     24  C   UNL     1       3.548   0.606  21.614  0.00  0.00    +0.125 C 
BRANCH  24  11
ATOM      6  O   UNL     1       5.653  -0.587  25.044  0.00  0.00    -0.377 OA
ATOM     11  N   UNL     1       4.611   0.114  22.490  0.00  0.00    -0.295 NA
ATOM     21  C   UNL     1       4.191  -1.113  23.179  0.00  0.00    +0.112 C 
ATOM     22  C   UNL     1       4.992   1.139  23.473  0.00  0.00    +0.112 C 
ATOM     25  C   UNL     1       5.310  -1.600  24.096  0.00  0.00    +0.175 C 
ATOM     26  C   UNL     1       6.092   0.599  24.382  0.00  0.00    +0.175 C 
ENDBRANCH  24  11
ENDBRANCH  27  24
ENDBRANCH   8  27
ENDBRANCH  31   8
ENDBRANCH  20  23
ENDBRANCH  13  10
BRANCH  14   4
ATOM      4  O   UNL     1      -2.848   6.140  24.710  0.00  0.00    -0.390 OA
ATOM     41  H   UNL     1      -3.201   6.688  23.986  0.00  0.00    +0.210 HD
ENDBRANCH  14   4
TORSDOF 9
ENDMDL
MODEL 2
REMARK VINA RESULT:       9.7      1.905      7.766
REMARK  Name = 45360392
REMARK  9 active torsions:
REMARK  status: ('A' for Active; 'I' for Inactive)
REMARK    1  A    between atoms: O_4  and  C_14
REMARK    2  A    between atoms: O_8  and  C_27
REMARK    3  A    between atoms: O_8  and  C_31
REMARK    4  A    between atoms: N_10  and  C_13
REMARK    5  A    between atoms: N_11  and  C_24
REMARK    6  A    between atoms: N_12  and  C_28
REMARK    7  A    between atoms: C_20  and  C_23
REMARK    8  A    between atoms: C_24  and  C_27
REMARK    9  A    between atoms: C_36  and  C_39
REMARK                            x       y       z     vdW  Elec       q    Type
REMARK                         _______ _______ _______ _____ _____    ______ ____
ROOT
ATOM      5  O   UNL     1       2.112  -2.771  24.964  0.00  0.00    -0.252 OA
ATOM      9  N   UNL     1       3.146  -1.540  23.303  0.00  0.00    -0.284 N 
ATOM     12  N   UNL     1       0.960  -0.990  24.016  0.00  0.00    -0.269 N 
ATOM     13  C   UNL     1       3.745   0.889  23.012  0.00  0.00    +0.119 C 
ATOM     14  C   UNL     1       4.857   0.741  24.066  0.00  0.00    +0.136 C 
ATOM     15  C   UNL     1       5.893  -0.354  23.791  0.00  0.00    +0.035 C 
ATOM     16  C   UNL     1       3.232  -0.406  22.372  0.00  0.00    +0.134 C 
ATOM     17  C   UNL     1       5.440  -1.744  24.245  0.00  0.00    +0.022 C 
ATOM     18  C   UNL     1       4.352  -2.367  23.379  0.00  0.00    +0.109 C 
ATOM     19  C   UNL     1       2.060  -1.835  24.161  0.00  0.00    +0.307 C 
ATOM     42  H   UNL     1       1.022  -0.233  23.344  0.00  0.00    +0.156 HD
ENDROOT
BRANCH  12  28
ATOM     28  C   UNL     1      -0.267  -1.027  24.722  0.00  0.00    +0.035 A 
ATOM     34  C   UNL     1      -1.287  -1.883  24.306  0.00  0.00    +0.035 A 
ATOM     35  C   UNL     1      -0.456  -0.209  25.836  0.00  0.00    +0.023 A 
ATOM     36  C   UNL     1      -2.495  -1.919  25.003  0.00  0.00    +0.057 A 
ATOM     37  C   UNL     1      -1.664  -0.245  26.532  0.00  0.00    +0.002 A 
ATOM     38  C   UNL     1      -2.683  -1.101  26.115  0.00  0.00    +0.012 A 
BRANCH  36  39
ATOM      1  F   UNL     1      -4.719  -2.181  24.159  0.00  0.00    -0.166 F 
ATOM      2  F   UNL     1      -3.986  -3.692  25.539  0.00  0.00    -0.166 F 
ATOM      3  F   UNL     1      -3.239  -3.624  23.498  0.00  0.00    -0.166 F 
ATOM     39  C   UNL     1      -3.586  -2.834  24.557  0.00  0.00    +0.417 C 
ENDBRANCH  36  39
ENDBRANCH  12  28
BRANCH  13  10
ATOM      7  O   UNL     1       0.973   0.710  22.285  0.00  0.00    -0.270 OA
ATOM     10  N   UNL     1       2.648   1.644  23.588  0.00  0.00    -0.305 N 
ATOM     20  C   UNL     1       1.342   1.483  23.165  0.00  0.00    +0.244 C 
ATOM     40  H   UNL     1       2.857   2.220  24.396  0.00  0.00    +0.149 HD
BRANCH  20  23
ATOM     23  C   UNL     1       0.339   2.350  23.836  0.00  0.00    +0.037 A 
ATOM     29  C   UNL     1       0.521   2.725  25.167  0.00  0.00    +0.016 A 
ATOM     30  C   UNL     1      -0.785   2.788  23.136  0.00  0.00    +0.016 A 
ATOM     31  C   UNL     1      -1.545   3.975  25.098  0.00  0.00    +0.121 A 
ATOM     32  C   UNL     1      -0.421   3.538  25.799  0.00  0.00    +0.046 A 
ATOM     33  C   UNL     1      -1.727   3.600  23.767  0.00  0.00    +0.046 A 
BRANCH  31   8
ATOM      8  O   UNL     1      -2.465   4.768  25.713  0.00  0.00    -0.491 OA
BRANCH   8  27
ATOM     27  C   UNL     1      -3.413   4.124  26.563  0.00  0.00    +0.244 C 
BRANCH  27  24
ATOM     24  C   UNL     1      -4.798   4.281  25.958  0.00  0.00    +0.125 C 
BRANCH  24  11
ATOM      6  O   UNL     1      -5.527   0.347  24.689  0.00  0.00    -0.377 OA
ATOM     11  N   UNL     1      -5.125   3.133  25.115  0.00  0.00    -0.295 NA
ATOM     21  C   UNL     1      -6.324   2.445  25.612  0.00  0.00    +0.112 C 
ATOM     22  C   UNL     1      -3.996   2.193  25.051  0.00  0.00    +0.112 C 
ATOM     25  C   UNL     1      -6.639   1.244  24.725  0.00  0.00    +0.175 C 
ATOM     26  C   UNL     1      -4.366   1.000  24.175  0.00  0.00    +0.175 C 
ENDBRANCH  24  11
ENDBRANCH  27  24
ENDBRANCH   8  27
ENDBRANCH  31   8
ENDBRANCH  20  23
ENDBRANCH  13  10
BRANCH  14   4
ATOM      4  O   UNL     1       5.568   1.984  24.129  0.00  0.00    -0.390 OA
ATOM     41  H   UNL     1       5.071   2.580  24.717  0.00  0.00    +0.210 HD
ENDBRANCH  14   4
TORSDOF 9
ENDMDL
MODEL 3
REMARK VINA RESULT:      10.7      1.385      1.980
REMARK  Name = 45360392
REMARK  9 active torsions:
REMARK  status: ('A' for Active; 'I' for Inactive)
REMARK    1  A    between atoms: O_4  and  C_14
REMARK    2  A    between atoms: O_8  and  C_27
REMARK    3  A    between atoms: O_8  and  C_31
REMARK    4  A    between atoms: N_10  and  C_13
REMARK    5  A    between atoms: N_11  and  C_24
REMARK    6  A    between atoms: N_12  and  C_28
REMARK    7  A    between atoms: C_20  and  C_23
REMARK    8  A    between atoms: C_24  and  C_27
REMARK    9  A    between atoms: C_36  and  C_39
REMARK                            x       y       z     vdW  Elec       q    Type
REMARK                         _______ _______ _______ _____ _____    ______ ____
ROOT
ATOM      5  O   UNL     1      -6.012   1.027  25.135  0.00  0.00    -0.252 OA
ATOM      9  N   UNL     1      -5.127   2.888  26.184  0.00  0.00    -0.284 N 
ATOM     12  N   UNL     1      -3.808   0.953  25.864  0.00  0.00    -0.269 N 
ATOM     13  C   UNL     1      -3.158   4.396  25.748  0.00  0.00    +0.119 C 
ATOM     14  C   UNL     1      -3.891   5.005  24.540  0.00  0.00    +0.136 C 
ATOM     15  C   UNL     1      -5.275   5.596  24.830  0.00  0.00    +0.035 C 
ATOM     16  C   UNL     1      -4.025   3.658  26.775  0.00  0.00    +0.134 C 
ATOM     17  C   UNL     1      -6.392   4.550  24.832  0.00  0.00    +0.022 C 
ATOM     18  C   UNL     1      -6.386   3.622  26.040  0.00  0.00    +0.109 C 
ATOM     19  C   UNL     1      -5.047   1.566  25.684  0.00  0.00    +0.307 C 
ATOM     42  H   UNL     1      -3.067   1.486  26.306  0.00  0.00    +0.156 HD
ENDROOT
BRANCH  12  28
ATOM     28  C   UNL     1      -3.417  -0.353  25.477  0.00  0.00    +0.035 A 
ATOM     34  C   UNL     1      -4.224  -1.099  24.619  0.00  0.00    +0.035 A 
ATOM     35  C   UNL     1      -2.222  -0.893  25.954  0.00  0.00    +0.023 A 
ATOM     36  C   UNL     1      -3.838  -2.384  24.239  0.00  0.00    +0.057 A 
ATOM     37  C   UNL     1      -1.836  -2.179  25.574  0.00  0.00    +0.002 A 
ATOM     38  C   UNL     1      -2.645  -2.924  24.716  0.00  0.00    +0.012 A 
BRANCH  36  39
ATOM      1  F   UNL     1      -6.039  -3.040  23.568  0.00  0.00    -0.166 F 
ATOM      2  F   UNL     1      -4.457  -4.522  23.402  0.00  0.00    -0.166 F 
ATOM      3  F   UNL     1      -4.547  -2.860  22.004  0.00  0.00    -0.166 F 
ATOM     39  C   UNL     1      -4.704  -3.182  23.322  0.00  0.00    +0.417 C 
ENDBRANCH  36  39
ENDBRANCH  12  28
BRANCH  13  10
ATOM      7  O   UNL     1      -3.213   2.749  23.397  0.00  0.00    -0.270 OA
ATOM     10  N   UNL     1      -2.093   3.536  25.268  0.00  0.00    -0.305 N 
ATOM     20  C   UNL     1      -2.220   2.779  24.118  0.00  0.00    +0.244 C 
ATOM     40  H   UNL     1      -1.200   3.593  25.747  0.00  0.00    +0.149 HD
BRANCH  20  23
ATOM     23  C   UNL     1      -1.049   1.931  23.777  0.00  0.00    +0.037 A 
ATOM     29  C   UNL     1      -1.229   0.758  23.042  0.00  0.00    +0.016 A 
ATOM     30  C   UNL     1       0.229   2.305  24.191  0.00  0.00    +0.016 A 
ATOM     31  C   UNL     1       1.147   0.334  23.137  0.00  0.00    +0.121 A 
ATOM     32  C   UNL     1      -0.130  -0.040  22.722  0.00  0.00    +0.046 A 
ATOM     33  C   UNL     1       1.327   1.507  23.872  0.00  0.00    +0.046 A 
BRANCH  31   8
ATOM      8  O   UNL     1       2.220  -0.445  22.826  0.00  0.00    -0.491 OA
BRANCH   8  27
ATOM     27  C   UNL     1       2.727  -0.349  21.495  0.00  0.00    +0.244 C 
BRANCH  27  24
ATOM     24  C   UNL     1       3.942   0.564  21.500  0.00  0.00    +0.125 C 
BRANCH  24  11
ATOM      6  O   UNL     1       5.649  -0.555  25.167  0.00  0.00    -0.377 OA
ATOM     11  N   UNL     1       4.910   0.130  22.505  0.00  0.00    -0.295 NA
ATOM     21  C   UNL     1       4.495  -1.141  23.114  0.00  0.00    +0.112 C 
ATOM     22  C   UNL     1       5.078   1.156  23.545  0.00  0.00    +0.112 C 
ATOM     25  C   UNL     1       5.514  -1.567  24.168  0.00  0.00    +0.175 C 
ATOM     26  C   UNL     1       6.084   0.675  24.587  0.00  0.00    +0.175 C 
ENDBRANCH  24  11
ENDBRANCH  27  24
ENDBRANCH   8  27
ENDBRANCH  31   8
ENDBRANCH  20  23
ENDBRANCH  13  10
BRANCH  14   4
ATOM      4  O   UNL     1      -3.080   6.070  24.028  0.00  0.00    -0.390 OA
ATOM     41  H   UNL     1      -3.494   6.389  23.207  0.00  0.00    +0.210 HD
ENDBRANCH  14   4
TORSDOF 9
ENDMDL
