MODEL 1
REMARK VINA RESULT:      -2.3      0.000      0.000
REMARK  Name = 28960863
REMARK  6 active torsions:
REMARK  status: ('A' for Active; 'I' for Inactive)
REMARK    1  A    between atoms: N_3  and  C_19
REMARK    2  A    between atoms: N_4  and  C_8
REMARK    3  A    between atoms: N_5  and  C_12
REMARK    4  A    between atoms: C_9  and  C_18
REMARK    5  A    between atoms: C_21  and  C_22
REMARK    6  A    between atoms: C_22  and  C_23
REMARK                            x       y       z     vdW  Elec       q    Type
REMARK                         _______ _______ _______ _____ _____    ______ ____
ROOT
ATOM      3  N   UNL     1      -2.127  -1.855  25.277  0.00  0.00    -0.293 NA
ATOM      8  C   UNL     1      -4.205  -1.200  24.446  0.00  0.00    +0.090 C 
ATOM      9  C   UNL     1      -1.859  -1.549  23.859  0.00  0.00    +0.147 C 
ATOM     10  C   UNL     1      -3.186  -0.969  23.331  0.00  0.00    +0.052 C 
ATOM     11  C   UNL     1      -3.543  -2.233  25.346  0.00  0.00    +0.107 C 
ATOM     19  C   UNL     1      -1.259  -2.896  25.814  0.00  0.00    +0.105 C 
ENDROOT
BRANCH   8   4
ATOM      2  O   UNL     1      -3.855   1.488  23.489  0.00  0.00    -0.253 OA
ATOM      4  N   UNL     1      -4.490   0.019  25.168  0.00  0.00    -0.295 N 
ATOM      5  N   UNL     1      -4.640   2.283  25.525  0.00  0.00    -0.297 N 
ATOM     20  C   UNL     1      -4.288   1.283  24.622  0.00  0.00    +0.300 C 
ATOM     29  H   UNL     1      -4.782  -0.049  26.138  0.00  0.00    +0.151 HD
ATOM     30  H   UNL     1      -4.918   2.003  26.459  0.00  0.00    +0.151 HD
BRANCH   5  12
ATOM     12  C   UNL     1      -4.534   3.693  25.223  0.00  0.00    +0.074 C 
ATOM     13  C   UNL     1      -3.954   4.468  26.411  0.00  0.00    +0.022 C 
ATOM     14  C   UNL     1      -3.707   3.924  23.953  0.00  0.00    +0.022 C 
ATOM     15  C   UNL     1      -2.465   4.191  26.620  0.00  0.00    +0.002 C 
ATOM     16  C   UNL     1      -2.219   3.647  24.166  0.00  0.00    +0.002 C 
ATOM     17  C   UNL     1      -1.663   4.438  25.346  0.00  0.00    +0.000 C 
ENDBRANCH   5  12
ENDBRANCH   8   4
BRANCH   9  18
ATOM      1  O   UNL     1      -0.656   0.496  24.445  0.00  0.00    -0.336 OA
ATOM      6  N   UNL     1       0.307  -0.695  22.812  0.00  0.00    -0.194 NA
ATOM      7  N   UNL     1       0.496   1.203  24.076  0.00  0.00    -0.061 NA
ATOM     18  C   UNL     1      -0.691  -0.607  23.654  0.00  0.00    +0.245 A 
ATOM     21  C   UNL     1       1.008   0.437  23.108  0.00  0.00    +0.176 A 
BRANCH  21  22
ATOM     22  C   UNL     1       2.248   0.795  22.408  0.00  0.00    +0.114 C 
BRANCH  22  23
ATOM     23  C   UNL     1       3.519   0.215  23.022  0.00  0.00    -0.040 A 
ATOM     24  C   UNL     1       3.540  -1.111  23.457  0.00  0.00    +0.004 A 
ATOM     25  C   UNL     1       4.657   1.009  23.147  0.00  0.00    +0.004 A 
ATOM     26  C   UNL     1       4.702  -1.641  24.019  0.00  0.00    +0.000 A 
ATOM     27  C   UNL     1       5.819   0.479  23.709  0.00  0.00    +0.000 A 
ATOM     28  C   UNL     1       5.842  -0.846  24.144  0.00  0.00    +0.000 A 
ENDBRANCH  22  23
ENDBRANCH  21  22
ENDBRANCH   9  18
TORSDOF 5
ENDMDL
MODEL 2
REMARK VINA RESULT:      -0.6      1.471      4.119
REMARK  Name = 28960863
REMARK  6 active torsions:
REMARK  status: ('A' for Active; 'I' for Inactive)
REMARK    1  A    between atoms: N_3  and  C_19
REMARK    2  A    between atoms: N_4  and  C_8
REMARK    3  A    between atoms: N_5  and  C_12
REMARK    4  A    between atoms: C_9  and  C_18
REMARK    5  A    between atoms: C_21  and  C_22
REMARK    6  A    between atoms: C_22  and  C_23
REMARK                            x       y       z     vdW  Elec       q    Type
REMARK                         _______ _______ _______ _____ _____    ______ ____
ROOT
ATOM      3  N   UNL     1      -3.099   2.514  22.721  0.00  0.00    -0.293 NA
ATOM      8  C   UNL     1      -4.185   2.773  24.768  0.00  0.00    +0.090 C 
ATOM      9  C   UNL     1      -2.042   3.017  23.620  0.00  0.00    +0.147 C 
ATOM     10  C   UNL     1      -2.702   3.050  25.013  0.00  0.00    +0.052 C 
ATOM     11  C   UNL     1      -4.365   3.006  23.276  0.00  0.00    +0.107 C 
ATOM     19  C   UNL     1      -2.917   2.924  21.334  0.00  0.00    +0.105 C 
ENDROOT
BRANCH   8   4
ATOM      2  O   UNL     1      -2.383   0.653  25.490  0.00  0.00    -0.253 OA
ATOM      4  N   UNL     1      -4.542   1.423  25.136  0.00  0.00    -0.295 N 
ATOM      5  N   UNL     1      -4.207  -0.755  25.783  0.00  0.00    -0.297 N 
ATOM     20  C   UNL     1      -3.597   0.457  25.472  0.00  0.00    +0.300 C 
ATOM     29  H   UNL     1      -5.518   1.147  25.079  0.00  0.00    +0.151 HD
ATOM     30  H   UNL     1      -5.212  -0.826  25.665  0.00  0.00    +0.151 HD
BRANCH   5  12
ATOM     12  C   UNL     1      -3.465  -1.935  26.169  0.00  0.00    +0.074 C 
ATOM     13  C   UNL     1      -3.573  -3.027  25.099  0.00  0.00    +0.022 C 
ATOM     14  C   UNL     1      -2.001  -1.594  26.467  0.00  0.00    +0.022 C 
ATOM     15  C   UNL     1      -2.779  -2.690  23.837  0.00  0.00    +0.002 C 
ATOM     16  C   UNL     1      -1.210  -1.259  25.203  0.00  0.00    +0.002 C 
ATOM     17  C   UNL     1      -1.324  -2.365  24.159  0.00  0.00    +0.000 C 
ENDBRANCH   5  12
ENDBRANCH   8   4
BRANCH   9  18
ATOM      1  O   UNL     1       0.197   2.533  24.469  0.00  0.00    -0.336 OA
ATOM      6  N   UNL     1      -0.480   1.156  22.839  0.00  0.00    -0.194 NA
ATOM      7  N   UNL     1       1.249   1.632  24.260  0.00  0.00    -0.061 NA
ATOM     18  C   UNL     1      -0.780   2.182  23.594  0.00  0.00    +0.245 A 
ATOM     21  C   UNL     1       0.774   0.852  23.284  0.00  0.00    +0.176 A 
BRANCH  21  22
ATOM     22  C   UNL     1       1.555  -0.259  22.727  0.00  0.00    +0.114 C 
BRANCH  22  23
ATOM     23  C   UNL     1       3.037  -0.243  23.089  0.00  0.00    -0.040 A 
ATOM     24  C   UNL     1       3.621  -1.362  23.684  0.00  0.00    +0.004 A 
ATOM     25  C   UNL     1       3.807   0.889  22.824  0.00  0.00    +0.004 A 
ATOM     26  C   UNL     1       4.976  -1.346  24.016  0.00  0.00    +0.000 A 
ATOM     27  C   UNL     1       5.162   0.903  23.155  0.00  0.00    +0.000 A 
ATOM     28  C   UNL     1       5.747  -0.214  23.751  0.00  0.00    +0.000 A 
ENDBRANCH  22  23
ENDBRANCH  21  22
ENDBRANCH   9  18
TORSDOF 5
ENDMDL
MODEL 3
REMARK VINA RESULT:       0.1      1.937      6.668
REMARK  Name = 28960863
REMARK  6 active torsions:
REMARK  status: ('A' for Active; 'I' for Inactive)
REMARK    1  A    between atoms: N_3  and  C_19
REMARK    2  A    between atoms: N_4  and  C_8
REMARK    3  A    between atoms: N_5  and  C_12
REMARK    4  A    between atoms: C_9  and  C_18
REMARK    5  A    between atoms: C_21  and  C_22
REMARK    6  A    between atoms: C_22  and  C_23
REMARK                            x       y       z     vdW  Elec       q    Type
REMARK                         _______ _______ _______ _____ _____    ______ ____
ROOT
ATOM      3  N   UNL     1      -2.502   4.005  26.040  0.00  0.00    -0.293 NA
ATOM      8  C   UNL     1      -1.704   5.047  24.113  0.00  0.00    +0.090 C 
ATOM      9  C   UNL     1      -3.695   4.114  25.179  0.00  0.00    +0.147 C 
ATOM     10  C   UNL     1      -3.158   4.661  23.842  0.00  0.00    +0.052 C 
ATOM     11  C   UNL     1      -1.610   5.095  25.631  0.00  0.00    +0.107 C 
ATOM     19  C   UNL     1      -2.814   4.062  27.463  0.00  0.00    +0.105 C 
ENDROOT
BRANCH   8   4
ATOM      2  O   UNL     1      -0.746   2.658  25.392  0.00  0.00    -0.253 OA
ATOM      4  N   UNL     1      -0.785   4.080  23.560  0.00  0.00    -0.295 N 
ATOM      5  N   UNL     1       0.511   2.185  23.498  0.00  0.00    -0.297 N 
ATOM     20  C   UNL     1      -0.374   2.946  24.256  0.00  0.00    +0.300 C 
ATOM     29  H   UNL     1      -0.367   4.271  22.655  0.00  0.00    +0.151 HD
ATOM     30  H   UNL     1       0.807   2.553  22.600  0.00  0.00    +0.151 HD
BRANCH   5  12
ATOM     12  C   UNL     1       1.099   0.952  23.972  0.00  0.00    +0.074 C 
ATOM     13  C   UNL     1       0.554  -0.252  23.196  0.00  0.00    +0.022 C 
ATOM     14  C   UNL     1       2.629   1.008  23.907  0.00  0.00    +0.022 C 
ATOM     15  C   UNL     1       1.083  -0.312  21.763  0.00  0.00    +0.002 C 
ATOM     16  C   UNL     1       3.155   0.946  22.472  0.00  0.00    +0.002 C 
ATOM     17  C   UNL     1       2.608  -0.265  21.725  0.00  0.00    +0.000 C 
ENDBRANCH   5  12
ENDBRANCH   8   4
BRANCH   9  18
ATOM      1  O   UNL     1      -5.776   2.837  25.269  0.00  0.00    -0.336 OA
ATOM      6  N   UNL     1      -3.990   1.632  24.661  0.00  0.00    -0.194 NA
ATOM      7  N   UNL     1      -6.241   1.532  25.055  0.00  0.00    -0.061 NA
ATOM     18  C   UNL     1      -4.443   2.808  25.014  0.00  0.00    +0.245 A 
ATOM     21  C   UNL     1      -5.129   0.882  24.699  0.00  0.00    +0.176 A 
BRANCH  21  22
ATOM     22  C   UNL     1      -5.136  -0.549  24.373  0.00  0.00    +0.114 C 
BRANCH  22  23
ATOM     23  C   UNL     1      -3.806  -1.262  24.599  0.00  0.00    -0.040 A 
ATOM     24  C   UNL     1      -2.809  -0.653  25.361  0.00  0.00    +0.004 A 
ATOM     25  C   UNL     1      -3.589  -2.522  24.043  0.00  0.00    +0.004 A 
ATOM     26  C   UNL     1      -1.593  -1.305  25.567  0.00  0.00    +0.000 A 
ATOM     27  C   UNL     1      -2.373  -3.174  24.249  0.00  0.00    +0.000 A 
ATOM     28  C   UNL     1      -1.375  -2.566  25.011  0.00  0.00    +0.000 A 
ENDBRANCH  22  23
ENDBRANCH  21  22
ENDBRANCH   9  18
TORSDOF 5
ENDMDL
MODEL 4
REMARK VINA RESULT:       0.2      1.682      6.832
REMARK  Name = 28960863
REMARK  6 active torsions:
REMARK  status: ('A' for Active; 'I' for Inactive)
REMARK    1  A    between atoms: N_3  and  C_19
REMARK    2  A    between atoms: N_4  and  C_8
REMARK    3  A    between atoms: N_5  and  C_12
REMARK    4  A    between atoms: C_9  and  C_18
REMARK    5  A    between atoms: C_21  and  C_22
REMARK    6  A    between atoms: C_22  and  C_23
REMARK                            x       y       z     vdW  Elec       q    Type
REMARK                         _______ _______ _______ _____ _____    ______ ____
ROOT
ATOM      3  N   UNL     1      -2.522   4.154  25.923  0.00  0.00    -0.293 NA
ATOM      8  C   UNL     1      -1.015   4.324  24.152  0.00  0.00    +0.090 C 
ATOM      9  C   UNL     1      -3.365   3.978  24.725  0.00  0.00    +0.147 C 
ATOM     10  C   UNL     1      -2.365   3.936  23.552  0.00  0.00    +0.052 C 
ATOM     11  C   UNL     1      -1.371   4.954  25.491  0.00  0.00    +0.107 C 
ATOM     19  C   UNL     1      -3.229   4.775  27.036  0.00  0.00    +0.105 C 
ENDROOT
BRANCH   8   4
ATOM      2  O   UNL     1      -1.144   1.849  22.696  0.00  0.00    -0.253 OA
ATOM      4  N   UNL     1      -0.158   3.175  24.324  0.00  0.00    -0.295 N 
ATOM      5  N   UNL     1       0.654   1.061  23.937  0.00  0.00    -0.297 N 
ATOM     20  C   UNL     1      -0.294   2.012  23.571  0.00  0.00    +0.300 C 
ATOM     29  H   UNL     1       0.527   3.188  25.074  0.00  0.00    +0.151 HD
ATOM     30  H   UNL     1       1.261   1.273  24.721  0.00  0.00    +0.151 HD
BRANCH   5  12
ATOM     12  C   UNL     1       0.745  -0.242  23.317  0.00  0.00    +0.074 C 
ATOM     13  C   UNL     1       1.234  -0.131  21.869  0.00  0.00    +0.022 C 
ATOM     14  C   UNL     1       1.641  -1.180  24.134  0.00  0.00    +0.022 C 
ATOM     15  C   UNL     1       2.713   0.242  21.778  0.00  0.00    +0.002 C 
ATOM     16  C   UNL     1       3.120  -0.805  24.040  0.00  0.00    +0.002 C 
ATOM     17  C   UNL     1       3.584  -0.711  22.590  0.00  0.00    +0.000 C 
ENDBRANCH   5  12
ENDBRANCH   8   4
BRANCH   9  18
ATOM      1  O   UNL     1      -5.546   2.951  25.121  0.00  0.00    -0.336 OA
ATOM      6  N   UNL     1      -3.941   1.497  24.553  0.00  0.00    -0.194 NA
ATOM      7  N   UNL     1      -6.152   1.688  25.110  0.00  0.00    -0.061 NA
ATOM     18  C   UNL     1      -4.247   2.749  24.782  0.00  0.00    +0.245 A 
ATOM     21  C   UNL     1      -5.141   0.884  24.766  0.00  0.00    +0.176 A 
BRANCH  21  22
ATOM     22  C   UNL     1      -5.314  -0.567  24.628  0.00  0.00    +0.114 C 
BRANCH  22  23
ATOM     23  C   UNL     1      -4.017  -1.370  24.654  0.00  0.00    -0.040 A 
ATOM     24  C   UNL     1      -2.946  -0.940  25.438  0.00  0.00    +0.004 A 
ATOM     25  C   UNL     1      -3.902  -2.534  23.894  0.00  0.00    +0.004 A 
ATOM     26  C   UNL     1      -1.760  -1.674  25.461  0.00  0.00    +0.000 A 
ATOM     27  C   UNL     1      -2.717  -3.268  23.918  0.00  0.00    +0.000 A 
ATOM     28  C   UNL     1      -1.645  -2.839  24.701  0.00  0.00    +0.000 A 
ENDBRANCH  22  23
ENDBRANCH  21  22
ENDBRANCH   9  18
TORSDOF 5
ENDMDL
MODEL 5
REMARK VINA RESULT:       0.3      2.001      4.878
REMARK  Name = 28960863
REMARK  6 active torsions:
REMARK  status: ('A' for Active; 'I' for Inactive)
REMARK    1  A    between atoms: N_3  and  C_19
REMARK    2  A    between atoms: N_4  and  C_8
REMARK    3  A    between atoms: N_5  and  C_12
REMARK    4  A    between atoms: C_9  and  C_18
REMARK    5  A    between atoms: C_21  and  C_22
REMARK    6  A    between atoms: C_22  and  C_23
REMARK                            x       y       z     vdW  Elec       q    Type
REMARK                         _______ _______ _______ _____ _____    ______ ____
ROOT
ATOM      3  N   UNL     1      -4.285   3.943  24.351  0.00  0.00    -0.293 NA
ATOM      8  C   UNL     1      -5.391   2.960  26.154  0.00  0.00    +0.090 C 
ATOM      9  C   UNL     1      -3.383   4.185  25.493  0.00  0.00    +0.147 C 
ATOM     10  C   UNL     1      -4.022   3.412  26.663  0.00  0.00    +0.052 C 
ATOM     11  C   UNL     1      -5.631   3.821  24.922  0.00  0.00    +0.107 C 
ATOM     19  C   UNL     1      -4.218   4.985  23.334  0.00  0.00    +0.105 C 
ENDROOT
BRANCH   8   4
ATOM      2  O   UNL     1      -3.925   1.685  24.036  0.00  0.00    -0.253 OA
ATOM      4  N   UNL     1      -5.399   1.555  25.822  0.00  0.00    -0.295 N 
ATOM      5  N   UNL     1      -4.842  -0.353  24.670  0.00  0.00    -0.297 N 
ATOM     20  C   UNL     1      -4.654   1.023  24.774  0.00  0.00    +0.300 C 
ATOM     29  H   UNL     1      -6.028   0.940  26.330  0.00  0.00    +0.151 HD
ATOM     30  H   UNL     1      -5.522  -0.787  25.285  0.00  0.00    +0.151 HD
BRANCH   5  12
ATOM     12  C   UNL     1      -4.190  -1.166  23.668  0.00  0.00    +0.074 C 
ATOM     13  C   UNL     1      -2.724  -0.754  23.494  0.00  0.00    +0.022 C 
ATOM     14  C   UNL     1      -4.312  -2.656  24.002  0.00  0.00    +0.022 C 
ATOM     15  C   UNL     1      -1.856  -1.163  24.684  0.00  0.00    +0.002 C 
ATOM     16  C   UNL     1      -3.442  -3.062  25.192  0.00  0.00    +0.002 C 
ATOM     17  C   UNL     1      -1.986  -2.651  24.990  0.00  0.00    +0.000 C 
ENDBRANCH   5  12
ENDBRANCH   8   4
BRANCH   9  18
ATOM      1  O   UNL     1      -1.192   4.621  24.503  0.00  0.00    -0.336 OA
ATOM      6  N   UNL     1      -1.326   2.677  25.605  0.00  0.00    -0.194 NA
ATOM      7  N   UNL     1       0.071   4.024  24.393  0.00  0.00    -0.061 NA
ATOM     18  C   UNL     1      -1.952   3.764  25.231  0.00  0.00    +0.245 A 
ATOM     21  C   UNL     1      -0.088   2.881  25.067  0.00  0.00    +0.176 A 
BRANCH  21  22
ATOM     22  C   UNL     1       1.001   1.909  25.218  0.00  0.00    +0.114 C 
BRANCH  22  23
ATOM     23  C   UNL     1       1.344   1.133  23.950  0.00  0.00    -0.040 A 
ATOM     24  C   UNL     1       0.354   0.410  23.285  0.00  0.00    +0.004 A 
ATOM     25  C   UNL     1       2.648   1.148  23.456  0.00  0.00    +0.004 A 
ATOM     26  C   UNL     1       0.669  -0.301  22.127  0.00  0.00    +0.000 A 
ATOM     27  C   UNL     1       2.963   0.438  22.297  0.00  0.00    +0.000 A 
ATOM     28  C   UNL     1       1.974  -0.286  21.632  0.00  0.00    +0.000 A 
ENDBRANCH  22  23
ENDBRANCH  21  22
ENDBRANCH   9  18
TORSDOF 5
ENDMDL
