MODEL 1
REMARK VINA RESULT:       4.7      0.000      0.000
REMARK  Name = 11879614
REMARK  8 active torsions:
REMARK  status: ('A' for Active; 'I' for Inactive)
REMARK    1  A    between atoms: S_1  and  N_8
REMARK    2  A    between atoms: S_1  and  C_21
REMARK    3  A    between atoms: O_4  and  C_20
REMARK    4  A    between atoms: O_4  and  C_24
REMARK    5  A    between atoms: N_8  and  C_16
REMARK    6  A    between atoms: N_9  and  C_17
REMARK    7  A    between atoms: N_13  and  C_29
REMARK    8  A    between atoms: C_28  and  C_37
REMARK                            x       y       z     vdW  Elec       q    Type
REMARK                         _______ _______ _______ _____ _____    ______ ____
ROOT
ATOM      2  O   UNL     1      -2.074  -1.193  26.385  0.00  0.00    -0.370 OA
ATOM      3  O   UNL     1      -3.224  -1.582  23.524  0.00  0.00    -0.370 OA
ATOM     14  C   UNL     1      -2.107  -0.843  24.034  0.00  0.00    +0.170 C 
ATOM     15  C   UNL     1      -2.546  -0.284  25.373  0.00  0.00    +0.175 C 
ATOM     16  C   UNL     1      -0.978  -1.784  24.369  0.00  0.00    +0.133 C 
ATOM     17  C   UNL     1      -4.070  -0.297  25.331  0.00  0.00    +0.171 C 
ATOM     18  C   UNL     1      -1.349  -2.261  25.759  0.00  0.00    +0.183 C 
ATOM     19  C   UNL     1      -4.413  -0.932  23.985  0.00  0.00    +0.190 C 
ENDROOT
BRANCH  17   9
ATOM      9  N   UNL     1      -4.686   1.014  25.527  0.00  0.00    -0.187 N 
ATOM     10  N   UNL     1      -5.779   1.151  26.283  0.00  0.00    -0.041 NA
ATOM     11  N   UNL     1      -5.144   3.124  25.462  0.00  0.00    -0.071 NA
ATOM     12  N   UNL     1      -6.057   2.449  26.240  0.00  0.00    -0.020 NA
ATOM     20  C   UNL     1      -4.302   2.213  25.031  0.00  0.00    +0.342 A 
BRANCH  20   4
ATOM      4  O   UNL     1      -3.258   2.410  24.248  0.00  0.00    -0.423 OA
BRANCH   4  24
ATOM     24  C   UNL     1      -2.158   3.159  24.644  0.00  0.00    +0.134 A 
ATOM     27  C   UNL     1      -1.428   2.749  25.744  0.00  0.00    +0.069 A 
ATOM     29  C   UNL     1      -0.323   3.500  26.141  0.00  0.00    +0.033 A 
ATOM     32  C   UNL     1      -1.824   4.291  23.927  0.00  0.00    +0.046 A 
ATOM     35  C   UNL     1       0.033   4.647  25.431  0.00  0.00    +0.023 A 
ATOM     36  C   UNL     1      -0.718   5.043  24.324  0.00  0.00    +0.005 A 
BRANCH  29  13
ATOM      7  O   UNL     1       1.941   2.053  29.376  0.00  0.00    -0.377 OA
ATOM     13  N   UNL     1       0.430   3.104  27.251  0.00  0.00    -0.325 N 
ATOM     30  C   UNL     1       1.892   3.029  27.155  0.00  0.00    +0.133 C 
ATOM     31  C   UNL     1      -0.181   2.171  28.208  0.00  0.00    +0.133 C 
ATOM     33  C   UNL     1       2.504   3.072  28.550  0.00  0.00    +0.178 C 
ATOM     34  C   UNL     1       0.540   2.263  29.547  0.00  0.00    +0.178 C 
ENDBRANCH  29  13
ENDBRANCH   4  24
ENDBRANCH  20   4
ENDBRANCH  17   9
BRANCH  16   8
ATOM      8  N   UNL     1       0.303  -1.041  24.419  0.00  0.00    -0.182 NA
ATOM     38  H   UNL     1       0.676  -0.837  25.356  0.00  0.00    +0.148 HD
BRANCH   8   1
ATOM      1  S   UNL     1       0.755  -0.047  23.120  0.00  0.00    +0.059 S 
ATOM      5  O   UNL     1       0.336   1.316  23.386  0.00  0.00    -0.153 OA
ATOM      6  O   UNL     1       0.377  -0.698  21.881  0.00  0.00    -0.153 OA
BRANCH   1  21
ATOM     21  C   UNL     1       2.519  -0.102  23.213  0.00  0.00    +0.105 A 
ATOM     22  C   UNL     1       3.252   0.999  22.805  0.00  0.00    +0.029 A 
ATOM     23  C   UNL     1       3.136  -1.246  23.691  0.00  0.00    +0.029 A 
ATOM     25  C   UNL     1       4.644   0.955  22.879  0.00  0.00    +0.005 A 
ATOM     26  C   UNL     1       4.528  -1.289  23.765  0.00  0.00    +0.005 A 
ATOM     28  C   UNL     1       5.282  -0.189  23.358  0.00  0.00    -0.050 A 
ATOM     37  C   UNL     1       6.771  -0.236  23.436  0.00  0.00    +0.044 C 
ENDBRANCH   1  21
ENDBRANCH   8   1
ENDBRANCH  16   8
TORSDOF 7
ENDMDL
MODEL 2
REMARK VINA RESULT:       4.7      2.607      5.462
REMARK  Name = 11879614
REMARK  8 active torsions:
REMARK  status: ('A' for Active; 'I' for Inactive)
REMARK    1  A    between atoms: S_1  and  N_8
REMARK    2  A    between atoms: S_1  and  C_21
REMARK    3  A    between atoms: O_4  and  C_20
REMARK    4  A    between atoms: O_4  and  C_24
REMARK    5  A    between atoms: N_8  and  C_16
REMARK    6  A    between atoms: N_9  and  C_17
REMARK    7  A    between atoms: N_13  and  C_29
REMARK    8  A    between atoms: C_28  and  C_37
REMARK                            x       y       z     vdW  Elec       q    Type
REMARK                         _______ _______ _______ _____ _____    ______ ____
ROOT
ATOM      2  O   UNL     1      -4.602   2.645  26.479  0.00  0.00    -0.370 OA
ATOM      3  O   UNL     1      -4.962   3.104  23.426  0.00  0.00    -0.370 OA
ATOM     14  C   UNL     1      -4.406   2.028  24.191  0.00  0.00    +0.170 C 
ATOM     15  C   UNL     1      -3.691   2.668  25.364  0.00  0.00    +0.175 C 
ATOM     16  C   UNL     1      -5.512   1.219  24.819  0.00  0.00    +0.133 C 
ATOM     17  C   UNL     1      -3.429   4.107  24.934  0.00  0.00    +0.171 C 
ATOM     18  C   UNL     1      -5.822   2.007  26.077  0.00  0.00    +0.183 C 
ATOM     19  C   UNL     1      -4.078   4.222  23.557  0.00  0.00    +0.190 C 
ENDROOT
BRANCH  17   9
ATOM      9  N   UNL     1      -2.018   4.489  24.945  0.00  0.00    -0.187 N 
ATOM     10  N   UNL     1      -1.654   5.772  24.862  0.00  0.00    -0.041 NA
ATOM     11  N   UNL     1       0.141   4.458  25.004  0.00  0.00    -0.071 NA
ATOM     12  N   UNL     1      -0.328   5.748  24.899  0.00  0.00    -0.020 NA
ATOM     20  C   UNL     1      -0.926   3.694  25.031  0.00  0.00    +0.342 A 
BRANCH  20   4
ATOM      4  O   UNL     1      -0.953   2.378  25.125  0.00  0.00    -0.423 OA
BRANCH   4  24
ATOM     24  C   UNL     1      -0.361   1.549  24.181  0.00  0.00    +0.134 A 
ATOM     27  C   UNL     1       0.995   1.297  24.266  0.00  0.00    +0.069 A 
ATOM     29  C   UNL     1       1.589   0.464  23.319  0.00  0.00    +0.033 A 
ATOM     32  C   UNL     1      -1.145   1.001  23.185  0.00  0.00    +0.046 A 
ATOM     35  C   UNL     1       0.816  -0.102  22.304  0.00  0.00    +0.023 A 
ATOM     36  C   UNL     1      -0.551   0.167  22.237  0.00  0.00    +0.005 A 
BRANCH  29  13
ATOM      7  O   UNL     1       5.692  -0.453  23.266  0.00  0.00    -0.377 OA
ATOM     13  N   UNL     1       2.960   0.194  23.386  0.00  0.00    -0.325 N 
ATOM     30  C   UNL     1       3.922   1.144  22.816  0.00  0.00    +0.133 C 
ATOM     31  C   UNL     1       3.392  -1.211  23.381  0.00  0.00    +0.133 C 
ATOM     33  C   UNL     1       5.299   0.910  23.424  0.00  0.00    +0.178 C 
ATOM     34  C   UNL     1       4.797  -1.318  23.962  0.00  0.00    +0.178 C 
ENDBRANCH  29  13
ENDBRANCH   4  24
ENDBRANCH  20   4
ENDBRANCH  17   9
BRANCH  16   8
ATOM      8  N   UNL     1      -5.012  -0.128  25.182  0.00  0.00    -0.182 NA
ATOM     38  H   UNL     1      -4.656  -0.241  26.140  0.00  0.00    +0.148 HD
BRANCH   8   1
ATOM      1  S   UNL     1      -4.455  -1.177  23.970  0.00  0.00    +0.059 S 
ATOM      5  O   UNL     1      -4.307  -0.444  22.727  0.00  0.00    -0.153 OA
ATOM      6  O   UNL     1      -5.241  -2.396  24.009  0.00  0.00    -0.153 OA
BRANCH   1  21
ATOM     21  C   UNL     1      -2.839  -1.587  24.555  0.00  0.00    +0.105 A 
ATOM     22  C   UNL     1      -2.326  -0.914  25.650  0.00  0.00    +0.029 A 
ATOM     23  C   UNL     1      -2.115  -2.574  23.908  0.00  0.00    +0.029 A 
ATOM     25  C   UNL     1      -1.050  -1.238  26.112  0.00  0.00    +0.005 A 
ATOM     26  C   UNL     1      -0.839  -2.897  24.370  0.00  0.00    +0.005 A 
ATOM     28  C   UNL     1      -0.307  -2.229  25.472  0.00  0.00    -0.050 A 
ATOM     37  C   UNL     1       1.058  -2.574  25.965  0.00  0.00    +0.044 C 
ENDBRANCH   1  21
ENDBRANCH   8   1
ENDBRANCH  16   8
TORSDOF 7
ENDMDL
MODEL 3
REMARK VINA RESULT:       5.2      1.983      4.469
REMARK  Name = 11879614
REMARK  8 active torsions:
REMARK  status: ('A' for Active; 'I' for Inactive)
REMARK    1  A    between atoms: S_1  and  N_8
REMARK    2  A    between atoms: S_1  and  C_21
REMARK    3  A    between atoms: O_4  and  C_20
REMARK    4  A    between atoms: O_4  and  C_24
REMARK    5  A    between atoms: N_8  and  C_16
REMARK    6  A    between atoms: N_9  and  C_17
REMARK    7  A    between atoms: N_13  and  C_29
REMARK    8  A    between atoms: C_28  and  C_37
REMARK                            x       y       z     vdW  Elec       q    Type
REMARK                         _______ _______ _______ _____ _____    ______ ____
ROOT
ATOM      2  O   UNL     1      -0.539   4.160  23.982  0.00  0.00    -0.370 OA
ATOM      3  O   UNL     1      -0.159   2.368  26.493  0.00  0.00    -0.370 OA
ATOM     14  C   UNL     1      -0.534   2.083  25.139  0.00  0.00    +0.170 C 
ATOM     15  C   UNL     1      -1.397   3.243  24.686  0.00  0.00    +0.175 C 
ATOM     16  C   UNL     1       0.679   2.145  24.247  0.00  0.00    +0.133 C 
ATOM     17  C   UNL     1      -1.905   3.888  25.971  0.00  0.00    +0.171 C 
ATOM     18  C   UNL     1       0.792   3.626  23.947  0.00  0.00    +0.183 C 
ATOM     19  C   UNL     1      -1.239   3.093  27.091  0.00  0.00    +0.190 C 
ENDROOT
BRANCH  17   9
ATOM      9  N   UNL     1      -3.361   3.938  26.082  0.00  0.00    -0.187 N 
ATOM     10  N   UNL     1      -3.957   3.999  27.277  0.00  0.00    -0.041 NA
ATOM     11  N   UNL     1      -5.477   3.988  25.646  0.00  0.00    -0.071 NA
ATOM     12  N   UNL     1      -5.256   4.030  27.004  0.00  0.00    -0.020 NA
ATOM     20  C   UNL     1      -4.287   3.932  25.094  0.00  0.00    +0.342 A 
BRANCH  20   4
ATOM      4  O   UNL     1      -4.017   3.877  23.803  0.00  0.00    -0.423 OA
BRANCH   4  24
ATOM     24  C   UNL     1      -3.563   2.721  23.183  0.00  0.00    +0.134 A 
ATOM     27  C   UNL     1      -3.630   1.522  23.867  0.00  0.00    +0.069 A 
ATOM     29  C   UNL     1      -3.175   0.361  23.243  0.00  0.00    +0.033 A 
ATOM     32  C   UNL     1      -3.057   2.804  21.900  0.00  0.00    +0.046 A 
ATOM     35  C   UNL     1      -2.661   0.421  21.947  0.00  0.00    +0.023 A 
ATOM     36  C   UNL     1      -2.602   1.642  21.276  0.00  0.00    +0.005 A 
BRANCH  29  13
ATOM      7  O   UNL     1      -3.520  -3.202  25.448  0.00  0.00    -0.377 OA
ATOM     13  N   UNL     1      -3.233  -0.864  23.916  0.00  0.00    -0.325 N 
ATOM     30  C   UNL     1      -4.338  -1.793  23.651  0.00  0.00    +0.133 C 
ATOM     31  C   UNL     1      -2.664  -0.941  25.268  0.00  0.00    +0.133 C 
ATOM     33  C   UNL     1      -3.944  -3.199  24.085  0.00  0.00    +0.178 C 
ATOM     34  C   UNL     1      -2.357  -2.393  25.615  0.00  0.00    +0.178 C 
ENDBRANCH  29  13
ENDBRANCH   4  24
ENDBRANCH  20   4
ENDBRANCH  17   9
BRANCH  16   8
ATOM      8  N   UNL     1       0.425   1.397  22.993  0.00  0.00    -0.182 NA
ATOM     38  H   UNL     1      -0.330   1.754  22.393  0.00  0.00    +0.148 HD
BRANCH   8   1
ATOM      1  S   UNL     1       0.856  -0.241  22.884  0.00  0.00    +0.059 S 
ATOM      5  O   UNL     1       0.593  -0.722  21.541  0.00  0.00    -0.153 OA
ATOM      6  O   UNL     1       0.312  -0.944  24.030  0.00  0.00    -0.153 OA
BRANCH   1  21
ATOM     21  C   UNL     1       2.608  -0.175  23.105  0.00  0.00    +0.105 A 
ATOM     22  C   UNL     1       3.294   0.967  22.727  0.00  0.00    +0.029 A 
ATOM     23  C   UNL     1       3.263  -1.265  23.651  0.00  0.00    +0.029 A 
ATOM     25  C   UNL     1       4.676   1.019  22.901  0.00  0.00    +0.005 A 
ATOM     26  C   UNL     1       4.646  -1.212  23.825  0.00  0.00    +0.005 A 
ATOM     28  C   UNL     1       5.353  -0.070  23.450  0.00  0.00    -0.050 A 
ATOM     37  C   UNL     1       6.832  -0.014  23.635  0.00  0.00    +0.044 C 
ENDBRANCH   1  21
ENDBRANCH   8   1
ENDBRANCH  16   8
TORSDOF 7
ENDMDL
MODEL 4
REMARK VINA RESULT:       5.5      2.450      4.441
REMARK  Name = 11879614
REMARK  8 active torsions:
REMARK  status: ('A' for Active; 'I' for Inactive)
REMARK    1  A    between atoms: S_1  and  N_8
REMARK    2  A    between atoms: S_1  and  C_21
REMARK    3  A    between atoms: O_4  and  C_20
REMARK    4  A    between atoms: O_4  and  C_24
REMARK    5  A    between atoms: N_8  and  C_16
REMARK    6  A    between atoms: N_9  and  C_17
REMARK    7  A    between atoms: N_13  and  C_29
REMARK    8  A    between atoms: C_28  and  C_37
REMARK                            x       y       z     vdW  Elec       q    Type
REMARK                         _______ _______ _______ _____ _____    ______ ____
ROOT
ATOM      2  O   UNL     1      -0.700   0.355  25.500  0.00  0.00    -0.370 OA
ATOM      3  O   UNL     1      -1.843   0.787  22.642  0.00  0.00    -0.370 OA
ATOM     14  C   UNL     1      -0.508   0.761  23.165  0.00  0.00    +0.170 C 
ATOM     15  C   UNL     1      -0.578   1.413  24.531  0.00  0.00    +0.175 C 
ATOM     16  C   UNL     1      -0.095  -0.661  23.446  0.00  0.00    +0.133 C 
ATOM     17  C   UNL     1      -1.852   2.250  24.510  0.00  0.00    +0.171 C 
ATOM     18  C   UNL     1      -0.683  -0.909  24.820  0.00  0.00    +0.183 C 
ATOM     19  C   UNL     1      -2.476   1.968  23.145  0.00  0.00    +0.190 C 
ENDROOT
BRANCH  17   9
ATOM      9  N   UNL     1      -1.639   3.673  24.768  0.00  0.00    -0.187 N 
ATOM     10  N   UNL     1      -0.634   4.332  24.184  0.00  0.00    -0.041 NA
ATOM     11  N   UNL     1      -1.805   5.699  25.500  0.00  0.00    -0.071 NA
ATOM     12  N   UNL     1      -0.740   5.576  24.636  0.00  0.00    -0.020 NA
ATOM     20  C   UNL     1      -2.347   4.505  25.566  0.00  0.00    +0.342 A 
BRANCH  20   4
ATOM      4  O   UNL     1      -3.401   4.155  26.280  0.00  0.00    -0.423 OA
BRANCH   4  24
ATOM     24  C   UNL     1      -4.308   3.195  25.852  0.00  0.00    +0.134 A 
ATOM     27  C   UNL     1      -3.877   1.894  25.679  0.00  0.00    +0.069 A 
ATOM     29  C   UNL     1      -4.788   0.930  25.250  0.00  0.00    +0.033 A 
ATOM     32  C   UNL     1      -5.617   3.569  25.613  0.00  0.00    +0.046 A 
ATOM     35  C   UNL     1      -6.115   1.285  25.003  0.00  0.00    +0.023 A 
ATOM     36  C   UNL     1      -6.529   2.604  25.184  0.00  0.00    +0.005 A 
BRANCH  29  13
ATOM      7  O   UNL     1      -3.322  -2.951  24.568  0.00  0.00    -0.377 OA
ATOM     13  N   UNL     1      -4.374  -0.394  25.068  0.00  0.00    -0.325 N 
ATOM     30  C   UNL     1      -3.411  -0.994  25.998  0.00  0.00    +0.133 C 
ATOM     31  C   UNL     1      -4.336  -0.927  23.699  0.00  0.00    +0.133 C 
ATOM     33  C   UNL     1      -3.493  -2.513  25.916  0.00  0.00    +0.178 C 
ATOM     34  C   UNL     1      -4.371  -2.450  23.740  0.00  0.00    +0.178 C 
ENDBRANCH  29  13
ENDBRANCH   4  24
ENDBRANCH  20   4
ENDBRANCH  17   9
BRANCH  16   8
ATOM      8  N   UNL     1       1.383  -0.757  23.508  0.00  0.00    -0.182 NA
ATOM     38  H   UNL     1       1.779  -1.165  24.364  0.00  0.00    +0.148 HD
BRANCH   8   1
ATOM      1  S   UNL     1       2.337   0.301  22.585  0.00  0.00    +0.059 S 
ATOM      5  O   UNL     1       2.021   1.672  22.941  0.00  0.00    -0.153 OA
ATOM      6  O   UNL     1       2.294  -0.121  21.198  0.00  0.00    -0.153 OA
BRANCH   1  21
ATOM     21  C   UNL     1       3.961  -0.056  23.182  0.00  0.00    +0.105 A 
ATOM     22  C   UNL     1       4.919   0.943  23.173  0.00  0.00    +0.029 A 
ATOM     23  C   UNL     1       4.247  -1.328  23.648  0.00  0.00    +0.029 A 
ATOM     25  C   UNL     1       6.202   0.661  23.645  0.00  0.00    +0.005 A 
ATOM     26  C   UNL     1       5.529  -1.610  24.119  0.00  0.00    +0.005 A 
ATOM     28  C   UNL     1       6.506  -0.615  24.117  0.00  0.00    -0.050 A 
ATOM     37  C   UNL     1       7.878  -0.917  24.620  0.00  0.00    +0.044 C 
ENDBRANCH   1  21
ENDBRANCH   8   1
ENDBRANCH  16   8
TORSDOF 7
ENDMDL
MODEL 5
REMARK VINA RESULT:       5.7      2.400      4.166
REMARK  Name = 11879614
REMARK  8 active torsions:
REMARK  status: ('A' for Active; 'I' for Inactive)
REMARK    1  A    between atoms: S_1  and  N_8
REMARK    2  A    between atoms: S_1  and  C_21
REMARK    3  A    between atoms: O_4  and  C_20
REMARK    4  A    between atoms: O_4  and  C_24
REMARK    5  A    between atoms: N_8  and  C_16
REMARK    6  A    between atoms: N_9  and  C_17
REMARK    7  A    between atoms: N_13  and  C_29
REMARK    8  A    between atoms: C_28  and  C_37
REMARK                            x       y       z     vdW  Elec       q    Type
REMARK                         _______ _______ _______ _____ _____    ______ ____
ROOT
ATOM      2  O   UNL     1      -1.656   1.772  23.407  0.00  0.00    -0.370 OA
ATOM      3  O   UNL     1      -0.480   0.709  26.081  0.00  0.00    -0.370 OA
ATOM     14  C   UNL     1      -0.093   0.543  24.711  0.00  0.00    +0.170 C 
ATOM     15  C   UNL     1      -1.380   0.453  23.916  0.00  0.00    +0.175 C 
ATOM     16  C   UNL     1       0.574   1.799  24.210  0.00  0.00    +0.133 C 
ATOM     17  C   UNL     1      -2.447   0.051  24.928  0.00  0.00    +0.171 C 
ATOM     18  C   UNL     1      -0.607   2.663  23.814  0.00  0.00    +0.183 C 
ATOM     19  C   UNL     1      -1.711   0.003  26.265  0.00  0.00    +0.190 C 
ENDROOT
BRANCH  17   9
ATOM      9  N   UNL     1      -3.142  -1.192  24.603  0.00  0.00    -0.187 N 
ATOM     10  N   UNL     1      -2.542  -2.375  24.762  0.00  0.00    -0.041 NA
ATOM     11  N   UNL     1      -4.611  -2.649  23.980  0.00  0.00    -0.071 NA
ATOM     12  N   UNL     1      -3.447  -3.267  24.378  0.00  0.00    -0.020 NA
ATOM     20  C   UNL     1      -4.398  -1.362  24.128  0.00  0.00    +0.342 A 
BRANCH  20   4
ATOM      4  O   UNL     1      -5.247  -0.386  23.866  0.00  0.00    -0.423 OA
BRANCH   4  24
ATOM     24  C   UNL     1      -5.319   0.768  24.634  0.00  0.00    +0.134 A 
ATOM     27  C   UNL     1      -4.355   1.745  24.471  0.00  0.00    +0.069 A 
ATOM     29  C   UNL     1      -4.428   2.904  25.241  0.00  0.00    +0.033 A 
ATOM     32  C   UNL     1      -6.353   0.907  25.540  0.00  0.00    +0.046 A 
ATOM     35  C   UNL     1      -5.464   3.066  26.162  0.00  0.00    +0.023 A 
ATOM     36  C   UNL     1      -6.427   2.068  26.311  0.00  0.00    +0.005 A 
BRANCH  29  13
ATOM      7  O   UNL     1      -1.694   6.084  24.934  0.00  0.00    -0.377 OA
ATOM     13  N   UNL     1      -3.463   3.906  25.092  0.00  0.00    -0.325 N 
ATOM     30  C   UNL     1      -2.485   4.145  26.159  0.00  0.00    +0.133 C 
ATOM     31  C   UNL     1      -3.805   5.083  24.282  0.00  0.00    +0.133 C 
ATOM     33  C   UNL     1      -1.280   4.889  25.597  0.00  0.00    +0.178 C 
ATOM     34  C   UNL     1      -2.529   5.776  23.818  0.00  0.00    +0.178 C 
ENDBRANCH  29  13
ENDBRANCH   4  24
ENDBRANCH  20   4
ENDBRANCH  17   9
BRANCH  16   8
ATOM      8  N   UNL     1       1.396   1.495  23.015  0.00  0.00    -0.182 NA
ATOM     38  H   UNL     1       1.393   2.201  22.267  0.00  0.00    +0.148 HD
BRANCH   8   1
ATOM      1  S   UNL     1       1.750  -0.117  22.621  0.00  0.00    +0.059 S 
ATOM      5  O   UNL     1       1.646  -0.299  21.186  0.00  0.00    -0.153 OA
ATOM      6  O   UNL     1       1.020  -0.989  23.522  0.00  0.00    -0.153 OA
BRANCH   1  21
ATOM     21  C   UNL     1       3.457  -0.235  23.062  0.00  0.00    +0.105 A 
ATOM     22  C   UNL     1       4.287   0.852  22.847  0.00  0.00    +0.029 A 
ATOM     23  C   UNL     1       3.934  -1.411  23.615  0.00  0.00    +0.029 A 
ATOM     25  C   UNL     1       5.634   0.759  23.195  0.00  0.00    +0.005 A 
ATOM     26  C   UNL     1       5.282  -1.504  23.963  0.00  0.00    +0.005 A 
ATOM     28  C   UNL     1       6.132  -0.419  23.752  0.00  0.00    -0.050 A 
ATOM     37  C   UNL     1       7.573  -0.518  24.123  0.00  0.00    +0.044 C 
ENDBRANCH   1  21
ENDBRANCH   8   1
ENDBRANCH  16   8
TORSDOF 7
ENDMDL
MODEL 6
REMARK VINA RESULT:       6.3      2.493      6.401
REMARK  Name = 11879614
REMARK  8 active torsions:
REMARK  status: ('A' for Active; 'I' for Inactive)
REMARK    1  A    between atoms: S_1  and  N_8
REMARK    2  A    between atoms: S_1  and  C_21
REMARK    3  A    between atoms: O_4  and  C_20
REMARK    4  A    between atoms: O_4  and  C_24
REMARK    5  A    between atoms: N_8  and  C_16
REMARK    6  A    between atoms: N_9  and  C_17
REMARK    7  A    between atoms: N_13  and  C_29
REMARK    8  A    between atoms: C_28  and  C_37
REMARK                            x       y       z     vdW  Elec       q    Type
REMARK                         _______ _______ _______ _____ _____    ______ ____
ROOT
ATOM      2  O   UNL     1      -2.643  -0.176  23.624  0.00  0.00    -0.370 OA
ATOM      3  O   UNL     1      -3.214  -1.210  26.499  0.00  0.00    -0.370 OA
ATOM     14  C   UNL     1      -3.791  -0.164  25.707  0.00  0.00    +0.170 C 
ATOM     15  C   UNL     1      -2.649   0.449  24.922  0.00  0.00    +0.175 C 
ATOM     16  C   UNL     1      -4.696  -0.755  24.657  0.00  0.00    +0.133 C 
ATOM     17  C   UNL     1      -1.387   0.068  25.689  0.00  0.00    +0.171 C 
ATOM     18  C   UNL     1      -3.725  -1.115  23.550  0.00  0.00    +0.183 C 
ATOM     19  C   UNL     1      -1.884  -0.806  26.838  0.00  0.00    +0.190 C 
ENDROOT
BRANCH  17   9
ATOM      9  N   UNL     1      -0.588   1.209  26.131  0.00  0.00    -0.187 N 
ATOM     10  N   UNL     1      -0.402   1.453  27.432  0.00  0.00    -0.041 NA
ATOM     11  N   UNL     1       0.646   2.982  26.193  0.00  0.00    -0.071 NA
ATOM     12  N   UNL     1       0.356   2.542  27.465  0.00  0.00    -0.020 NA
ATOM     20  C   UNL     1       0.050   2.139  25.382  0.00  0.00    +0.342 A 
BRANCH  20   4
ATOM      4  O   UNL     1       0.057   2.173  24.063  0.00  0.00    -0.423 OA
BRANCH   4  24
ATOM     24  C   UNL     1       0.722   1.227  23.294  0.00  0.00    +0.134 A 
ATOM     27  C   UNL     1       2.029   0.908  23.605  0.00  0.00    +0.069 A 
ATOM     29  C   UNL     1       2.696  -0.044  22.835  0.00  0.00    +0.033 A 
ATOM     32  C   UNL     1       0.055   0.631  22.241  0.00  0.00    +0.046 A 
ATOM     35  C   UNL     1       2.042  -0.659  21.766  0.00  0.00    +0.023 A 
ATOM     36  C   UNL     1       0.722  -0.321  21.469  0.00  0.00    +0.005 A 
BRANCH  29  13
ATOM      7  O   UNL     1       6.645  -0.937  23.971  0.00  0.00    -0.377 OA
ATOM     13  N   UNL     1       4.020  -0.383  23.132  0.00  0.00    -0.325 N 
ATOM     30  C   UNL     1       4.309  -1.589  23.916  0.00  0.00    +0.133 C 
ATOM     31  C   UNL     1       4.999   0.703  23.275  0.00  0.00    +0.133 C 
ATOM     33  C   UNL     1       5.754  -2.016  23.691  0.00  0.00    +0.178 C 
ATOM     34  C   UNL     1       6.408   0.154  23.082  0.00  0.00    +0.178 C 
ENDBRANCH  29  13
ENDBRANCH   4  24
ENDBRANCH  20   4
ENDBRANCH  17   9
BRANCH  16   8
ATOM      8  N   UNL     1      -5.650   0.271  24.173  0.00  0.00    -0.182 NA
ATOM     38  H   UNL     1      -5.670   0.434  23.158  0.00  0.00    +0.148 HD
BRANCH   8   1
ATOM      1  S   UNL     1      -6.154   1.513  25.215  0.00  0.00    +0.059 S 
ATOM      5  O   UNL     1      -6.220   1.007  26.573  0.00  0.00    -0.153 OA
ATOM      6  O   UNL     1      -7.301   2.177  24.628  0.00  0.00    -0.153 OA
BRANCH   1  21
ATOM     21  C   UNL     1      -4.799   2.643  25.120  0.00  0.00    +0.105 A 
ATOM     22  C   UNL     1      -4.246   2.932  23.884  0.00  0.00    +0.029 A 
ATOM     23  C   UNL     1      -4.316   3.220  26.282  0.00  0.00    +0.029 A 
ATOM     25  C   UNL     1      -3.176   3.824  23.809  0.00  0.00    +0.005 A 
ATOM     26  C   UNL     1      -3.246   4.112  26.206  0.00  0.00    +0.005 A 
ATOM     28  C   UNL     1      -2.676   4.413  24.970  0.00  0.00    -0.050 A 
ATOM     37  C   UNL     1      -1.532   5.367  24.889  0.00  0.00    +0.044 C 
ENDBRANCH   1  21
ENDBRANCH   8   1
ENDBRANCH  16   8
TORSDOF 7
ENDMDL
MODEL 7
REMARK VINA RESULT:       7.5      2.574      6.597
REMARK  Name = 11879614
REMARK  8 active torsions:
REMARK  status: ('A' for Active; 'I' for Inactive)
REMARK    1  A    between atoms: S_1  and  N_8
REMARK    2  A    between atoms: S_1  and  C_21
REMARK    3  A    between atoms: O_4  and  C_20
REMARK    4  A    between atoms: O_4  and  C_24
REMARK    5  A    between atoms: N_8  and  C_16
REMARK    6  A    between atoms: N_9  and  C_17
REMARK    7  A    between atoms: N_13  and  C_29
REMARK    8  A    between atoms: C_28  and  C_37
REMARK                            x       y       z     vdW  Elec       q    Type
REMARK                         _______ _______ _______ _____ _____    ______ ____
ROOT
ATOM      2  O   UNL     1      -4.123   3.555  26.497  0.00  0.00    -0.370 OA
ATOM      3  O   UNL     1      -2.676   5.172  24.271  0.00  0.00    -0.370 OA
ATOM     14  C   UNL     1      -3.284   3.874  24.295  0.00  0.00    +0.170 C 
ATOM     15  C   UNL     1      -2.981   3.290  25.660  0.00  0.00    +0.175 C 
ATOM     16  C   UNL     1      -4.785   4.010  24.268  0.00  0.00    +0.133 C 
ATOM     17  C   UNL     1      -1.772   4.069  26.168  0.00  0.00    +0.171 C 
ATOM     18  C   UNL     1      -5.121   4.240  25.727  0.00  0.00    +0.183 C 
ATOM     19  C   UNL     1      -1.498   5.106  25.081  0.00  0.00    +0.190 C 
ENDROOT
BRANCH  17   9
ATOM      9  N   UNL     1      -0.612   3.236  26.481  0.00  0.00    -0.187 N 
ATOM     10  N   UNL     1       0.113   3.457  27.581  0.00  0.00    -0.041 NA
ATOM     11  N   UNL     1       0.943   1.738  26.430  0.00  0.00    -0.071 NA
ATOM     12  N   UNL     1       1.066   2.534  27.547  0.00  0.00    -0.020 NA
ATOM     20  C   UNL     1      -0.105   2.192  25.784  0.00  0.00    +0.342 A 
BRANCH  20   4
ATOM      4  O   UNL     1      -0.597   1.728  24.651  0.00  0.00    -0.423 OA
BRANCH   4  24
ATOM     24  C   UNL     1       0.152   0.957  23.771  0.00  0.00    +0.134 A 
ATOM     27  C   UNL     1       1.510   0.820  23.988  0.00  0.00    +0.069 A 
ATOM     29  C   UNL     1       2.261   0.045  23.106  0.00  0.00    +0.033 A 
ATOM     32  C   UNL     1      -0.483   0.350  22.705  0.00  0.00    +0.046 A 
ATOM     35  C   UNL     1       1.641  -0.578  22.022  0.00  0.00    +0.023 A 
ATOM     36  C   UNL     1       0.269  -0.425  21.822  0.00  0.00    +0.005 A 
BRANCH  29  13
ATOM      7  O   UNL     1       6.407  -0.554  23.470  0.00  0.00    -0.377 OA
ATOM     13  N   UNL     1       3.637  -0.109  23.307  0.00  0.00    -0.325 N 
ATOM     30  C   UNL     1       4.577   0.834  22.689  0.00  0.00    +0.133 C 
ATOM     31  C   UNL     1       4.160  -1.465  23.517  0.00  0.00    +0.133 C 
ATOM     33  C   UNL     1       5.912   0.784  23.421  0.00  0.00    +0.178 C 
ATOM     34  C   UNL     1       5.518  -1.391  24.207  0.00  0.00    +0.178 C 
ENDBRANCH  29  13
ENDBRANCH   4  24
ENDBRANCH  20   4
ENDBRANCH  17   9
BRANCH  16   8
ATOM      8  N   UNL     1      -5.401   2.744  23.804  0.00  0.00    -0.182 NA
ATOM     38  H   UNL     1      -5.808   2.753  22.860  0.00  0.00    +0.148 HD
BRANCH   8   1
ATOM      1  S   UNL     1      -5.981   1.622  24.939  0.00  0.00    +0.059 S 
ATOM      5  O   UNL     1      -7.252   1.090  24.485  0.00  0.00    -0.153 OA
ATOM      6  O   UNL     1      -5.862   2.196  26.265  0.00  0.00    -0.153 OA
BRANCH   1  21
ATOM     21  C   UNL     1      -4.778   0.333  24.826  0.00  0.00    +0.105 A 
ATOM     22  C   UNL     1      -4.929  -0.649  23.861  0.00  0.00    +0.029 A 
ATOM     23  C   UNL     1      -3.708   0.326  25.704  0.00  0.00    +0.029 A 
ATOM     25  C   UNL     1      -3.980  -1.667  23.772  0.00  0.00    +0.005 A 
ATOM     26  C   UNL     1      -2.759  -0.692  25.614  0.00  0.00    +0.005 A 
ATOM     28  C   UNL     1      -2.895  -1.689  24.649  0.00  0.00    -0.050 A 
ATOM     37  C   UNL     1      -1.881  -2.778  24.554  0.00  0.00    +0.044 C 
ENDBRANCH   1  21
ENDBRANCH   8   1
ENDBRANCH  16   8
TORSDOF 7
ENDMDL
MODEL 8
REMARK VINA RESULT:       7.7      2.375      6.091
REMARK  Name = 11879614
REMARK  8 active torsions:
REMARK  status: ('A' for Active; 'I' for Inactive)
REMARK    1  A    between atoms: S_1  and  N_8
REMARK    2  A    between atoms: S_1  and  C_21
REMARK    3  A    between atoms: O_4  and  C_20
REMARK    4  A    between atoms: O_4  and  C_24
REMARK    5  A    between atoms: N_8  and  C_16
REMARK    6  A    between atoms: N_9  and  C_17
REMARK    7  A    between atoms: N_13  and  C_29
REMARK    8  A    between atoms: C_28  and  C_37
REMARK                            x       y       z     vdW  Elec       q    Type
REMARK                         _______ _______ _______ _____ _____    ______ ____
ROOT
ATOM      2  O   UNL     1      -1.674  -1.942  23.450  0.00  0.00    -0.370 OA
ATOM      3  O   UNL     1      -0.131  -2.406  26.107  0.00  0.00    -0.370 OA
ATOM     14  C   UNL     1      -1.027  -1.378  25.667  0.00  0.00    +0.170 C 
ATOM     15  C   UNL     1      -0.726  -1.157  24.198  0.00  0.00    +0.175 C 
ATOM     16  C   UNL     1      -2.445  -1.888  25.690  0.00  0.00    +0.133 C 
ATOM     17  C   UNL     1       0.682  -1.704  23.992  0.00  0.00    +0.171 C 
ATOM     18  C   UNL     1      -2.556  -2.611  24.362  0.00  0.00    +0.183 C 
ATOM     19  C   UNL     1       1.078  -2.273  25.352  0.00  0.00    +0.190 C 
ENDROOT
BRANCH  17   9
ATOM      9  N   UNL     1       1.635  -0.725  23.473  0.00  0.00    -0.187 N 
ATOM     10  N   UNL     1       2.921  -1.044  23.300  0.00  0.00    -0.041 NA
ATOM     11  N   UNL     1       2.554   1.071  22.699  0.00  0.00    -0.071 NA
ATOM     12  N   UNL     1       3.481   0.061  22.825  0.00  0.00    -0.020 NA
ATOM     20  C   UNL     1       1.416   0.560  23.107  0.00  0.00    +0.342 A 
BRANCH  20   4
ATOM      4  O   UNL     1       0.248   1.174  23.159  0.00  0.00    -0.423 OA
BRANCH   4  24
ATOM     24  C   UNL     1      -0.093   2.044  24.186  0.00  0.00    +0.134 A 
ATOM     27  C   UNL     1       0.574   1.953  25.392  0.00  0.00    +0.069 A 
ATOM     29  C   UNL     1       0.233   2.827  26.423  0.00  0.00    +0.033 A 
ATOM     32  C   UNL     1      -1.090   2.975  23.971  0.00  0.00    +0.046 A 
ATOM     35  C   UNL     1      -0.771   3.777  26.228  0.00  0.00    +0.023 A 
ATOM     36  C   UNL     1      -1.433   3.851  25.003  0.00  0.00    +0.005 A 
BRANCH  29  13
ATOM      7  O   UNL     1       2.255   2.335  30.077  0.00  0.00    -0.377 OA
ATOM     13  N   UNL     1       0.896   2.754  27.653  0.00  0.00    -0.325 N 
ATOM     30  C   UNL     1       2.362   2.799  27.698  0.00  0.00    +0.133 C 
ATOM     31  C   UNL     1       0.261   1.996  28.739  0.00  0.00    +0.133 C 
ATOM     33  C   UNL     1       2.822   3.201  29.093  0.00  0.00    +0.178 C 
ATOM     34  C   UNL     1       0.832   2.443  30.080  0.00  0.00    +0.178 C 
ENDBRANCH  29  13
ENDBRANCH   4  24
ENDBRANCH  20   4
ENDBRANCH  17   9
BRANCH  16   8
ATOM      8  N   UNL     1      -3.393  -0.750  25.722  0.00  0.00    -0.182 NA
ATOM     38  H   UNL     1      -3.823  -0.539  26.632  0.00  0.00    +0.148 HD
BRANCH   8   1
ATOM      1  S   UNL     1      -4.201  -0.283  24.304  0.00  0.00    +0.059 S 
ATOM      5  O   UNL     1      -5.365  -1.127  24.111  0.00  0.00    -0.153 OA
ATOM      6  O   UNL     1      -3.226  -0.129  23.241  0.00  0.00    -0.153 OA
BRANCH   1  21
ATOM     21  C   UNL     1      -4.767   1.338  24.722  0.00  0.00    +0.105 A 
ATOM     22  C   UNL     1      -4.284   2.425  24.017  0.00  0.00    +0.029 A 
ATOM     23  C   UNL     1      -5.685   1.490  25.747  0.00  0.00    +0.029 A 
ATOM     25  C   UNL     1      -4.731   3.705  24.346  0.00  0.00    +0.005 A 
ATOM     26  C   UNL     1      -6.132   2.769  26.077  0.00  0.00    +0.005 A 
ATOM     28  C   UNL     1      -5.655   3.877  25.377  0.00  0.00    -0.050 A 
ATOM     37  C   UNL     1      -6.132   5.245  25.731  0.00  0.00    +0.044 C 
ENDBRANCH   1  21
ENDBRANCH   8   1
ENDBRANCH  16   8
TORSDOF 7
ENDMDL
MODEL 9
REMARK VINA RESULT:       7.9      2.497      5.742
REMARK  Name = 11879614
REMARK  8 active torsions:
REMARK  status: ('A' for Active; 'I' for Inactive)
REMARK    1  A    between atoms: S_1  and  N_8
REMARK    2  A    between atoms: S_1  and  C_21
REMARK    3  A    between atoms: O_4  and  C_20
REMARK    4  A    between atoms: O_4  and  C_24
REMARK    5  A    between atoms: N_8  and  C_16
REMARK    6  A    between atoms: N_9  and  C_17
REMARK    7  A    between atoms: N_13  and  C_29
REMARK    8  A    between atoms: C_28  and  C_37
REMARK                            x       y       z     vdW  Elec       q    Type
REMARK                         _______ _______ _______ _____ _____    ______ ____
ROOT
ATOM      2  O   UNL     1      -5.789   0.192  24.920  0.00  0.00    -0.370 OA
ATOM      3  O   UNL     1      -3.101   0.873  26.324  0.00  0.00    -0.370 OA
ATOM     14  C   UNL     1      -3.631   1.186  25.030  0.00  0.00    +0.170 C 
ATOM     15  C   UNL     1      -4.407  -0.038  24.585  0.00  0.00    +0.175 C 
ATOM     16  C   UNL     1      -4.672   2.270  25.150  0.00  0.00    +0.133 C 
ATOM     17  C   UNL     1      -3.853  -1.187  25.419  0.00  0.00    +0.171 C 
ATOM     18  C   UNL     1      -5.918   1.490  25.518  0.00  0.00    +0.183 C 
ATOM     19  C   UNL     1      -2.833  -0.533  26.348  0.00  0.00    +0.190 C 
ENDROOT
BRANCH  17   9
ATOM      9  N   UNL     1      -3.299  -2.286  24.631  0.00  0.00    -0.187 N 
ATOM     10  N   UNL     1      -4.095  -3.219  24.100  0.00  0.00    -0.041 NA
ATOM     11  N   UNL     1      -1.963  -3.632  23.596  0.00  0.00    -0.071 NA
ATOM     12  N   UNL     1      -3.270  -4.043  23.465  0.00  0.00    -0.020 NA
ATOM     20  C   UNL     1      -2.005  -2.540  24.323  0.00  0.00    +0.342 A 
BRANCH  20   4
ATOM      4  O   UNL     1      -0.978  -1.803  24.701  0.00  0.00    -0.423 OA
BRANCH   4  24
ATOM     24  C   UNL     1      -0.146  -1.159  23.794  0.00  0.00    +0.134 A 
ATOM     27  C   UNL     1       1.206  -1.074  24.067  0.00  0.00    +0.069 A 
ATOM     29  C   UNL     1       2.041  -0.430  23.156  0.00  0.00    +0.033 A 
ATOM     32  C   UNL     1      -0.695  -0.623  22.645  0.00  0.00    +0.046 A 
ATOM     35  C   UNL     1       1.508   0.119  21.988  0.00  0.00    +0.023 A 
ATOM     36  C   UNL     1       0.141   0.022  21.733  0.00  0.00    +0.005 A 
BRANCH  29  13
ATOM      7  O   UNL     1       6.209  -0.277  23.689  0.00  0.00    -0.377 OA
ATOM     13  N   UNL     1       3.413  -0.332  23.411  0.00  0.00    -0.325 N 
ATOM     30  C   UNL     1       4.198   0.742  22.793  0.00  0.00    +0.133 C 
ATOM     31  C   UNL     1       4.156  -1.569  23.688  0.00  0.00    +0.133 C 
ATOM     33  C   UNL     1       5.490   0.950  23.574  0.00  0.00    +0.178 C 
ATOM     34  C   UNL     1       5.450  -1.237  24.423  0.00  0.00    +0.178 C 
ENDBRANCH  29  13
ENDBRANCH   4  24
ENDBRANCH  20   4
ENDBRANCH  17   9
BRANCH  16   8
ATOM      8  N   UNL     1      -4.865   2.935  23.840  0.00  0.00    -0.182 NA
ATOM     38  H   UNL     1      -5.619   2.564  23.246  0.00  0.00    +0.148 HD
BRANCH   8   1
ATOM      1  S   UNL     1      -3.570   3.753  23.109  0.00  0.00    +0.059 S 
ATOM      5  O   UNL     1      -3.834   5.179  23.116  0.00  0.00    -0.153 OA
ATOM      6  O   UNL     1      -3.232   3.079  21.870  0.00  0.00    -0.153 OA
BRANCH   1  21
ATOM     21  C   UNL     1      -2.251   3.438  24.242  0.00  0.00    +0.105 A 
ATOM     22  C   UNL     1      -2.271   4.042  25.487  0.00  0.00    +0.029 A 
ATOM     23  C   UNL     1      -1.222   2.591  23.865  0.00  0.00    +0.029 A 
ATOM     25  C   UNL     1      -1.231   3.793  26.382  0.00  0.00    +0.005 A 
ATOM     26  C   UNL     1      -0.182   2.343  24.760  0.00  0.00    +0.005 A 
ATOM     28  C   UNL     1      -0.186   2.944  26.018  0.00  0.00    -0.050 A 
ATOM     37  C   UNL     1       0.927   2.679  26.975  0.00  0.00    +0.044 C 
ENDBRANCH   1  21
ENDBRANCH   8   1
ENDBRANCH  16   8
TORSDOF 7
ENDMDL
MODEL 10
REMARK VINA RESULT:       8.1      2.593      5.822
REMARK  Name = 11879614
REMARK  8 active torsions:
REMARK  status: ('A' for Active; 'I' for Inactive)
REMARK    1  A    between atoms: S_1  and  N_8
REMARK    2  A    between atoms: S_1  and  C_21
REMARK    3  A    between atoms: O_4  and  C_20
REMARK    4  A    between atoms: O_4  and  C_24
REMARK    5  A    between atoms: N_8  and  C_16
REMARK    6  A    between atoms: N_9  and  C_17
REMARK    7  A    between atoms: N_13  and  C_29
REMARK    8  A    between atoms: C_28  and  C_37
REMARK                            x       y       z     vdW  Elec       q    Type
REMARK                         _______ _______ _______ _____ _____    ______ ____
ROOT
ATOM      2  O   UNL     1      -3.449   1.778  23.758  0.00  0.00    -0.370 OA
ATOM      3  O   UNL     1      -6.077   0.312  24.536  0.00  0.00    -0.370 OA
ATOM     14  C   UNL     1      -5.104   1.039  25.297  0.00  0.00    +0.170 C 
ATOM     15  C   UNL     1      -3.758   0.716  24.680  0.00  0.00    +0.175 C 
ATOM     16  C   UNL     1      -5.278   2.519  25.071  0.00  0.00    +0.133 C 
ATOM     17  C   UNL     1      -3.970  -0.589  23.920  0.00  0.00    +0.171 C 
ATOM     18  C   UNL     1      -4.506   2.749  23.787  0.00  0.00    +0.183 C 
ATOM     19  C   UNL     1      -5.455  -0.899  24.092  0.00  0.00    +0.190 C 
ENDROOT
BRANCH  17   9
ATOM      9  N   UNL     1      -3.096  -1.680  24.347  0.00  0.00    -0.187 N 
ATOM     10  N   UNL     1      -3.585  -2.904  24.567  0.00  0.00    -0.041 NA
ATOM     11  N   UNL     1      -1.389  -2.860  24.944  0.00  0.00    -0.071 NA
ATOM     12  N   UNL     1      -2.533  -3.626  24.933  0.00  0.00    -0.020 NA
ATOM     20  C   UNL     1      -1.763  -1.657  24.577  0.00  0.00    +0.342 A 
BRANCH  20   4
ATOM      4  O   UNL     1      -0.990  -0.595  24.448  0.00  0.00    -0.423 OA
BRANCH   4  24
ATOM     24  C   UNL     1       0.004  -0.507  23.483  0.00  0.00    +0.134 A 
ATOM     27  C   UNL     1       1.325  -0.448  23.884  0.00  0.00    +0.069 A 
ATOM     29  C   UNL     1       2.324  -0.360  22.914  0.00  0.00    +0.033 A 
ATOM     32  C   UNL     1      -0.356  -0.481  22.149  0.00  0.00    +0.046 A 
ATOM     35  C   UNL     1       1.982  -0.334  21.562  0.00  0.00    +0.023 A 
ATOM     36  C   UNL     1       0.643  -0.394  21.179  0.00  0.00    +0.005 A 
BRANCH  29  13
ATOM      7  O   UNL     1       6.426  -0.317  23.835  0.00  0.00    -0.377 OA
ATOM     13  N   UNL     1       3.668  -0.300  23.297  0.00  0.00    -0.325 N 
ATOM     30  C   UNL     1       4.532   0.763  22.772  0.00  0.00    +0.133 C 
ATOM     31  C   UNL     1       4.353  -1.558  23.624  0.00  0.00    +0.133 C 
ATOM     33  C   UNL     1       5.750   0.929  23.673  0.00  0.00    +0.178 C 
ATOM     34  C   UNL     1       5.580  -1.267  24.481  0.00  0.00    +0.178 C 
ENDBRANCH  29  13
ENDBRANCH   4  24
ENDBRANCH  20   4
ENDBRANCH  17   9
BRANCH  16   8
ATOM      8  N   UNL     1      -4.648   3.278  26.177  0.00  0.00    -0.182 NA
ATOM     38  H   UNL     1      -5.076   3.171  27.106  0.00  0.00    +0.148 HD
BRANCH   8   1
ATOM      1  S   UNL     1      -3.762   4.686  25.838  0.00  0.00    +0.059 S 
ATOM      5  O   UNL     1      -3.575   5.445  27.060  0.00  0.00    -0.153 OA
ATOM      6  O   UNL     1      -4.326   5.321  24.663  0.00  0.00    -0.153 OA
BRANCH   1  21
ATOM     21  C   UNL     1      -2.193   4.025  25.363  0.00  0.00    +0.105 A 
ATOM     22  C   UNL     1      -1.540   4.558  24.266  0.00  0.00    +0.029 A 
ATOM     23  C   UNL     1      -1.646   2.986  26.097  0.00  0.00    +0.029 A 
ATOM     25  C   UNL     1      -0.301   4.037  23.891  0.00  0.00    +0.005 A 
ATOM     26  C   UNL     1      -0.408   2.464  25.722  0.00  0.00    +0.005 A 
ATOM     28  C   UNL     1       0.264   2.990  24.618  0.00  0.00    -0.050 A 
ATOM     37  C   UNL     1       1.587   2.431  24.217  0.00  0.00    +0.044 C 
ENDBRANCH   1  21
ENDBRANCH   8   1
ENDBRANCH  16   8
TORSDOF 7
ENDMDL
