MODEL 1
REMARK VINA RESULT:      -1.2      0.000      0.000
REMARK  Name = 26762303
REMARK  10 active torsions:
REMARK  status: ('A' for Active; 'I' for Inactive)
REMARK    1  A    between atoms: S_1  and  N_9
REMARK    2  A    between atoms: S_1  and  C_21
REMARK    3  A    between atoms: O_6  and  C_27
REMARK    4  A    between atoms: O_6  and  C_33
REMARK    5  A    between atoms: N_9  and  C_12
REMARK    6  A    between atoms: N_10  and  C_24
REMARK    7  A    between atoms: C_14  and  C_18
REMARK    8  A    between atoms: C_18  and  C_19
REMARK    9  A    between atoms: C_19  and  C_20
REMARK   10  A    between atoms: C_24  and  C_28
REMARK                            x       y       z     vdW  Elec       q    Type
REMARK                         _______ _______ _______ _____ _____    ______ ____
ROOT
ATOM      2  O   UNL     1       1.154   2.741  26.211  0.00  0.00    -0.274 OA
ATOM      7  N   UNL     1      -2.253   2.314  25.088  0.00  0.00    -0.285 NA
ATOM      8  N   UNL     1      -0.402   4.326  25.700  0.00  0.00    -0.313 N 
ATOM     11  C   UNL     1      -1.106   1.964  25.926  0.00  0.00    +0.145 C 
ATOM     12  C   UNL     1      -1.029   0.746  23.833  0.00  0.00    +0.092 C 
ATOM     13  C   UNL     1      -0.645   0.647  25.310  0.00  0.00    +0.050 C 
ATOM     14  C   UNL     1      -2.763   3.656  25.364  0.00  0.00    +0.075 C 
ATOM     15  C   UNL     1      -1.878   2.010  23.708  0.00  0.00    +0.106 C 
ATOM     16  C   UNL     1      -1.688   4.718  25.163  0.00  0.00    +0.123 C 
ATOM     17  C   UNL     1      -0.011   3.025  25.927  0.00  0.00    +0.230 C 
ATOM     35  H   UNL     1       0.315   5.044  25.758  0.00  0.00    +0.149 HD
ENDROOT
BRANCH  12   9
ATOM      9  N   UNL     1       0.183   0.865  22.991  0.00  0.00    -0.186 NA
ATOM     36  H   UNL     1       0.309   1.760  22.501  0.00  0.00    +0.148 HD
BRANCH   9   1
ATOM      1  S   UNL     1       0.910  -0.531  22.356  0.00  0.00    +0.059 S 
ATOM      3  O   UNL     1       0.844  -0.495  20.907  0.00  0.00    -0.153 OA
ATOM      4  O   UNL     1       0.416  -1.686  23.080  0.00  0.00    -0.153 OA
BRANCH   1  21
ATOM     21  C   UNL     1       2.599  -0.309  22.830  0.00  0.00    +0.105 A 
ATOM     22  C   UNL     1       3.252   0.889  22.543  0.00  0.00    +0.032 A 
ATOM     23  C   UNL     1       3.278  -1.333  23.491  0.00  0.00    +0.032 A 
ATOM     25  C   UNL     1       4.585   1.064  22.917  0.00  0.00    +0.047 A 
ATOM     26  C   UNL     1       4.611  -1.158  23.864  0.00  0.00    +0.047 A 
ATOM     27  C   UNL     1       5.263   0.041  23.578  0.00  0.00    +0.120 A 
BRANCH  27   6
ATOM      6  O   UNL     1       6.564   0.211  23.941  0.00  0.00    -0.495 OA
ATOM     33  C   UNL     1       7.554  -0.410  23.122  0.00  0.00    +0.277 C 
ENDBRANCH  27   6
ENDBRANCH   1  21
ENDBRANCH   9   1
ENDBRANCH  12   9
BRANCH  14  18
ATOM     18  C   UNL     1      -4.017   3.980  24.549  0.00  0.00    +0.029 C 
BRANCH  18  19
ATOM     19  C   UNL     1      -5.263   3.943  25.423  0.00  0.00    +0.097 C 
BRANCH  19  20
ATOM      5  O   UNL     1      -6.514   2.187  26.523  0.00  0.00    -0.276 OA
ATOM     10  N   UNL     1      -5.393   1.706  24.548  0.00  0.00    -0.311 N 
ATOM     20  C   UNL     1      -5.804   2.533  25.584  0.00  0.00    +0.213 C 
ATOM     37  H   UNL     1      -4.811   2.078  23.804  0.00  0.00    +0.149 HD
BRANCH  10  24
ATOM     24  C   UNL     1      -5.776   0.316  24.474  0.00  0.00    +0.139 C 
BRANCH  24  28
ATOM     28  C   UNL     1      -4.618  -0.601  24.744  0.00  0.00    -0.030 A 
ATOM     29  C   UNL     1      -4.193  -1.494  23.761  0.00  0.00    +0.005 A 
ATOM     30  C   UNL     1      -3.967  -0.559  25.977  0.00  0.00    +0.005 A 
ATOM     31  C   UNL     1      -3.117  -2.346  24.011  0.00  0.00    +0.000 A 
ATOM     32  C   UNL     1      -2.892  -1.411  26.227  0.00  0.00    +0.000 A 
ATOM     34  C   UNL     1      -2.467  -2.304  25.244  0.00  0.00    +0.000 A 
ENDBRANCH  24  28
ENDBRANCH  10  24
ENDBRANCH  19  20
ENDBRANCH  18  19
ENDBRANCH  14  18
TORSDOF 9
ENDMDL
MODEL 2
REMARK VINA RESULT:       0.4      2.174      7.334
REMARK  Name = 26762303
REMARK  10 active torsions:
REMARK  status: ('A' for Active; 'I' for Inactive)
REMARK    1  A    between atoms: S_1  and  N_9
REMARK    2  A    between atoms: S_1  and  C_21
REMARK    3  A    between atoms: O_6  and  C_27
REMARK    4  A    between atoms: O_6  and  C_33
REMARK    5  A    between atoms: N_9  and  C_12
REMARK    6  A    between atoms: N_10  and  C_24
REMARK    7  A    between atoms: C_14  and  C_18
REMARK    8  A    between atoms: C_18  and  C_19
REMARK    9  A    between atoms: C_19  and  C_20
REMARK   10  A    between atoms: C_24  and  C_28
REMARK                            x       y       z     vdW  Elec       q    Type
REMARK                         _______ _______ _______ _____ _____    ______ ____
ROOT
ATOM      2  O   UNL     1      -2.020   5.460  25.643  0.00  0.00    -0.274 OA
ATOM      7  N   UNL     1      -1.551   2.301  23.953  0.00  0.00    -0.285 NA
ATOM      8  N   UNL     1      -0.743   3.674  26.258  0.00  0.00    -0.313 N 
ATOM     11  C   UNL     1      -1.692   3.757  23.973  0.00  0.00    +0.145 C 
ATOM     12  C   UNL     1      -3.864   2.697  23.808  0.00  0.00    +0.092 C 
ATOM     13  C   UNL     1      -3.094   3.954  23.403  0.00  0.00    +0.050 C 
ATOM     14  C   UNL     1      -0.343   1.843  24.637  0.00  0.00    +0.075 C 
ATOM     15  C   UNL     1      -2.827   1.745  24.400  0.00  0.00    +0.106 C 
ATOM     16  C   UNL     1      -0.313   2.302  26.091  0.00  0.00    +0.123 C 
ATOM     17  C   UNL     1      -1.535   4.361  25.364  0.00  0.00    +0.230 C 
ATOM     35  H   UNL     1      -0.588   4.102  27.166  0.00  0.00    +0.149 HD
ENDROOT
BRANCH  12   9
ATOM      9  N   UNL     1      -4.889   3.024  24.825  0.00  0.00    -0.186 NA
ATOM     36  H   UNL     1      -4.676   3.817  25.445  0.00  0.00    +0.148 HD
BRANCH   9   1
ATOM      1  S   UNL     1      -5.958   1.822  25.366  0.00  0.00    +0.059 S 
ATOM      3  O   UNL     1      -7.085   1.732  24.457  0.00  0.00    -0.153 OA
ATOM      4  O   UNL     1      -6.181   2.000  26.788  0.00  0.00    -0.153 OA
BRANCH   1  21
ATOM     21  C   UNL     1      -4.986   0.358  25.175  0.00  0.00    +0.105 A 
ATOM     22  C   UNL     1      -4.144  -0.059  26.206  0.00  0.00    +0.032 A 
ATOM     23  C   UNL     1      -5.061  -0.381  23.994  0.00  0.00    +0.032 A 
ATOM     25  C   UNL     1      -3.376  -1.214  26.056  0.00  0.00    +0.047 A 
ATOM     26  C   UNL     1      -4.294  -1.536  23.844  0.00  0.00    +0.047 A 
ATOM     27  C   UNL     1      -3.452  -1.953  24.875  0.00  0.00    +0.120 A 
BRANCH  27   6
ATOM      6  O   UNL     1      -2.703  -3.079  24.729  0.00  0.00    -0.495 OA
ATOM     33  C   UNL     1      -1.287  -2.914  24.673  0.00  0.00    +0.277 C 
ENDBRANCH  27   6
ENDBRANCH   1  21
ENDBRANCH   9   1
ENDBRANCH  12   9
BRANCH  14  18
ATOM     18  C   UNL     1      -0.154   0.329  24.534  0.00  0.00    +0.029 C 
BRANCH  18  19
ATOM     19  C   UNL     1      -0.221  -0.134  23.085  0.00  0.00    +0.097 C 
BRANCH  19  20
ATOM      5  O   UNL     1       1.390  -0.561  21.330  0.00  0.00    -0.276 OA
ATOM     10  N   UNL     1       1.958   0.884  23.056  0.00  0.00    -0.311 N 
ATOM     20  C   UNL     1       1.113   0.018  22.375  0.00  0.00    +0.213 C 
ATOM     37  H   UNL     1       1.644   1.328  23.913  0.00  0.00    +0.149 HD
BRANCH  10  24
ATOM     24  C   UNL     1       3.286   1.194  22.583  0.00  0.00    +0.139 C 
BRANCH  24  28
ATOM     28  C   UNL     1       4.323   0.291  23.185  0.00  0.00    -0.030 A 
ATOM     29  C   UNL     1       3.998  -1.027  23.506  0.00  0.00    +0.005 A 
ATOM     30  C   UNL     1       5.612   0.769  23.423  0.00  0.00    +0.005 A 
ATOM     31  C   UNL     1       4.962  -1.867  24.064  0.00  0.00    +0.000 A 
ATOM     32  C   UNL     1       6.575  -0.070  23.981  0.00  0.00    +0.000 A 
ATOM     34  C   UNL     1       6.250  -1.388  24.302  0.00  0.00    +0.000 A 
ENDBRANCH  24  28
ENDBRANCH  10  24
ENDBRANCH  19  20
ENDBRANCH  18  19
ENDBRANCH  14  18
TORSDOF 9
ENDMDL
