MODEL 1
REMARK VINA RESULT:      23.4      0.000      0.000
REMARK  Name = 7134558
REMARK  4 active torsions:
REMARK  status: ('A' for Active; 'I' for Inactive)
REMARK    1  A    between atoms: N_9  and  C_14
REMARK    2  A    between atoms: N_10  and  C_27
REMARK    3  A    between atoms: C_19  and  C_24
REMARK    4  A    between atoms: C_34  and  C_37
REMARK                            x       y       z     vdW  Elec       q    Type
REMARK                         _______ _______ _______ _____ _____    ______ ____
ROOT
ATOM      7  O   UNL     1      -5.070   5.229  25.390  0.00  0.00    -0.276 OA
ATOM      9  N   UNL     1      -3.922   3.368  24.634  0.00  0.00    -0.312 N 
ATOM     24  C   UNL     1      -5.026   4.015  25.170  0.00  0.00    +0.216 C 
ATOM     38  H   UNL     1      -3.960   2.364  24.489  0.00  0.00    +0.149 HD
ENDROOT
BRANCH  24  19
ATOM     11  N   UNL     1      -5.362   0.360  24.903  0.00  0.00    -0.300 N 
ATOM     12  N   UNL     1      -4.150  -1.583  25.474  0.00  0.00    -0.210 NA
ATOM     13  N   UNL     1      -5.453  -1.497  23.449  0.00  0.00    -0.223 NA
ATOM     19  C   UNL     1      -6.170   3.091  25.469  0.00  0.00    +0.078 C 
ATOM     22  C   UNL     1      -6.615   2.361  24.204  0.00  0.00    +0.032 C 
ATOM     23  C   UNL     1      -5.818   2.106  26.582  0.00  0.00    +0.032 C 
ATOM     25  C   UNL     1      -5.642   1.262  23.779  0.00  0.00    +0.108 C 
ATOM     26  C   UNL     1      -4.872   0.990  26.133  0.00  0.00    +0.108 C 
ATOM     28  C   UNL     1      -4.976  -0.951  24.599  0.00  0.00    +0.218 A 
ATOM     34  C   UNL     1      -3.798  -2.844  25.150  0.00  0.00    +0.149 A 
ATOM     35  C   UNL     1      -5.061  -2.761  23.187  0.00  0.00    +0.116 A 
ATOM     36  C   UNL     1      -4.228  -3.491  24.009  0.00  0.00    +0.052 A 
BRANCH  34  37
ATOM      2  F   UNL     1      -3.247  -4.854  26.325  0.00  0.00    -0.164 F 
ATOM      3  F   UNL     1      -1.594  -3.605  25.681  0.00  0.00    -0.164 F 
ATOM      4  F   UNL     1      -2.858  -2.965  27.331  0.00  0.00    -0.164 F 
ATOM     37  C   UNL     1      -2.893  -3.554  26.100  0.00  0.00    +0.434 C 
ENDBRANCH  34  37
ENDBRANCH  24  19
BRANCH   9  14
ATOM      5  O   UNL     1      -0.192   0.918  22.159  0.00  0.00    -0.273 OA
ATOM      6  O   UNL     1       1.628   2.522  26.118  0.00  0.00    -0.252 OA
ATOM      8  N   UNL     1      -0.513   2.469  25.226  0.00  0.00    -0.273 N 
ATOM     10  N   UNL     1       1.129   1.531  24.026  0.00  0.00    -0.193 N 
ATOM     14  C   UNL     1      -2.700   4.051  24.277  0.00  0.00    +0.077 C 
ATOM     15  C   UNL     1      -1.188   2.028  24.037  0.00  0.00    +0.166 C 
ATOM     16  C   UNL     1      -1.847   3.202  23.318  0.00  0.00    +0.054 C 
ATOM     17  C   UNL     1      -1.906   4.450  25.532  0.00  0.00    +0.041 C 
ATOM     18  C   UNL     1      -1.245   3.247  26.210  0.00  0.00    +0.112 C 
ATOM     20  C   UNL     1      -0.029   1.427  23.261  0.00  0.00    +0.248 C 
ATOM     21  C   UNL     1       0.854   2.187  25.231  0.00  0.00    +0.316 C 
BRANCH  10  27
ATOM      1 CL   UNL     1       6.495  -0.432  22.382  0.00  0.00    -0.084 Cl
ATOM     27  C   UNL     1       2.420   1.058  23.630  0.00  0.00    +0.046 A 
ATOM     29  C   UNL     1       3.340   1.934  23.047  0.00  0.00    +0.025 A 
ATOM     30  C   UNL     1       2.768  -0.281  23.824  0.00  0.00    +0.025 A 
ATOM     31  C   UNL     1       4.599   1.473  22.662  0.00  0.00    +0.022 A 
ATOM     32  C   UNL     1       4.027  -0.741  23.439  0.00  0.00    +0.022 A 
ATOM     33  C   UNL     1       4.943   0.136  22.857  0.00  0.00    +0.041 A 
ENDBRANCH  10  27
ENDBRANCH   9  14
TORSDOF 4
ENDMDL
MODEL 2
REMARK VINA RESULT:      25.2      3.871      6.146
REMARK  Name = 7134558
REMARK  4 active torsions:
REMARK  status: ('A' for Active; 'I' for Inactive)
REMARK    1  A    between atoms: N_9  and  C_14
REMARK    2  A    between atoms: N_10  and  C_27
REMARK    3  A    between atoms: C_19  and  C_24
REMARK    4  A    between atoms: C_34  and  C_37
REMARK                            x       y       z     vdW  Elec       q    Type
REMARK                         _______ _______ _______ _____ _____    ______ ____
ROOT
ATOM      7  O   UNL     1      -1.401  -3.402  23.515  0.00  0.00    -0.276 OA
ATOM      9  N   UNL     1      -0.666  -1.209  23.590  0.00  0.00    -0.312 N 
ATOM     24  C   UNL     1      -1.434  -2.279  24.028  0.00  0.00    +0.216 C 
ATOM     38  H   UNL     1      -0.753  -0.314  24.059  0.00  0.00    +0.149 HD
ENDROOT
BRANCH  24  19
ATOM     11  N   UNL     1      -2.571   0.949  25.380  0.00  0.00    -0.300 N 
ATOM     12  N   UNL     1      -3.461   2.990  24.597  0.00  0.00    -0.210 NA
ATOM     13  N   UNL     1      -1.943   2.947  26.468  0.00  0.00    -0.223 NA
ATOM     19  C   UNL     1      -2.323  -1.937  25.188  0.00  0.00    +0.078 C 
ATOM     22  C   UNL     1      -1.557  -1.127  26.230  0.00  0.00    +0.032 C 
ATOM     23  C   UNL     1      -3.581  -1.204  24.730  0.00  0.00    +0.032 C 
ATOM     25  C   UNL     1      -1.313   0.318  25.798  0.00  0.00    +0.108 C 
ATOM     26  C   UNL     1      -3.329   0.253  24.335  0.00  0.00    +0.108 C 
ATOM     28  C   UNL     1      -2.662   2.342  25.485  0.00  0.00    +0.218 A 
ATOM     34  C   UNL     1      -3.525   4.331  24.728  0.00  0.00    +0.149 A 
ATOM     35  C   UNL     1      -2.054   4.290  26.541  0.00  0.00    +0.116 A 
ATOM     36  C   UNL     1      -2.837   5.041  25.690  0.00  0.00    +0.052 A 
BRANCH  34  37
ATOM      2  F   UNL     1      -5.606   5.424  24.283  0.00  0.00    -0.164 F 
ATOM      3  F   UNL     1      -3.847   6.218  23.294  0.00  0.00    -0.164 F 
ATOM      4  F   UNL     1      -4.687   4.317  22.653  0.00  0.00    -0.164 F 
ATOM     37  C   UNL     1      -4.398   5.059  23.761  0.00  0.00    +0.434 C 
ENDBRANCH  34  37
ENDBRANCH  24  19
BRANCH   9  14
ATOM      5  O   UNL     1       4.266  -2.257  24.378  0.00  0.00    -0.273 OA
ATOM      6  O   UNL     1       4.078   1.827  22.177  0.00  0.00    -0.252 OA
ATOM      8  N   UNL     1       2.485   0.396  23.072  0.00  0.00    -0.273 N 
ATOM     10  N   UNL     1       4.637  -0.187  23.290  0.00  0.00    -0.193 N 
ATOM     14  C   UNL     1       0.257  -1.298  22.482  0.00  0.00    +0.077 C 
ATOM     15  C   UNL     1       2.414  -0.871  23.746  0.00  0.00    +0.166 C 
ATOM     16  C   UNL     1       1.610  -1.878  22.929  0.00  0.00    +0.054 C 
ATOM     17  C   UNL     1       0.429   0.070  21.799  0.00  0.00    +0.041 C 
ATOM     18  C   UNL     1       1.257   1.042  22.642  0.00  0.00    +0.112 C 
ATOM     20  C   UNL     1       3.888  -1.221  23.843  0.00  0.00    +0.248 C 
ATOM     21  C   UNL     1       3.789   0.809  22.793  0.00  0.00    +0.316 C 
BRANCH  10  27
ATOM      1 CL   UNL     1      10.573  -0.052  22.983  0.00  0.00    -0.084 Cl
ATOM     27  C   UNL     1       6.065  -0.154  23.217  0.00  0.00    +0.046 A 
ATOM     29  C   UNL     1       6.753  -1.121  22.477  0.00  0.00    +0.025 A 
ATOM     30  C   UNL     1       6.781   0.843  23.885  0.00  0.00    +0.025 A 
ATOM     31  C   UNL     1       8.146  -1.088  22.405  0.00  0.00    +0.022 A 
ATOM     32  C   UNL     1       8.174   0.875  23.812  0.00  0.00    +0.022 A 
ATOM     33  C   UNL     1       8.856  -0.091  23.072  0.00  0.00    +0.041 A 
ENDBRANCH  10  27
ENDBRANCH   9  14
TORSDOF 4
ENDMDL
MODEL 3
REMARK VINA RESULT:      26.4      3.497      5.694
REMARK  Name = 7134558
REMARK  4 active torsions:
REMARK  status: ('A' for Active; 'I' for Inactive)
REMARK    1  A    between atoms: N_9  and  C_14
REMARK    2  A    between atoms: N_10  and  C_27
REMARK    3  A    between atoms: C_19  and  C_24
REMARK    4  A    between atoms: C_34  and  C_37
REMARK                            x       y       z     vdW  Elec       q    Type
REMARK                         _______ _______ _______ _____ _____    ______ ____
ROOT
ATOM      7  O   UNL     1      -4.928  -2.245  23.946  0.00  0.00    -0.276 OA
ATOM      9  N   UNL     1      -3.526  -0.732  24.994  0.00  0.00    -0.312 N 
ATOM     24  C   UNL     1      -4.707  -1.106  24.369  0.00  0.00    +0.216 C 
ATOM     38  H   UNL     1      -3.416   0.227  25.308  0.00  0.00    +0.149 HD
ENDROOT
BRANCH  24  19
ATOM     11  N   UNL     1      -4.459   2.481  25.151  0.00  0.00    -0.300 N 
ATOM     12  N   UNL     1      -2.965   4.276  24.809  0.00  0.00    -0.210 NA
ATOM     13  N   UNL     1      -4.235   4.104  26.851  0.00  0.00    -0.223 NA
ATOM     19  C   UNL     1      -5.696   0.016  24.244  0.00  0.00    +0.078 C 
ATOM     22  C   UNL     1      -6.000   0.618  25.614  0.00  0.00    +0.032 C 
ATOM     23  C   UNL     1      -5.210   1.083  23.265  0.00  0.00    +0.032 C 
ATOM     25  C   UNL     1      -4.860   1.482  26.149  0.00  0.00    +0.108 C 
ATOM     26  C   UNL     1      -4.093   1.965  23.829  0.00  0.00    +0.108 C 
ATOM     28  C   UNL     1      -3.867   3.660  25.619  0.00  0.00    +0.218 A 
ATOM     34  C   UNL     1      -2.415   5.409  25.292  0.00  0.00    +0.149 A 
ATOM     35  C   UNL     1      -3.645   5.243  27.270  0.00  0.00    +0.116 A 
ATOM     36  C   UNL     1      -2.719   5.945  26.527  0.00  0.00    +0.052 A 
BRANCH  34  37
ATOM      2  F   UNL     1      -0.532   6.874  25.102  0.00  0.00    -0.164 F 
ATOM      3  F   UNL     1      -0.658   5.242  23.678  0.00  0.00    -0.164 F 
ATOM      4  F   UNL     1      -2.014   6.934  23.512  0.00  0.00    -0.164 F 
ATOM     37  C   UNL     1      -1.424   6.100  24.415  0.00  0.00    +0.434 C 
ENDBRANCH  34  37
ENDBRANCH  24  19
BRANCH   9  14
ATOM      5  O   UNL     1       1.249   1.013  25.437  0.00  0.00    -0.273 OA
ATOM      6  O   UNL     1       1.220  -1.986  21.893  0.00  0.00    -0.252 OA
ATOM      8  N   UNL     1      -0.423  -1.074  23.254  0.00  0.00    -0.273 N 
ATOM     10  N   UNL     1       1.688  -0.408  23.595  0.00  0.00    -0.193 N 
ATOM     14  C   UNL     1      -2.426  -1.640  25.218  0.00  0.00    +0.077 C 
ATOM     15  C   UNL     1      -0.540  -0.172  24.367  0.00  0.00    +0.166 C 
ATOM     16  C   UNL     1      -1.139  -0.878  25.580  0.00  0.00    +0.054 C 
ATOM     17  C   UNL     1      -2.214  -2.556  23.999  0.00  0.00    +0.041 C 
ATOM     18  C   UNL     1      -1.593  -1.813  22.814  0.00  0.00    +0.112 C 
ATOM     20  C   UNL     1       0.913   0.224  24.563  0.00  0.00    +0.248 C 
ATOM     21  C   UNL     1       0.886  -1.226  22.793  0.00  0.00    +0.316 C 
BRANCH  10  27
ATOM      1 CL   UNL     1       7.575   0.192  23.012  0.00  0.00    -0.084 Cl
ATOM     27  C   UNL     1       3.105  -0.264  23.454  0.00  0.00    +0.046 A 
ATOM     29  C   UNL     1       3.638   0.878  22.849  0.00  0.00    +0.025 A 
ATOM     30  C   UNL     1       3.963  -1.264  23.921  0.00  0.00    +0.025 A 
ATOM     31  C   UNL     1       5.020   1.018  22.713  0.00  0.00    +0.022 A 
ATOM     32  C   UNL     1       5.343  -1.123  23.784  0.00  0.00    +0.022 A 
ATOM     33  C   UNL     1       5.872   0.018  23.181  0.00  0.00    +0.041 A 
ENDBRANCH  10  27
ENDBRANCH   9  14
TORSDOF 4
ENDMDL
