MODEL 1
REMARK VINA RESULT:      -2.3      0.000      0.000
REMARK  Name = 11883385
REMARK  6 active torsions:
REMARK  status: ('A' for Active; 'I' for Inactive)
REMARK    1  A    between atoms: O_6  and  C_14
REMARK    2  A    between atoms: O_6  and  C_18
REMARK    3  A    between atoms: N_9  and  C_13
REMARK    4  A    between atoms: N_10  and  C_22
REMARK    5  A    between atoms: C_17  and  C_19
REMARK    6  A    between atoms: C_28  and  C_31
REMARK                            x       y       z     vdW  Elec       q    Type
REMARK                         _______ _______ _______ _____ _____    ______ ____
ROOT
ATOM      4  O   UNL     1      -0.659   2.307  25.680  0.00  0.00    -0.368 OA
ATOM      5  O   UNL     1      -1.119   3.523  22.904  0.00  0.00    -0.368 OA
ATOM     11  C   UNL     1       0.089   3.120  23.582  0.00  0.00    +0.173 C 
ATOM     12  C   UNL     1      -0.094   3.467  25.047  0.00  0.00    +0.192 C 
ATOM     13  C   UNL     1       0.209   1.614  23.579  0.00  0.00    +0.130 C 
ATOM     14  C   UNL     1      -1.080   4.609  24.992  0.00  0.00    +0.235 C 
ATOM     15  C   UNL     1      -0.678   1.217  24.746  0.00  0.00    +0.185 C 
ATOM     16  C   UNL     1      -1.969   4.208  23.836  0.00  0.00    +0.207 C 
ENDROOT
BRANCH  13   9
ATOM      7  O   UNL     1       1.740  -0.162  21.920  0.00  0.00    -0.270 OA
ATOM      9  N   UNL     1       1.574   1.197  23.791  0.00  0.00    -0.304 N 
ATOM     17  C   UNL     1       2.233   0.333  22.930  0.00  0.00    +0.244 C 
ATOM     32  H   UNL     1       2.007   1.475  24.666  0.00  0.00    +0.149 HD
BRANCH  17  19
ATOM     19  C   UNL     1       3.627  -0.020  23.303  0.00  0.00    +0.037 A 
ATOM     20  C   UNL     1       4.600   0.956  23.243  0.00  0.00    +0.013 A 
ATOM     21  C   UNL     1       3.905  -1.313  23.696  0.00  0.00    +0.013 A 
ATOM     23  C   UNL     1       5.909   0.626  23.594  0.00  0.00    +0.001 A 
ATOM     24  C   UNL     1       5.214  -1.643  24.047  0.00  0.00    +0.001 A 
ATOM     27  C   UNL     1       6.216  -0.673  23.996  0.00  0.00    +0.000 A 
ENDBRANCH  17  19
ENDBRANCH  13   9
BRANCH  14   6
ATOM      6  O   UNL     1      -1.808   4.783  26.185  0.00  0.00    -0.442 OA
BRANCH   6  18
ATOM      8  O   UNL     1      -3.430   3.836  27.490  0.00  0.00    -0.226 OA
ATOM     10  N   UNL     1      -3.092   3.168  25.272  0.00  0.00    -0.251 N 
ATOM     18  C   UNL     1      -2.848   3.906  26.414  0.00  0.00    +0.405 C 
ATOM     33  H   UNL     1      -2.497   3.371  24.471  0.00  0.00    +0.158 HD
BRANCH  10  22
ATOM     22  C   UNL     1      -4.067   2.164  25.075  0.00  0.00    +0.037 A 
ATOM     25  C   UNL     1      -3.661   0.861  24.830  0.00  0.00    +0.035 A 
ATOM     26  C   UNL     1      -5.409   2.501  25.129  0.00  0.00    +0.023 A 
ATOM     28  C   UNL     1      -4.624  -0.130  24.636  0.00  0.00    +0.057 A 
ATOM     29  C   UNL     1      -6.372   1.511  24.935  0.00  0.00    +0.002 A 
ATOM     30  C   UNL     1      -5.979   0.196  24.687  0.00  0.00    +0.012 A 
BRANCH  28  31
ATOM      1  F   UNL     1      -5.151  -2.277  23.723  0.00  0.00    -0.166 F 
ATOM      2  F   UNL     1      -3.915  -2.243  25.504  0.00  0.00    -0.166 F 
ATOM      3  F   UNL     1      -3.084  -1.614  23.596  0.00  0.00    -0.166 F 
ATOM     31  C   UNL     1      -4.204  -1.536  24.372  0.00  0.00    +0.417 C 
ENDBRANCH  28  31
ENDBRANCH  10  22
ENDBRANCH   6  18
ENDBRANCH  14   6
TORSDOF 6
ENDMDL
MODEL 2
REMARK VINA RESULT:      -1.6      3.415      4.630
REMARK  Name = 11883385
REMARK  6 active torsions:
REMARK  status: ('A' for Active; 'I' for Inactive)
REMARK    1  A    between atoms: O_6  and  C_14
REMARK    2  A    between atoms: O_6  and  C_18
REMARK    3  A    between atoms: N_9  and  C_13
REMARK    4  A    between atoms: N_10  and  C_22
REMARK    5  A    between atoms: C_17  and  C_19
REMARK    6  A    between atoms: C_28  and  C_31
REMARK                            x       y       z     vdW  Elec       q    Type
REMARK                         _______ _______ _______ _____ _____    ______ ____
ROOT
ATOM      4  O   UNL     1      -2.785   2.298  24.735  0.00  0.00    -0.368 OA
ATOM      5  O   UNL     1      -3.218   5.261  24.076  0.00  0.00    -0.368 OA
ATOM     11  C   UNL     1      -2.638   4.613  25.228  0.00  0.00    +0.173 C 
ATOM     12  C   UNL     1      -3.438   3.348  25.468  0.00  0.00    +0.192 C 
ATOM     13  C   UNL     1      -1.253   4.108  24.896  0.00  0.00    +0.130 C 
ATOM     14  C   UNL     1      -4.782   3.693  24.874  0.00  0.00    +0.235 C 
ATOM     15  C   UNL     1      -1.548   2.791  24.199  0.00  0.00    +0.185 C 
ATOM     16  C   UNL     1      -4.396   4.542  23.683  0.00  0.00    +0.207 C 
ENDROOT
BRANCH  13   9
ATOM      7  O   UNL     1       0.161   1.721  25.636  0.00  0.00    -0.270 OA
ATOM      9  N   UNL     1      -0.470   3.906  26.091  0.00  0.00    -0.304 N 
ATOM     17  C   UNL     1       0.181   2.711  26.362  0.00  0.00    +0.244 C 
ATOM     32  H   UNL     1      -0.503   4.640  26.790  0.00  0.00    +0.149 HD
BRANCH  17  19
ATOM     19  C   UNL     1       0.925   2.653  27.647  0.00  0.00    +0.037 A 
ATOM     20  C   UNL     1       0.244   2.307  28.796  0.00  0.00    +0.013 A 
ATOM     21  C   UNL     1       2.272   2.948  27.651  0.00  0.00    +0.013 A 
ATOM     23  C   UNL     1       0.942   2.252  30.002  0.00  0.00    +0.001 A 
ATOM     24  C   UNL     1       2.970   2.893  28.857  0.00  0.00    +0.001 A 
ATOM     27  C   UNL     1       2.305   2.544  30.033  0.00  0.00    +0.000 A 
ENDBRANCH  17  19
ENDBRANCH  13   9
BRANCH  14   6
ATOM      6  O   UNL     1      -5.538   2.565  24.499  0.00  0.00    -0.442 OA
BRANCH   6  18
ATOM      8  O   UNL     1      -5.488   0.967  26.134  0.00  0.00    -0.226 OA
ATOM     10  N   UNL     1      -4.348   0.689  24.108  0.00  0.00    -0.251 N 
ATOM     18  C   UNL     1      -5.147   1.350  25.021  0.00  0.00    +0.405 C 
ATOM     33  H   UNL     1      -4.176   1.173  23.229  0.00  0.00    +0.158 HD
BRANCH  10  22
ATOM     22  C   UNL     1      -3.738  -0.579  24.241  0.00  0.00    +0.037 A 
ATOM     25  C   UNL     1      -2.431  -0.661  24.695  0.00  0.00    +0.035 A 
ATOM     26  C   UNL     1      -4.459  -1.716  23.914  0.00  0.00    +0.023 A 
ATOM     28  C   UNL     1      -1.830  -1.912  24.826  0.00  0.00    +0.057 A 
ATOM     29  C   UNL     1      -3.858  -2.968  24.045  0.00  0.00    +0.002 A 
ATOM     30  C   UNL     1      -2.543  -3.066  24.500  0.00  0.00    +0.012 A 
BRANCH  28  31
ATOM      1  F   UNL     1       0.493  -1.474  24.461  0.00  0.00    -0.166 F 
ATOM      2  F   UNL     1      -0.008  -3.304  25.511  0.00  0.00    -0.166 F 
ATOM      3  F   UNL     1      -0.234  -1.385  26.508  0.00  0.00    -0.166 F 
ATOM     31  C   UNL     1      -0.424  -2.018  25.314  0.00  0.00    +0.417 C 
ENDBRANCH  28  31
ENDBRANCH  10  22
ENDBRANCH   6  18
ENDBRANCH  14   6
TORSDOF 6
ENDMDL
MODEL 3
REMARK VINA RESULT:      -1.3      3.277      4.885
REMARK  Name = 11883385
REMARK  6 active torsions:
REMARK  status: ('A' for Active; 'I' for Inactive)
REMARK    1  A    between atoms: O_6  and  C_14
REMARK    2  A    between atoms: O_6  and  C_18
REMARK    3  A    between atoms: N_9  and  C_13
REMARK    4  A    between atoms: N_10  and  C_22
REMARK    5  A    between atoms: C_17  and  C_19
REMARK    6  A    between atoms: C_28  and  C_31
REMARK                            x       y       z     vdW  Elec       q    Type
REMARK                         _______ _______ _______ _____ _____    ______ ____
ROOT
ATOM      4  O   UNL     1      -2.471  -0.449  25.242  0.00  0.00    -0.368 OA
ATOM      5  O   UNL     1      -2.639  -3.466  24.720  0.00  0.00    -0.368 OA
ATOM     11  C   UNL     1      -1.695  -2.469  24.274  0.00  0.00    +0.173 C 
ATOM     12  C   UNL     1      -2.485  -1.201  24.017  0.00  0.00    +0.192 C 
ATOM     13  C   UNL     1      -0.763  -2.094  25.403  0.00  0.00    +0.130 C 
ATOM     14  C   UNL     1      -3.862  -1.732  23.702  0.00  0.00    +0.235 C 
ATOM     15  C   UNL     1      -1.589  -1.084  26.180  0.00  0.00    +0.185 C 
ATOM     16  C   UNL     1      -3.965  -2.924  24.627  0.00  0.00    +0.207 C 
ENDROOT
BRANCH  13   9
ATOM      7  O   UNL     1      -0.546  -0.075  23.372  0.00  0.00    -0.270 OA
ATOM      9  N   UNL     1       0.454  -1.503  24.902  0.00  0.00    -0.304 N 
ATOM     17  C   UNL     1       0.458  -0.528  23.915  0.00  0.00    +0.244 C 
ATOM     32  H   UNL     1       1.326  -1.911  25.222  0.00  0.00    +0.149 HD
BRANCH  17  19
ATOM     19  C   UNL     1       1.795  -0.040  23.490  0.00  0.00    +0.037 A 
ATOM     20  C   UNL     1       1.952   1.298  23.192  0.00  0.00    +0.013 A 
ATOM     21  C   UNL     1       2.837  -0.940  23.405  0.00  0.00    +0.013 A 
ATOM     23  C   UNL     1       3.208   1.757  22.793  0.00  0.00    +0.001 A 
ATOM     24  C   UNL     1       4.093  -0.481  23.006  0.00  0.00    +0.001 A 
ATOM     27  C   UNL     1       4.277   0.868  22.701  0.00  0.00    +0.000 A 
ENDBRANCH  17  19
ENDBRANCH  13   9
BRANCH  14   6
ATOM      6  O   UNL     1      -4.891  -0.796  23.927  0.00  0.00    -0.442 OA
BRANCH   6  18
ATOM      8  O   UNL     1      -4.837   0.181  25.994  0.00  0.00    -0.226 OA
ATOM     10  N   UNL     1      -4.065   1.297  24.086  0.00  0.00    -0.251 N 
ATOM     18  C   UNL     1      -4.612   0.242  24.791  0.00  0.00    +0.405 C 
ATOM     33  H   UNL     1      -3.954   1.157  23.084  0.00  0.00    +0.158 HD
BRANCH  10  22
ATOM     22  C   UNL     1      -3.637   2.549  24.584  0.00  0.00    +0.037 A 
ATOM     25  C   UNL     1      -2.307   2.915  24.449  0.00  0.00    +0.035 A 
ATOM     26  C   UNL     1      -4.555   3.385  25.198  0.00  0.00    +0.023 A 
ATOM     28  C   UNL     1      -1.885   4.150  24.940  0.00  0.00    +0.057 A 
ATOM     29  C   UNL     1      -4.133   4.620  25.690  0.00  0.00    +0.002 A 
ATOM     30  C   UNL     1      -2.798   5.003  25.561  0.00  0.00    +0.012 A 
BRANCH  28  31
ATOM      1  F   UNL     1      -0.257   5.903  24.954  0.00  0.00    -0.166 F 
ATOM      2  F   UNL     1       0.086   4.255  23.588  0.00  0.00    -0.166 F 
ATOM      3  F   UNL     1       0.352   3.964  25.726  0.00  0.00    -0.166 F 
ATOM     31  C   UNL     1      -0.457   4.561  24.803  0.00  0.00    +0.417 C 
ENDBRANCH  28  31
ENDBRANCH  10  22
ENDBRANCH   6  18
ENDBRANCH  14   6
TORSDOF 6
ENDMDL
MODEL 4
REMARK VINA RESULT:      -0.3      2.095      3.356
REMARK  Name = 11883385
REMARK  6 active torsions:
REMARK  status: ('A' for Active; 'I' for Inactive)
REMARK    1  A    between atoms: O_6  and  C_14
REMARK    2  A    between atoms: O_6  and  C_18
REMARK    3  A    between atoms: N_9  and  C_13
REMARK    4  A    between atoms: N_10  and  C_22
REMARK    5  A    between atoms: C_17  and  C_19
REMARK    6  A    between atoms: C_28  and  C_31
REMARK                            x       y       z     vdW  Elec       q    Type
REMARK                         _______ _______ _______ _____ _____    ______ ____
ROOT
ATOM      4  O   UNL     1      -3.359   3.376  23.910  0.00  0.00    -0.368 OA
ATOM      5  O   UNL     1      -2.158   5.091  26.150  0.00  0.00    -0.368 OA
ATOM     11  C   UNL     1      -1.649   3.933  25.455  0.00  0.00    +0.173 C 
ATOM     12  C   UNL     1      -2.832   3.020  25.199  0.00  0.00    +0.192 C 
ATOM     13  C   UNL     1      -1.184   4.321  24.070  0.00  0.00    +0.130 C 
ATOM     14  C   UNL     1      -3.779   3.392  26.314  0.00  0.00    +0.235 C 
ATOM     15  C   UNL     1      -2.484   4.326  23.284  0.00  0.00    +0.185 C 
ATOM     16  C   UNL     1      -3.546   4.881  26.447  0.00  0.00    +0.207 C 
ENDROOT
BRANCH  13   9
ATOM      7  O   UNL     1      -0.037   2.095  25.476  0.00  0.00    -0.270 OA
ATOM      9  N   UNL     1      -0.254   3.355  23.540  0.00  0.00    -0.304 N 
ATOM     17  C   UNL     1       0.248   2.308  24.300  0.00  0.00    +0.244 C 
ATOM     32  H   UNL     1       0.114   3.533  22.612  0.00  0.00    +0.149 HD
BRANCH  17  19
ATOM     19  C   UNL     1       1.217   1.413  23.616  0.00  0.00    +0.037 A 
ATOM     20  C   UNL     1       2.534   1.813  23.513  0.00  0.00    +0.013 A 
ATOM     21  C   UNL     1       0.770   0.213  23.105  0.00  0.00    +0.013 A 
ATOM     23  C   UNL     1       3.444   0.973  22.871  0.00  0.00    +0.001 A 
ATOM     24  C   UNL     1       1.680  -0.627  22.463  0.00  0.00    +0.001 A 
ATOM     27  C   UNL     1       3.018  -0.246  22.347  0.00  0.00    +0.000 A 
ENDBRANCH  17  19
ENDBRANCH  13   9
BRANCH  14   6
ATOM      6  O   UNL     1      -5.126   3.090  26.032  0.00  0.00    -0.442 OA
BRANCH   6  18
ATOM      8  O   UNL     1      -6.497   1.535  25.066  0.00  0.00    -0.226 OA
ATOM     10  N   UNL     1      -4.215   1.126  25.397  0.00  0.00    -0.251 N 
ATOM     18  C   UNL     1      -5.382   1.864  25.453  0.00  0.00    +0.405 C 
ATOM     33  H   UNL     1      -3.382   1.574  25.772  0.00  0.00    +0.158 HD
BRANCH  10  22
ATOM     22  C   UNL     1      -4.033  -0.178  24.881  0.00  0.00    +0.037 A 
ATOM     25  C   UNL     1      -2.791  -0.782  24.986  0.00  0.00    +0.035 A 
ATOM     26  C   UNL     1      -5.100  -0.825  24.281  0.00  0.00    +0.023 A 
ATOM     28  C   UNL     1      -2.611  -2.068  24.476  0.00  0.00    +0.057 A 
ATOM     29  C   UNL     1      -4.922  -2.111  23.771  0.00  0.00    +0.002 A 
ATOM     30  C   UNL     1      -3.677  -2.732  23.868  0.00  0.00    +0.012 A 
BRANCH  28  31
ATOM      1  F   UNL     1      -1.225  -3.698  25.546  0.00  0.00    -0.166 F 
ATOM      2  F   UNL     1      -0.260  -1.875  24.876  0.00  0.00    -0.166 F 
ATOM      3  F   UNL     1      -0.912  -3.355  23.422  0.00  0.00    -0.166 F 
ATOM     31  C   UNL     1      -1.280  -2.733  24.580  0.00  0.00    +0.417 C 
ENDBRANCH  28  31
ENDBRANCH  10  22
ENDBRANCH   6  18
ENDBRANCH  14   6
TORSDOF 6
ENDMDL
