MODEL 1
REMARK VINA RESULT:       1.2      0.000      0.000
REMARK  Name = 26743868
REMARK  12 active torsions:
REMARK  status: ('A' for Active; 'I' for Inactive)
REMARK    1  A    between atoms: O_1  and  C_11
REMARK    2  A    between atoms: O_3  and  C_16
REMARK    3  A    between atoms: O_3  and  C_25
REMARK    4  A    between atoms: O_4  and  C_19
REMARK    5  A    between atoms: O_4  and  C_29
REMARK    6  A    between atoms: O_5  and  C_21
REMARK    7  A    between atoms: O_5  and  C_30
REMARK    8  A    between atoms: N_6  and  C_13
REMARK    9  A    between atoms: C_9  and  C_14
REMARK   10  A    between atoms: C_13  and  C_15
REMARK   11  A    between atoms: C_18  and  C_22
REMARK   12  A    between atoms: C_26  and  C_31
REMARK                            x       y       z     vdW  Elec       q    Type
REMARK                         _______ _______ _______ _____ _____    ______ ____
ROOT
ATOM      6  N   UNL     1      -2.977  -0.943  24.797  0.00  0.00    -0.284 NA
ATOM      9  C   UNL     1      -1.764  -1.780  24.698  0.00  0.00    +0.149 C 
ATOM     10  C   UNL     1      -2.203  -3.015  23.889  0.00  0.00    +0.061 C 
ATOM     11  C   UNL     1      -3.687  -2.802  23.618  0.00  0.00    +0.130 C 
ATOM     12  C   UNL     1      -4.117  -1.854  24.722  0.00  0.00    +0.116 C 
ENDROOT
BRANCH   9  14
ATOM      2  O   UNL     1      -0.911  -0.096  23.147  0.00  0.00    -0.336 OA
ATOM      7  N   UNL     1       0.685  -1.196  24.270  0.00  0.00    -0.190 NA
ATOM      8  N   UNL     1       0.310   0.433  22.709  0.00  0.00    -0.056 NA
ATOM     14  C   UNL     1      -0.600  -1.048  24.065  0.00  0.00    +0.245 A 
ATOM     18  C   UNL     1       1.202  -0.266  23.416  0.00  0.00    +0.202 A 
BRANCH  18  22
ATOM     22  C   UNL     1       2.616  -0.060  23.293  0.00  0.00    +0.023 A 
ATOM     23  C   UNL     1       3.506  -1.021  23.774  0.00  0.00    +0.015 A 
ATOM     24  C   UNL     1       3.101   1.102  22.692  0.00  0.00    +0.012 A 
ATOM     26  C   UNL     1       4.881  -0.820  23.654  0.00  0.00    -0.050 A 
ATOM     27  C   UNL     1       4.477   1.302  22.572  0.00  0.00    +0.001 A 
ATOM     28  C   UNL     1       5.367   0.341  23.053  0.00  0.00    +0.003 A 
ATOM     31  C   UNL     1       5.833  -1.847  24.167  0.00  0.00    +0.044 C 
ENDBRANCH  18  22
ENDBRANCH   9  14
BRANCH  11   1
ATOM      1  O   UNL     1      -4.388  -4.028  23.675  0.00  0.00    -0.390 OA
ATOM     32  H   UNL     1      -3.817  -4.671  24.128  0.00  0.00    +0.210 HD
ENDBRANCH  11   1
BRANCH   6  13
ATOM     13  C   UNL     1      -3.011  -0.121  25.999  0.00  0.00    +0.124 C 
BRANCH  13  15
ATOM     15  C   UNL     1      -2.719   1.326  25.698  0.00  0.00    +0.012 A 
ATOM     16  C   UNL     1      -3.694   2.147  25.131  0.00  0.00    +0.170 A 
ATOM     17  C   UNL     1      -1.456   1.842  25.992  0.00  0.00    +0.012 A 
ATOM     19  C   UNL     1      -3.407   3.484  24.859  0.00  0.00    +0.204 A 
ATOM     20  C   UNL     1      -1.170   3.179  25.719  0.00  0.00    +0.050 A 
ATOM     21  C   UNL     1      -2.144   4.001  25.153  0.00  0.00    +0.165 A 
BRANCH  16   3
ATOM      3  O   UNL     1      -4.929   1.645  24.844  0.00  0.00    -0.491 OA
ATOM     25  C   UNL     1      -5.908   1.706  25.879  0.00  0.00    +0.277 C 
ENDBRANCH  16   3
BRANCH  19   4
ATOM      4  O   UNL     1      -4.358   4.289  24.304  0.00  0.00    -0.488 OA
ATOM     29  C   UNL     1      -5.348   4.818  25.183  0.00  0.00    +0.277 C 
ENDBRANCH  19   4
BRANCH  21   5
ATOM      5  O   UNL     1      -1.849   5.304  24.891  0.00  0.00    -0.491 OA
ATOM     30  C   UNL     1      -0.492   5.612  24.582  0.00  0.00    +0.277 C 
ENDBRANCH  21   5
ENDBRANCH  13  15
ENDBRANCH   6  13
TORSDOF 8
ENDMDL
MODEL 2
REMARK VINA RESULT:       1.6      0.879      2.142
REMARK  Name = 26743868
REMARK  12 active torsions:
REMARK  status: ('A' for Active; 'I' for Inactive)
REMARK    1  A    between atoms: O_1  and  C_11
REMARK    2  A    between atoms: O_3  and  C_16
REMARK    3  A    between atoms: O_3  and  C_25
REMARK    4  A    between atoms: O_4  and  C_19
REMARK    5  A    between atoms: O_4  and  C_29
REMARK    6  A    between atoms: O_5  and  C_21
REMARK    7  A    between atoms: O_5  and  C_30
REMARK    8  A    between atoms: N_6  and  C_13
REMARK    9  A    between atoms: C_9  and  C_14
REMARK   10  A    between atoms: C_13  and  C_15
REMARK   11  A    between atoms: C_18  and  C_22
REMARK   12  A    between atoms: C_26  and  C_31
REMARK                            x       y       z     vdW  Elec       q    Type
REMARK                         _______ _______ _______ _____ _____    ______ ____
ROOT
ATOM      6  N   UNL     1      -2.980  -1.008  24.733  0.00  0.00    -0.284 NA
ATOM      9  C   UNL     1      -1.754  -1.832  24.686  0.00  0.00    +0.149 C 
ATOM     10  C   UNL     1      -2.166  -3.107  23.927  0.00  0.00    +0.061 C 
ATOM     11  C   UNL     1      -3.650  -2.927  23.628  0.00  0.00    +0.130 C 
ATOM     12  C   UNL     1      -4.106  -1.938  24.685  0.00  0.00    +0.116 C 
ENDROOT
BRANCH   9  14
ATOM      2  O   UNL     1      -0.903  -0.232  23.046  0.00  0.00    -0.336 OA
ATOM      7  N   UNL     1       0.689  -1.209  24.283  0.00  0.00    -0.190 NA
ATOM      8  N   UNL     1       0.315   0.300  22.605  0.00  0.00    -0.056 NA
ATOM     14  C   UNL     1      -0.593  -1.111  24.035  0.00  0.00    +0.245 A 
ATOM     18  C   UNL     1       1.205  -0.324  23.381  0.00  0.00    +0.202 A 
BRANCH  18  22
ATOM     22  C   UNL     1       2.616  -0.088  23.282  0.00  0.00    +0.023 A 
ATOM     23  C   UNL     1       3.519  -1.024  23.786  0.00  0.00    +0.015 A 
ATOM     24  C   UNL     1       3.085   1.081  22.682  0.00  0.00    +0.012 A 
ATOM     26  C   UNL     1       4.891  -0.793  23.689  0.00  0.00    -0.050 A 
ATOM     27  C   UNL     1       4.459   1.312  22.585  0.00  0.00    +0.001 A 
ATOM     28  C   UNL     1       5.361   0.374  23.087  0.00  0.00    +0.003 A 
ATOM     31  C   UNL     1       5.856  -1.795  24.226  0.00  0.00    +0.044 C 
ENDBRANCH  18  22
ENDBRANCH   9  14
BRANCH  11   1
ATOM      1  O   UNL     1      -4.335  -4.160  23.731  0.00  0.00    -0.390 OA
ATOM     32  H   UNL     1      -5.071  -4.034  24.353  0.00  0.00    +0.210 HD
ENDBRANCH  11   1
BRANCH   6  13
ATOM     13  C   UNL     1      -3.041  -0.135  25.898  0.00  0.00    +0.124 C 
BRANCH  13  15
ATOM     15  C   UNL     1      -3.579   1.228  25.549  0.00  0.00    +0.012 A 
ATOM     16  C   UNL     1      -2.729   2.236  25.094  0.00  0.00    +0.170 A 
ATOM     17  C   UNL     1      -4.945   1.477  25.686  0.00  0.00    +0.012 A 
ATOM     19  C   UNL     1      -3.244   3.492  24.774  0.00  0.00    +0.204 A 
ATOM     20  C   UNL     1      -5.460   2.733  25.366  0.00  0.00    +0.050 A 
ATOM     21  C   UNL     1      -4.610   3.741  24.911  0.00  0.00    +0.165 A 
BRANCH  16   3
ATOM      3  O   UNL     1      -1.393   1.995  24.958  0.00  0.00    -0.491 OA
ATOM     25  C   UNL     1      -0.575   2.225  26.102  0.00  0.00    +0.277 C 
ENDBRANCH  16   3
BRANCH  19   4
ATOM      4  O   UNL     1      -2.414   4.478  24.330  0.00  0.00    -0.488 OA
ATOM     29  C   UNL     1      -1.795   5.297  25.320  0.00  0.00    +0.277 C 
ENDBRANCH  19   4
BRANCH  21   5
ATOM      5  O   UNL     1      -5.127   4.963  24.604  0.00  0.00    -0.491 OA
ATOM     30  C   UNL     1      -6.257   5.396  25.358  0.00  0.00    +0.277 C 
ENDBRANCH  21   5
ENDBRANCH  13  15
ENDBRANCH   6  13
TORSDOF 8
ENDMDL
MODEL 3
REMARK VINA RESULT:       1.8      2.894      5.893
REMARK  Name = 26743868
REMARK  12 active torsions:
REMARK  status: ('A' for Active; 'I' for Inactive)
REMARK    1  A    between atoms: O_1  and  C_11
REMARK    2  A    between atoms: O_3  and  C_16
REMARK    3  A    between atoms: O_3  and  C_25
REMARK    4  A    between atoms: O_4  and  C_19
REMARK    5  A    between atoms: O_4  and  C_29
REMARK    6  A    between atoms: O_5  and  C_21
REMARK    7  A    between atoms: O_5  and  C_30
REMARK    8  A    between atoms: N_6  and  C_13
REMARK    9  A    between atoms: C_9  and  C_14
REMARK   10  A    between atoms: C_13  and  C_15
REMARK   11  A    between atoms: C_18  and  C_22
REMARK   12  A    between atoms: C_26  and  C_31
REMARK                            x       y       z     vdW  Elec       q    Type
REMARK                         _______ _______ _______ _____ _____    ______ ____
ROOT
ATOM      6  N   UNL     1      -4.093   2.030  24.980  0.00  0.00    -0.284 NA
ATOM      9  C   UNL     1      -3.295   3.259  24.786  0.00  0.00    +0.149 C 
ATOM     10  C   UNL     1      -4.118   4.373  25.457  0.00  0.00    +0.061 C 
ATOM     11  C   UNL     1      -5.380   3.683  25.960  0.00  0.00    +0.130 C 
ATOM     12  C   UNL     1      -5.488   2.454  25.077  0.00  0.00    +0.116 C 
ENDROOT
BRANCH   9  14
ATOM      2  O   UNL     1      -0.875   3.173  24.456  0.00  0.00    -0.336 OA
ATOM      7  N   UNL     1      -1.513   3.008  26.597  0.00  0.00    -0.190 NA
ATOM      8  N   UNL     1       0.302   3.049  25.205  0.00  0.00    -0.056 NA
ATOM     14  C   UNL     1      -1.896   3.141  25.352  0.00  0.00    +0.245 A 
ATOM     18  C   UNL     1      -0.156   2.956  26.456  0.00  0.00    +0.202 A 
BRANCH  18  22
ATOM     22  C   UNL     1       0.713   2.811  27.588  0.00  0.00    +0.023 A 
ATOM     23  C   UNL     1       0.176   2.655  28.866  0.00  0.00    +0.015 A 
ATOM     24  C   UNL     1       2.097   2.827  27.409  0.00  0.00    +0.012 A 
ATOM     26  C   UNL     1       1.022   2.515  29.966  0.00  0.00    -0.050 A 
ATOM     27  C   UNL     1       2.943   2.686  28.510  0.00  0.00    +0.001 A 
ATOM     28  C   UNL     1       2.406   2.529  29.788  0.00  0.00    +0.003 A 
ATOM     31  C   UNL     1       0.449   2.347  31.332  0.00  0.00    +0.044 C 
ENDBRANCH  18  22
ENDBRANCH   9  14
BRANCH  11   1
ATOM      1  O   UNL     1      -6.504   4.530  25.821  0.00  0.00    -0.390 OA
ATOM     32  H   UNL     1      -6.236   5.420  26.106  0.00  0.00    +0.210 HD
ENDBRANCH  11   1
BRANCH   6  13
ATOM     13  C   UNL     1      -3.892   1.042  23.928  0.00  0.00    +0.124 C 
BRANCH  13  15
ATOM     15  C   UNL     1      -2.459   0.586  23.854  0.00  0.00    +0.012 A 
ATOM     16  C   UNL     1      -1.938  -0.287  24.809  0.00  0.00    +0.170 A 
ATOM     17  C   UNL     1      -1.650   1.046  22.814  0.00  0.00    +0.012 A 
ATOM     19  C   UNL     1      -0.609  -0.700  24.725  0.00  0.00    +0.204 A 
ATOM     20  C   UNL     1      -0.321   0.632  22.730  0.00  0.00    +0.050 A 
ATOM     21  C   UNL     1       0.200  -0.240  23.685  0.00  0.00    +0.165 A 
BRANCH  16   3
ATOM      3  O   UNL     1      -2.727  -0.739  25.826  0.00  0.00    -0.491 OA
ATOM     25  C   UNL     1      -3.535  -1.882  25.557  0.00  0.00    +0.277 C 
ENDBRANCH  16   3
BRANCH  19   4
ATOM      4  O   UNL     1      -0.097  -1.552  25.659  0.00  0.00    -0.488 OA
ATOM     29  C   UNL     1      -0.089  -2.940  25.331  0.00  0.00    +0.277 C 
ENDBRANCH  19   4
BRANCH  21   5
ATOM      5  O   UNL     1       1.501  -0.634  23.591  0.00  0.00    -0.491 OA
ATOM     30  C   UNL     1       2.330   0.082  22.679  0.00  0.00    +0.277 C 
ENDBRANCH  21   5
ENDBRANCH  13  15
ENDBRANCH   6  13
TORSDOF 8
ENDMDL
MODEL 4
REMARK VINA RESULT:       2.2      1.230      1.374
REMARK  Name = 26743868
REMARK  12 active torsions:
REMARK  status: ('A' for Active; 'I' for Inactive)
REMARK    1  A    between atoms: O_1  and  C_11
REMARK    2  A    between atoms: O_3  and  C_16
REMARK    3  A    between atoms: O_3  and  C_25
REMARK    4  A    between atoms: O_4  and  C_19
REMARK    5  A    between atoms: O_4  and  C_29
REMARK    6  A    between atoms: O_5  and  C_21
REMARK    7  A    between atoms: O_5  and  C_30
REMARK    8  A    between atoms: N_6  and  C_13
REMARK    9  A    between atoms: C_9  and  C_14
REMARK   10  A    between atoms: C_13  and  C_15
REMARK   11  A    between atoms: C_18  and  C_22
REMARK   12  A    between atoms: C_26  and  C_31
REMARK                            x       y       z     vdW  Elec       q    Type
REMARK                         _______ _______ _______ _____ _____    ______ ____
ROOT
ATOM      6  N   UNL     1      -2.947  -1.129  23.553  0.00  0.00    -0.284 NA
ATOM      9  C   UNL     1      -1.851  -0.750  24.468  0.00  0.00    +0.149 C 
ATOM     10  C   UNL     1      -1.810  -1.875  25.520  0.00  0.00    +0.061 C 
ATOM     11  C   UNL     1      -2.948  -2.814  25.137  0.00  0.00    +0.130 C 
ATOM     12  C   UNL     1      -3.885  -1.928  24.338  0.00  0.00    +0.116 C 
ENDROOT
BRANCH   9  14
ATOM      2  O   UNL     1      -0.556  -0.674  22.398  0.00  0.00    -0.336 OA
ATOM      7  N   UNL     1       0.657  -0.325  24.249  0.00  0.00    -0.190 NA
ATOM      8  N   UNL     1       0.762  -0.473  21.968  0.00  0.00    -0.056 NA
ATOM     14  C   UNL     1      -0.529  -0.570  23.752  0.00  0.00    +0.245 A 
ATOM     18  C   UNL     1       1.416  -0.274  23.115  0.00  0.00    +0.202 A 
BRANCH  18  22
ATOM     22  C   UNL     1       2.827  -0.023  23.166  0.00  0.00    +0.023 A 
ATOM     23  C   UNL     1       3.688  -0.975  23.712  0.00  0.00    +0.015 A 
ATOM     24  C   UNL     1       3.339   1.176  22.668  0.00  0.00    +0.012 A 
ATOM     26  C   UNL     1       5.060  -0.729  23.761  0.00  0.00    -0.050 A 
ATOM     27  C   UNL     1       4.712   1.422  22.717  0.00  0.00    +0.001 A 
ATOM     28  C   UNL     1       5.572   0.469  23.262  0.00  0.00    +0.003 A 
ATOM     31  C   UNL     1       5.981  -1.747  24.344  0.00  0.00    +0.044 C 
ENDBRANCH  18  22
ENDBRANCH   9  14
BRANCH  11   1
ATOM      1  O   UNL     1      -3.576  -3.337  26.292  0.00  0.00    -0.390 OA
ATOM     32  H   UNL     1      -4.215  -4.009  25.998  0.00  0.00    +0.210 HD
ENDBRANCH  11   1
BRANCH   6  13
ATOM     13  C   UNL     1      -3.594   0.016  22.927  0.00  0.00    +0.124 C 
BRANCH  13  15
ATOM     15  C   UNL     1      -3.215   1.310  23.598  0.00  0.00    +0.012 A 
ATOM     16  C   UNL     1      -3.981   1.823  24.644  0.00  0.00    +0.170 A 
ATOM     17  C   UNL     1      -2.081   1.998  23.161  0.00  0.00    +0.012 A 
ATOM     19  C   UNL     1      -3.616   3.022  25.255  0.00  0.00    +0.204 A 
ATOM     20  C   UNL     1      -1.716   3.197  23.772  0.00  0.00    +0.050 A 
ATOM     21  C   UNL     1      -2.482   3.710  24.818  0.00  0.00    +0.165 A 
BRANCH  16   3
ATOM      3  O   UNL     1      -5.089   1.152  25.073  0.00  0.00    -0.491 OA
ATOM     25  C   UNL     1      -6.352   1.633  24.620  0.00  0.00    +0.277 C 
ENDBRANCH  16   3
BRANCH  19   4
ATOM      4  O   UNL     1      -4.365   3.525  26.277  0.00  0.00    -0.488 OA
ATOM     29  C   UNL     1      -5.482   4.336  25.921  0.00  0.00    +0.277 C 
ENDBRANCH  19   4
BRANCH  21   5
ATOM      5  O   UNL     1      -2.114   4.882  25.405  0.00  0.00    -0.491 OA
ATOM     30  C   UNL     1      -0.897   5.476  24.957  0.00  0.00    +0.277 C 
ENDBRANCH  21   5
ENDBRANCH  13  15
ENDBRANCH   6  13
TORSDOF 8
ENDMDL
MODEL 5
REMARK VINA RESULT:       2.6      2.114      5.206
REMARK  Name = 26743868
REMARK  12 active torsions:
REMARK  status: ('A' for Active; 'I' for Inactive)
REMARK    1  A    between atoms: O_1  and  C_11
REMARK    2  A    between atoms: O_3  and  C_16
REMARK    3  A    between atoms: O_3  and  C_25
REMARK    4  A    between atoms: O_4  and  C_19
REMARK    5  A    between atoms: O_4  and  C_29
REMARK    6  A    between atoms: O_5  and  C_21
REMARK    7  A    between atoms: O_5  and  C_30
REMARK    8  A    between atoms: N_6  and  C_13
REMARK    9  A    between atoms: C_9  and  C_14
REMARK   10  A    between atoms: C_13  and  C_15
REMARK   11  A    between atoms: C_18  and  C_22
REMARK   12  A    between atoms: C_26  and  C_31
REMARK                            x       y       z     vdW  Elec       q    Type
REMARK                         _______ _______ _______ _____ _____    ______ ____
ROOT
ATOM      6  N   UNL     1      -4.553   1.797  25.405  0.00  0.00    -0.284 NA
ATOM      9  C   UNL     1      -3.952   2.515  24.262  0.00  0.00    +0.149 C 
ATOM     10  C   UNL     1      -4.329   3.992  24.485  0.00  0.00    +0.061 C 
ATOM     11  C   UNL     1      -5.177   3.997  25.751  0.00  0.00    +0.130 C 
ATOM     12  C   UNL     1      -5.713   2.580  25.823  0.00  0.00    +0.116 C 
ENDROOT
BRANCH   9  14
ATOM      2  O   UNL     1      -1.676   3.106  24.924  0.00  0.00    -0.336 OA
ATOM      7  N   UNL     1      -1.791   1.441  23.429  0.00  0.00    -0.190 NA
ATOM      8  N   UNL     1      -0.353   2.725  24.662  0.00  0.00    -0.056 NA
ATOM     14  C   UNL     1      -2.458   2.300  24.158  0.00  0.00    +0.245 A 
ATOM     18  C   UNL     1      -0.504   1.740  23.772  0.00  0.00    +0.202 A 
BRANCH  18  22
ATOM     22  C   UNL     1       0.609   1.034  23.207  0.00  0.00    +0.023 A 
ATOM     23  C   UNL     1       1.913   1.448  23.483  0.00  0.00    +0.015 A 
ATOM     24  C   UNL     1       0.387  -0.067  22.380  0.00  0.00    +0.012 A 
ATOM     26  C   UNL     1       2.994   0.761  22.932  0.00  0.00    -0.050 A 
ATOM     27  C   UNL     1       1.470  -0.755  21.829  0.00  0.00    +0.001 A 
ATOM     28  C   UNL     1       2.773  -0.341  22.106  0.00  0.00    +0.003 A 
ATOM     31  C   UNL     1       4.387   1.202  23.228  0.00  0.00    +0.044 C 
ENDBRANCH  18  22
ENDBRANCH   9  14
BRANCH  11   1
ATOM      1  O   UNL     1      -6.217   4.949  25.653  0.00  0.00    -0.390 OA
ATOM     32  H   UNL     1      -6.201   5.309  24.750  0.00  0.00    +0.210 HD
ENDBRANCH  11   1
BRANCH   6  13
ATOM     13  C   UNL     1      -4.906   0.417  25.094  0.00  0.00    +0.124 C 
BRANCH  13  15
ATOM     15  C   UNL     1      -3.715  -0.500  25.184  0.00  0.00    +0.012 A 
ATOM     16  C   UNL     1      -3.616  -1.623  24.364  0.00  0.00    +0.170 A 
ATOM     17  C   UNL     1      -2.703  -0.215  26.102  0.00  0.00    +0.012 A 
ATOM     19  C   UNL     1      -2.506  -2.462  24.459  0.00  0.00    +0.204 A 
ATOM     20  C   UNL     1      -1.592  -1.053  26.197  0.00  0.00    +0.050 A 
ATOM     21  C   UNL     1      -1.494  -2.177  25.377  0.00  0.00    +0.165 A 
BRANCH  16   3
ATOM      3  O   UNL     1      -4.603  -1.904  23.465  0.00  0.00    -0.491 OA
ATOM     25  C   UNL     1      -5.075  -3.248  23.421  0.00  0.00    +0.277 C 
ENDBRANCH  16   3
BRANCH  19   4
ATOM      4  O   UNL     1      -2.408  -3.561  23.659  0.00  0.00    -0.488 OA
ATOM     29  C   UNL     1      -1.291  -3.620  22.775  0.00  0.00    +0.277 C 
ENDBRANCH  19   4
BRANCH  21   5
ATOM      5  O   UNL     1      -0.404  -2.988  25.482  0.00  0.00    -0.491 OA
ATOM     30  C   UNL     1       0.876  -2.368  25.382  0.00  0.00    +0.277 C 
ENDBRANCH  21   5
ENDBRANCH  13  15
ENDBRANCH   6  13
TORSDOF 8
ENDMDL
MODEL 6
REMARK VINA RESULT:       3.4      2.866      6.156
REMARK  Name = 26743868
REMARK  12 active torsions:
REMARK  status: ('A' for Active; 'I' for Inactive)
REMARK    1  A    between atoms: O_1  and  C_11
REMARK    2  A    between atoms: O_3  and  C_16
REMARK    3  A    between atoms: O_3  and  C_25
REMARK    4  A    between atoms: O_4  and  C_19
REMARK    5  A    between atoms: O_4  and  C_29
REMARK    6  A    between atoms: O_5  and  C_21
REMARK    7  A    between atoms: O_5  and  C_30
REMARK    8  A    between atoms: N_6  and  C_13
REMARK    9  A    between atoms: C_9  and  C_14
REMARK   10  A    between atoms: C_13  and  C_15
REMARK   11  A    between atoms: C_18  and  C_22
REMARK   12  A    between atoms: C_26  and  C_31
REMARK                            x       y       z     vdW  Elec       q    Type
REMARK                         _______ _______ _______ _____ _____    ______ ____
ROOT
ATOM      6  N   UNL     1      -4.276   2.352  24.942  0.00  0.00    -0.284 NA
ATOM      9  C   UNL     1      -3.437   3.565  24.849  0.00  0.00    +0.149 C 
ATOM     10  C   UNL     1      -4.216   4.642  25.626  0.00  0.00    +0.061 C 
ATOM     11  C   UNL     1      -5.498   3.954  26.078  0.00  0.00    +0.130 C 
ATOM     12  C   UNL     1      -5.654   2.813  25.090  0.00  0.00    +0.116 C 
ENDROOT
BRANCH   9  14
ATOM      2  O   UNL     1      -1.041   3.270  24.469  0.00  0.00    -0.336 OA
ATOM      7  N   UNL     1      -1.637   3.223  26.628  0.00  0.00    -0.190 NA
ATOM      8  N   UNL     1       0.140   3.072  25.195  0.00  0.00    -0.056 NA
ATOM     14  C   UNL     1      -2.039   3.349  25.388  0.00  0.00    +0.245 A 
ATOM     18  C   UNL     1      -0.293   3.055  26.459  0.00  0.00    +0.202 A 
BRANCH  18  22
ATOM     22  C   UNL     1       0.588   2.873  27.575  0.00  0.00    +0.023 A 
ATOM     23  C   UNL     1       0.068   2.741  28.863  0.00  0.00    +0.015 A 
ATOM     24  C   UNL     1       1.968   2.828  27.372  0.00  0.00    +0.012 A 
ATOM     26  C   UNL     1       0.926   2.564  29.948  0.00  0.00    -0.050 A 
ATOM     27  C   UNL     1       2.827   2.651  28.458  0.00  0.00    +0.001 A 
ATOM     28  C   UNL     1       2.306   2.518  29.745  0.00  0.00    +0.003 A 
ATOM     31  C   UNL     1       0.370   2.423  31.324  0.00  0.00    +0.044 C 
ENDBRANCH  18  22
ENDBRANCH   9  14
BRANCH  11   1
ATOM      1  O   UNL     1      -6.592   4.848  26.027  0.00  0.00    -0.390 OA
ATOM     32  H   UNL     1      -6.235   5.750  26.077  0.00  0.00    +0.210 HD
ENDBRANCH  11   1
BRANCH   6  13
ATOM     13  C   UNL     1      -4.118   1.456  23.804  0.00  0.00    +0.124 C 
BRANCH  13  15
ATOM     15  C   UNL     1      -3.223   0.289  24.129  0.00  0.00    +0.012 A 
ATOM     16  C   UNL     1      -1.935   0.209  23.601  0.00  0.00    +0.170 A 
ATOM     17  C   UNL     1      -3.696  -0.719  24.970  0.00  0.00    +0.012 A 
ATOM     19  C   UNL     1      -1.119  -0.878  23.913  0.00  0.00    +0.204 A 
ATOM     20  C   UNL     1      -2.881  -1.806  25.282  0.00  0.00    +0.050 A 
ATOM     21  C   UNL     1      -1.593  -1.887  24.754  0.00  0.00    +0.165 A 
BRANCH  16   3
ATOM      3  O   UNL     1      -1.469   1.193  22.779  0.00  0.00    -0.491 OA
ATOM     25  C   UNL     1      -2.356   1.664  21.767  0.00  0.00    +0.277 C 
ENDBRANCH  16   3
BRANCH  19   4
ATOM      4  O   UNL     1       0.140  -0.959  23.396  0.00  0.00    -0.488 OA
ATOM     29  C   UNL     1       0.958   0.205  23.502  0.00  0.00    +0.277 C 
ENDBRANCH  19   4
BRANCH  21   5
ATOM      5  O   UNL     1      -0.808  -2.955  25.067  0.00  0.00    -0.491 OA
ATOM     30  C   UNL     1       0.425  -2.681  25.730  0.00  0.00    +0.277 C 
ENDBRANCH  21   5
ENDBRANCH  13  15
ENDBRANCH   6  13
TORSDOF 8
ENDMDL
MODEL 7
REMARK VINA RESULT:       3.9      1.539      4.519
REMARK  Name = 26743868
REMARK  12 active torsions:
REMARK  status: ('A' for Active; 'I' for Inactive)
REMARK    1  A    between atoms: O_1  and  C_11
REMARK    2  A    between atoms: O_3  and  C_16
REMARK    3  A    between atoms: O_3  and  C_25
REMARK    4  A    between atoms: O_4  and  C_19
REMARK    5  A    between atoms: O_4  and  C_29
REMARK    6  A    between atoms: O_5  and  C_21
REMARK    7  A    between atoms: O_5  and  C_30
REMARK    8  A    between atoms: N_6  and  C_13
REMARK    9  A    between atoms: C_9  and  C_14
REMARK   10  A    between atoms: C_13  and  C_15
REMARK   11  A    between atoms: C_18  and  C_22
REMARK   12  A    between atoms: C_26  and  C_31
REMARK                            x       y       z     vdW  Elec       q    Type
REMARK                         _______ _______ _______ _____ _____    ______ ____
ROOT
ATOM      6  N   UNL     1      -0.513   2.941  25.624  0.00  0.00    -0.284 NA
ATOM      9  C   UNL     1      -0.679   2.569  24.204  0.00  0.00    +0.149 C 
ATOM     10  C   UNL     1      -0.640   3.905  23.440  0.00  0.00    +0.061 C 
ATOM     11  C   UNL     1      -0.493   4.972  24.518  0.00  0.00    +0.130 C 
ATOM     12  C   UNL     1      -1.040   4.297  25.762  0.00  0.00    +0.116 C 
ENDROOT
BRANCH   9  14
ATOM      2  O   UNL     1       0.040   0.805  22.673  0.00  0.00    -0.336 OA
ATOM      7  N   UNL     1       1.581   1.382  24.193  0.00  0.00    -0.190 NA
ATOM      8  N   UNL     1       1.156  -0.003  22.422  0.00  0.00    -0.056 NA
ATOM     14  C   UNL     1       0.375   1.591  23.730  0.00  0.00    +0.245 A 
ATOM     18  C   UNL     1       2.022   0.396  23.358  0.00  0.00    +0.202 A 
BRANCH  18  22
ATOM     22  C   UNL     1       3.334  -0.169  23.488  0.00  0.00    +0.023 A 
ATOM     23  C   UNL     1       4.454   0.662  23.502  0.00  0.00    +0.015 A 
ATOM     24  C   UNL     1       3.488  -1.551  23.599  0.00  0.00    +0.012 A 
ATOM     26  C   UNL     1       5.730   0.112  23.628  0.00  0.00    -0.050 A 
ATOM     27  C   UNL     1       4.765  -2.102  23.725  0.00  0.00    +0.001 A 
ATOM     28  C   UNL     1       5.885  -1.270  23.741  0.00  0.00    +0.003 A 
ATOM     31  C   UNL     1       6.927   0.999  23.645  0.00  0.00    +0.044 C 
ENDBRANCH  18  22
ENDBRANCH   9  14
BRANCH  11   1
ATOM      1  O   UNL     1      -1.231   6.130  24.182  0.00  0.00    -0.390 OA
ATOM     32  H   UNL     1      -1.223   6.211  23.213  0.00  0.00    +0.210 HD
ENDBRANCH  11   1
BRANCH   6  13
ATOM     13  C   UNL     1      -1.154   2.008  26.542  0.00  0.00    +0.124 C 
BRANCH  13  15
ATOM     15  C   UNL     1      -2.101   1.081  25.826  0.00  0.00    +0.012 A 
ATOM     16  C   UNL     1      -3.362   1.520  25.425  0.00  0.00    +0.170 A 
ATOM     17  C   UNL     1      -1.704  -0.232  25.567  0.00  0.00    +0.012 A 
ATOM     19  C   UNL     1      -4.227   0.648  24.763  0.00  0.00    +0.204 A 
ATOM     20  C   UNL     1      -2.568  -1.103  24.905  0.00  0.00    +0.050 A 
ATOM     21  C   UNL     1      -3.830  -0.664  24.503  0.00  0.00    +0.165 A 
BRANCH  16   3
ATOM      3  O   UNL     1      -3.753   2.802  25.676  0.00  0.00    -0.491 OA
ATOM     25  C   UNL     1      -4.044   3.623  24.547  0.00  0.00    +0.277 C 
ENDBRANCH  16   3
BRANCH  19   4
ATOM      4  O   UNL     1      -5.460   1.076  24.370  0.00  0.00    -0.488 OA
ATOM     29  C   UNL     1      -6.381   1.428  25.401  0.00  0.00    +0.277 C 
ENDBRANCH  19   4
BRANCH  21   5
ATOM      5  O   UNL     1      -4.664  -1.527  23.859  0.00  0.00    -0.491 OA
ATOM     30  C   UNL     1      -4.253  -2.891  23.785  0.00  0.00    +0.277 C 
ENDBRANCH  21   5
ENDBRANCH  13  15
ENDBRANCH   6  13
TORSDOF 8
ENDMDL
MODEL 8
REMARK VINA RESULT:       4.2      1.629      4.869
REMARK  Name = 26743868
REMARK  12 active torsions:
REMARK  status: ('A' for Active; 'I' for Inactive)
REMARK    1  A    between atoms: O_1  and  C_11
REMARK    2  A    between atoms: O_3  and  C_16
REMARK    3  A    between atoms: O_3  and  C_25
REMARK    4  A    between atoms: O_4  and  C_19
REMARK    5  A    between atoms: O_4  and  C_29
REMARK    6  A    between atoms: O_5  and  C_21
REMARK    7  A    between atoms: O_5  and  C_30
REMARK    8  A    between atoms: N_6  and  C_13
REMARK    9  A    between atoms: C_9  and  C_14
REMARK   10  A    between atoms: C_13  and  C_15
REMARK   11  A    between atoms: C_18  and  C_22
REMARK   12  A    between atoms: C_26  and  C_31
REMARK                            x       y       z     vdW  Elec       q    Type
REMARK                         _______ _______ _______ _____ _____    ______ ____
ROOT
ATOM      6  N   UNL     1      -2.036   3.012  25.283  0.00  0.00    -0.284 NA
ATOM      9  C   UNL     1      -1.525   3.171  23.906  0.00  0.00    +0.149 C 
ATOM     10  C   UNL     1      -1.008   4.620  23.844  0.00  0.00    +0.061 C 
ATOM     11  C   UNL     1      -1.312   5.207  25.216  0.00  0.00    +0.130 C 
ATOM     12  C   UNL     1      -2.448   4.341  25.728  0.00  0.00    +0.116 C 
ENDROOT
BRANCH   9  14
ATOM      2  O   UNL     1      -0.882   1.029  22.921  0.00  0.00    -0.336 OA
ATOM      7  N   UNL     1       0.829   2.189  23.785  0.00  0.00    -0.190 NA
ATOM      8  N   UNL     1       0.264   0.251  22.708  0.00  0.00    -0.056 NA
ATOM     14  C   UNL     1      -0.460   2.153  23.558  0.00  0.00    +0.245 A 
ATOM     18  C   UNL     1       1.230   1.002  23.245  0.00  0.00    +0.202 A 
BRANCH  18  22
ATOM     22  C   UNL     1       2.605   0.595  23.259  0.00  0.00    +0.023 A 
ATOM     23  C   UNL     1       2.944  -0.712  23.610  0.00  0.00    +0.015 A 
ATOM     24  C   UNL     1       3.604   1.508  22.921  0.00  0.00    +0.012 A 
ATOM     26  C   UNL     1       4.282  -1.107  23.623  0.00  0.00    -0.050 A 
ATOM     27  C   UNL     1       4.943   1.113  22.935  0.00  0.00    +0.001 A 
ATOM     28  C   UNL     1       5.281  -0.194  23.285  0.00  0.00    +0.003 A 
ATOM     31  C   UNL     1       4.644  -2.503  23.997  0.00  0.00    +0.044 C 
ENDBRANCH  18  22
ENDBRANCH   9  14
BRANCH  11   1
ATOM      1  O   UNL     1      -1.694   6.564  25.107  0.00  0.00    -0.390 OA
ATOM     32  H   UNL     1      -1.392   7.019  25.912  0.00  0.00    +0.210 HD
ENDBRANCH  11   1
BRANCH   6  13
ATOM     13  C   UNL     1      -3.118   2.041  25.385  0.00  0.00    +0.124 C 
BRANCH  13  15
ATOM     15  C   UNL     1      -2.603   0.626  25.389  0.00  0.00    +0.012 A 
ATOM     16  C   UNL     1      -3.416  -0.431  24.980  0.00  0.00    +0.170 A 
ATOM     17  C   UNL     1      -1.295   0.378  25.809  0.00  0.00    +0.012 A 
ATOM     19  C   UNL     1      -2.922  -1.735  24.990  0.00  0.00    +0.204 A 
ATOM     20  C   UNL     1      -0.802  -0.926  25.819  0.00  0.00    +0.050 A 
ATOM     21  C   UNL     1      -1.615  -1.983  25.409  0.00  0.00    +0.165 A 
BRANCH  16   3
ATOM      3  O   UNL     1      -4.694  -0.191  24.568  0.00  0.00    -0.491 OA
ATOM     25  C   UNL     1      -5.451   0.751  25.324  0.00  0.00    +0.277 C 
ENDBRANCH  16   3
BRANCH  19   4
ATOM      4  O   UNL     1      -3.716  -2.770  24.591  0.00  0.00    -0.488 OA
ATOM     29  C   UNL     1      -4.305  -2.670  23.296  0.00  0.00    +0.277 C 
ENDBRANCH  19   4
BRANCH  21   5
ATOM      5  O   UNL     1      -1.119  -3.252  25.425  0.00  0.00    -0.491 OA
ATOM     30  C   UNL     1       0.299  -3.393  25.455  0.00  0.00    +0.277 C 
ENDBRANCH  21   5
ENDBRANCH  13  15
ENDBRANCH   6  13
TORSDOF 8
ENDMDL
MODEL 9
REMARK VINA RESULT:       4.2      2.901      6.501
REMARK  Name = 26743868
REMARK  12 active torsions:
REMARK  status: ('A' for Active; 'I' for Inactive)
REMARK    1  A    between atoms: O_1  and  C_11
REMARK    2  A    between atoms: O_3  and  C_16
REMARK    3  A    between atoms: O_3  and  C_25
REMARK    4  A    between atoms: O_4  and  C_19
REMARK    5  A    between atoms: O_4  and  C_29
REMARK    6  A    between atoms: O_5  and  C_21
REMARK    7  A    between atoms: O_5  and  C_30
REMARK    8  A    between atoms: N_6  and  C_13
REMARK    9  A    between atoms: C_9  and  C_14
REMARK   10  A    between atoms: C_13  and  C_15
REMARK   11  A    between atoms: C_18  and  C_22
REMARK   12  A    between atoms: C_26  and  C_31
REMARK                            x       y       z     vdW  Elec       q    Type
REMARK                         _______ _______ _______ _____ _____    ______ ____
ROOT
ATOM      6  N   UNL     1      -3.824   2.465  24.715  0.00  0.00    -0.284 NA
ATOM      9  C   UNL     1      -2.998   3.683  24.844  0.00  0.00    +0.149 C 
ATOM     10  C   UNL     1      -3.851   4.648  25.689  0.00  0.00    +0.061 C 
ATOM     11  C   UNL     1      -5.153   3.901  25.948  0.00  0.00    +0.130 C 
ATOM     12  C   UNL     1      -5.217   2.896  24.813  0.00  0.00    +0.116 C 
ENDROOT
BRANCH   9  14
ATOM      2  O   UNL     1      -0.607   3.247  24.594  0.00  0.00    -0.336 OA
ATOM      7  N   UNL     1      -1.311   3.294  26.720  0.00  0.00    -0.190 NA
ATOM      8  N   UNL     1       0.524   3.005  25.385  0.00  0.00    -0.056 NA
ATOM     14  C   UNL     1      -1.643   3.407  25.459  0.00  0.00    +0.245 A 
ATOM     18  C   UNL     1       0.028   3.048  26.624  0.00  0.00    +0.202 A 
BRANCH  18  22
ATOM     22  C   UNL     1       0.842   2.849  27.788  0.00  0.00    +0.023 A 
ATOM     23  C   UNL     1       0.245   2.672  29.037  0.00  0.00    +0.015 A 
ATOM     24  C   UNL     1       2.232   2.834  27.671  0.00  0.00    +0.012 A 
ATOM     26  C   UNL     1       1.038   2.479  30.168  0.00  0.00    -0.050 A 
ATOM     27  C   UNL     1       3.025   2.641  28.804  0.00  0.00    +0.001 A 
ATOM     28  C   UNL     1       2.428   2.462  30.051  0.00  0.00    +0.003 A 
ATOM     31  C   UNL     1       0.400   2.288  31.502  0.00  0.00    +0.044 C 
ENDBRANCH  18  22
ENDBRANCH   9  14
BRANCH  11   1
ATOM      1  O   UNL     1      -6.254   4.789  25.926  0.00  0.00    -0.390 OA
ATOM     32  H   UNL     1      -5.961   5.627  26.323  0.00  0.00    +0.210 HD
ENDBRANCH  11   1
BRANCH   6  13
ATOM     13  C   UNL     1      -3.566   1.723  23.488  0.00  0.00    +0.124 C 
BRANCH  13  15
ATOM     15  C   UNL     1      -3.399   0.249  23.748  0.00  0.00    +0.012 A 
ATOM     16  C   UNL     1      -2.139  -0.292  24.002  0.00  0.00    +0.170 A 
ATOM     17  C   UNL     1      -4.523  -0.577  23.733  0.00  0.00    +0.012 A 
ATOM     19  C   UNL     1      -2.002  -1.659  24.242  0.00  0.00    +0.204 A 
ATOM     20  C   UNL     1      -4.387  -1.944  23.973  0.00  0.00    +0.050 A 
ATOM     21  C   UNL     1      -3.127  -2.486  24.227  0.00  0.00    +0.165 A 
BRANCH  16   3
ATOM      3  O   UNL     1      -1.039   0.513  24.019  0.00  0.00    -0.491 OA
ATOM     25  C   UNL     1       0.061   0.123  23.199  0.00  0.00    +0.277 C 
ENDBRANCH  16   3
BRANCH  19   4
ATOM      4  O   UNL     1      -0.771  -2.190  24.490  0.00  0.00    -0.488 OA
ATOM     29  C   UNL     1      -0.302  -2.134  25.835  0.00  0.00    +0.277 C 
ENDBRANCH  19   4
BRANCH  21   5
ATOM      5  O   UNL     1      -3.009  -3.823  24.458  0.00  0.00    -0.491 OA
ATOM     30  C   UNL     1      -3.451  -4.700  23.425  0.00  0.00    +0.277 C 
ENDBRANCH  21   5
ENDBRANCH  13  15
ENDBRANCH   6  13
TORSDOF 8
ENDMDL
MODEL 10
REMARK VINA RESULT:       4.7      3.015      6.118
REMARK  Name = 26743868
REMARK  12 active torsions:
REMARK  status: ('A' for Active; 'I' for Inactive)
REMARK    1  A    between atoms: O_1  and  C_11
REMARK    2  A    between atoms: O_3  and  C_16
REMARK    3  A    between atoms: O_3  and  C_25
REMARK    4  A    between atoms: O_4  and  C_19
REMARK    5  A    between atoms: O_4  and  C_29
REMARK    6  A    between atoms: O_5  and  C_21
REMARK    7  A    between atoms: O_5  and  C_30
REMARK    8  A    between atoms: N_6  and  C_13
REMARK    9  A    between atoms: C_9  and  C_14
REMARK   10  A    between atoms: C_13  and  C_15
REMARK   11  A    between atoms: C_18  and  C_22
REMARK   12  A    between atoms: C_26  and  C_31
REMARK                            x       y       z     vdW  Elec       q    Type
REMARK                         _______ _______ _______ _____ _____    ______ ____
ROOT
ATOM      6  N   UNL     1      -3.838   2.582  24.626  0.00  0.00    -0.284 NA
ATOM      9  C   UNL     1      -3.012   3.799  24.768  0.00  0.00    +0.149 C 
ATOM     10  C   UNL     1      -3.877   4.767  25.597  0.00  0.00    +0.061 C 
ATOM     11  C   UNL     1      -5.186   4.022  25.834  0.00  0.00    +0.130 C 
ATOM     12  C   UNL     1      -5.231   3.016  24.699  0.00  0.00    +0.116 C 
ENDROOT
BRANCH   9  14
ATOM      2  O   UNL     1      -0.606   3.424  24.565  0.00  0.00    -0.336 OA
ATOM      7  N   UNL     1      -1.368   3.353  26.670  0.00  0.00    -0.190 NA
ATOM      8  N   UNL     1       0.508   3.167  25.375  0.00  0.00    -0.056 NA
ATOM     14  C   UNL     1      -1.668   3.521  25.407  0.00  0.00    +0.245 A 
ATOM     18  C   UNL     1      -0.022   3.140  26.601  0.00  0.00    +0.202 A 
BRANCH  18  22
ATOM     22  C   UNL     1       0.764   2.902  27.776  0.00  0.00    +0.023 A 
ATOM     23  C   UNL     1       0.142   2.763  29.017  0.00  0.00    +0.015 A 
ATOM     24  C   UNL     1       2.153   2.810  27.678  0.00  0.00    +0.012 A 
ATOM     26  C   UNL     1       0.907   2.531  30.160  0.00  0.00    -0.050 A 
ATOM     27  C   UNL     1       2.918   2.578  28.822  0.00  0.00    +0.001 A 
ATOM     28  C   UNL     1       2.295   2.438  30.062  0.00  0.00    +0.003 A 
ATOM     31  C   UNL     1       0.242   2.382  31.486  0.00  0.00    +0.044 C 
ENDBRANCH  18  22
ENDBRANCH   9  14
BRANCH  11   1
ATOM      1  O   UNL     1      -6.284   4.912  25.791  0.00  0.00    -0.390 OA
ATOM     32  H   UNL     1      -6.858   4.633  25.059  0.00  0.00    +0.210 HD
ENDBRANCH  11   1
BRANCH   6  13
ATOM     13  C   UNL     1      -3.559   1.838  23.404  0.00  0.00    +0.124 C 
BRANCH  13  15
ATOM     15  C   UNL     1      -2.677   0.646  23.663  0.00  0.00    +0.012 A 
ATOM     16  C   UNL     1      -3.192  -0.509  24.252  0.00  0.00    +0.170 A 
ATOM     17  C   UNL     1      -1.329   0.705  23.307  0.00  0.00    +0.012 A 
ATOM     19  C   UNL     1      -2.361  -1.604  24.484  0.00  0.00    +0.204 A 
ATOM     20  C   UNL     1      -0.498  -0.390  23.539  0.00  0.00    +0.050 A 
ATOM     21  C   UNL     1      -1.013  -1.545  24.128  0.00  0.00    +0.165 A 
BRANCH  16   3
ATOM      3  O   UNL     1      -4.510  -0.570  24.600  0.00  0.00    -0.491 OA
ATOM     25  C   UNL     1      -4.849  -0.157  25.922  0.00  0.00    +0.277 C 
ENDBRANCH  16   3
BRANCH  19   4
ATOM      4  O   UNL     1      -2.863  -2.734  25.060  0.00  0.00    -0.488 OA
ATOM     29  C   UNL     1      -3.726  -3.539  24.259  0.00  0.00    +0.277 C 
ENDBRANCH  19   4
BRANCH  21   5
ATOM      5  O   UNL     1      -0.189  -2.607  24.349  0.00  0.00    -0.491 OA
ATOM     30  C   UNL     1       0.375  -2.727  25.653  0.00  0.00    +0.277 C 
ENDBRANCH  21   5
ENDBRANCH  13  15
ENDBRANCH   6  13
TORSDOF 8
ENDMDL
