MODEL 1
REMARK VINA RESULT:      -1.3      0.000      0.000
REMARK  Name = 56776058
REMARK  7 active torsions:
REMARK  status: ('A' for Active; 'I' for Inactive)
REMARK    1  A    between atoms: O_5  and  C_13
REMARK    2  A    between atoms: O_5  and  C_24
REMARK    3  A    between atoms: C_10  and  C_16
REMARK    4  A    between atoms: C_13  and  C_14
REMARK    5  A    between atoms: C_13  and  C_17
REMARK    6  A    between atoms: C_13  and  C_18
REMARK    7  A    between atoms: C_19  and  C_23
REMARK                            x       y       z     vdW  Elec       q    Type
REMARK                         _______ _______ _______ _____ _____    ______ ____
ROOT
ATOM      4  O   UNL     1      -2.833  -2.806  23.927  0.00  0.00    -0.376 OA
ATOM      6  O   UNL     1      -1.723   1.638  25.880  0.00  0.00    -0.272 OA
ATOM      7  N   UNL     1      -2.534  -0.045  24.493  0.00  0.00    -0.284 N 
ATOM     10  C   UNL     1      -1.444  -0.981  24.834  0.00  0.00    +0.168 C 
ATOM     11  C   UNL     1      -3.497  -0.522  23.492  0.00  0.00    +0.136 C 
ATOM     12  C   UNL     1      -1.976  -2.415  25.002  0.00  0.00    +0.190 C 
ATOM     14  C   UNL     1      -2.534   1.242  25.039  0.00  0.00    +0.262 C 
ATOM     15  C   UNL     1      -3.957  -1.934  23.819  0.00  0.00    +0.179 C 
ENDROOT
BRANCH  10  16
ATOM      8  N   UNL     1       1.010  -0.675  24.335  0.00  0.00    -0.340 N 
ATOM      9  N   UNL     1      -0.311  -0.873  22.562  0.00  0.00    -0.238 NA
ATOM     16  C   UNL     1      -0.266  -0.846  23.875  0.00  0.00    +0.130 A 
ATOM     19  C   UNL     1       1.830  -0.586  23.245  0.00  0.00    +0.066 A 
ATOM     20  C   UNL     1       0.991  -0.711  22.163  0.00  0.00    +0.139 A 
ATOM     33  H   UNL     1       1.288  -0.631  25.307  0.00  0.00    +0.167 HD
BRANCH  19  23
ATOM     23  C   UNL     1       3.255  -0.401  23.338  0.00  0.00    -0.000 A 
ATOM     28  C   UNL     1       3.830   0.800  22.927  0.00  0.00    +0.010 A 
ATOM     29  C   UNL     1       4.059  -1.425  23.841  0.00  0.00    +0.010 A 
ATOM     30  C   UNL     1       5.210   0.980  23.019  0.00  0.00    +0.001 A 
ATOM     31  C   UNL     1       5.440  -1.245  23.932  0.00  0.00    +0.001 A 
ATOM     32  C   UNL     1       6.015  -0.043  23.521  0.00  0.00    +0.000 A 
ENDBRANCH  19  23
ENDBRANCH  10  16
BRANCH  14  13
ATOM     13  C   UNL     1      -3.608   2.182  24.553  0.00  0.00    +0.265 C 
BRANCH  13  17
ATOM     17  C   UNL     1      -3.141   3.625  24.575  0.00  0.00    +0.002 A 
ATOM     21  C   UNL     1      -3.880   4.608  23.918  0.00  0.00    +0.007 A 
ATOM     22  C   UNL     1      -1.972   3.968  25.253  0.00  0.00    +0.007 A 
ATOM     25  C   UNL     1      -3.450   5.935  23.938  0.00  0.00    +0.000 A 
ATOM     26  C   UNL     1      -1.542   5.295  25.274  0.00  0.00    +0.000 A 
ATOM     27  C   UNL     1      -2.280   6.278  24.616  0.00  0.00    +0.000 A 
ENDBRANCH  13  17
BRANCH  13  18
ATOM      1  F   UNL     1      -5.009   2.917  26.323  0.00  0.00    -0.167 F 
ATOM      2  F   UNL     1      -4.941   0.774  25.937  0.00  0.00    -0.167 F 
ATOM      3  F   UNL     1      -5.979   2.101  24.552  0.00  0.00    -0.167 F 
ATOM     18  C   UNL     1      -4.890   1.988  25.347  0.00  0.00    +0.431 C 
ENDBRANCH  13  18
BRANCH  13   5
ATOM      5  O   UNL     1      -3.837   1.731  23.218  0.00  0.00    -0.356 OA
ATOM     24  C   UNL     1      -2.805   2.162  22.345  0.00  0.00    +0.196 C 
ENDBRANCH  13   5
ENDBRANCH  14  13
TORSDOF 6
ENDMDL
MODEL 2
REMARK VINA RESULT:      -1.2      1.915      4.193
REMARK  Name = 56776058
REMARK  7 active torsions:
REMARK  status: ('A' for Active; 'I' for Inactive)
REMARK    1  A    between atoms: O_5  and  C_13
REMARK    2  A    between atoms: O_5  and  C_24
REMARK    3  A    between atoms: C_10  and  C_16
REMARK    4  A    between atoms: C_13  and  C_14
REMARK    5  A    between atoms: C_13  and  C_17
REMARK    6  A    between atoms: C_13  and  C_18
REMARK    7  A    between atoms: C_19  and  C_23
REMARK                            x       y       z     vdW  Elec       q    Type
REMARK                         _______ _______ _______ _____ _____    ______ ____
ROOT
ATOM      4  O   UNL     1       0.416   3.574  25.760  0.00  0.00    -0.376 OA
ATOM      6  O   UNL     1      -3.151   1.878  22.727  0.00  0.00    -0.272 OA
ATOM      7  N   UNL     1      -1.731   2.178  24.547  0.00  0.00    -0.284 N 
ATOM     10  C   UNL     1      -0.611   2.659  23.713  0.00  0.00    +0.168 C 
ATOM     11  C   UNL     1      -1.453   2.056  25.984  0.00  0.00    +0.136 C 
ATOM     12  C   UNL     1       0.117   3.836  24.388  0.00  0.00    +0.190 C 
ATOM     14  C   UNL     1      -2.922   1.774  23.935  0.00  0.00    +0.262 C 
ATOM     15  C   UNL     1      -0.771   3.310  26.507  0.00  0.00    +0.179 C 
ENDROOT
BRANCH  10  16
ATOM      8  N   UNL     1       1.603   1.450  23.672  0.00  0.00    -0.340 N 
ATOM      9  N   UNL     1      -0.029   0.501  22.505  0.00  0.00    -0.238 NA
ATOM     16  C   UNL     1       0.297   1.515  23.275  0.00  0.00    +0.130 A 
ATOM     19  C   UNL     1       2.145   0.324  23.120  0.00  0.00    +0.066 A 
ATOM     20  C   UNL     1       1.118  -0.245  22.404  0.00  0.00    +0.139 A 
ATOM     33  H   UNL     1       2.073   2.117  24.273  0.00  0.00    +0.167 HD
BRANCH  19  23
ATOM     23  C   UNL     1       3.513  -0.077  23.319  0.00  0.00    -0.000 A 
ATOM     28  C   UNL     1       4.544   0.841  23.119  0.00  0.00    +0.010 A 
ATOM     29  C   UNL     1       3.807  -1.383  23.712  0.00  0.00    +0.010 A 
ATOM     30  C   UNL     1       5.870   0.453  23.313  0.00  0.00    +0.001 A 
ATOM     31  C   UNL     1       5.133  -1.770  23.904  0.00  0.00    +0.001 A 
ATOM     32  C   UNL     1       6.164  -0.853  23.705  0.00  0.00    +0.000 A 
ENDBRANCH  19  23
ENDBRANCH  10  16
BRANCH  14  13
ATOM     13  C   UNL     1      -3.976   1.180  24.835  0.00  0.00    +0.265 C 
BRANCH  13  17
ATOM     17  C   UNL     1      -3.851  -0.328  24.925  0.00  0.00    +0.002 A 
ATOM     21  C   UNL     1      -4.230  -1.126  23.847  0.00  0.00    +0.007 A 
ATOM     22  C   UNL     1      -3.356  -0.918  26.089  0.00  0.00    +0.007 A 
ATOM     25  C   UNL     1      -4.116  -2.514  23.930  0.00  0.00    +0.000 A 
ATOM     26  C   UNL     1      -3.241  -2.305  26.172  0.00  0.00    +0.000 A 
ATOM     27  C   UNL     1      -3.621  -3.104  25.094  0.00  0.00    +0.000 A 
ENDBRANCH  13  17
BRANCH  13  18
ATOM      1  F   UNL     1      -6.046   0.577  23.841  0.00  0.00    -0.167 F 
ATOM      2  F   UNL     1      -5.319   2.597  23.468  0.00  0.00    -0.167 F 
ATOM      3  F   UNL     1      -6.096   2.061  25.434  0.00  0.00    -0.167 F 
ATOM     18  C   UNL     1      -5.365   1.609  24.389  0.00  0.00    +0.431 C 
ENDBRANCH  13  18
BRANCH  13   5
ATOM      5  O   UNL     1      -3.699   1.801  26.091  0.00  0.00    -0.356 OA
ATOM     24  C   UNL     1      -4.249   3.107  26.152  0.00  0.00    +0.196 C 
ENDBRANCH  13   5
ENDBRANCH  14  13
TORSDOF 6
ENDMDL
MODEL 3
REMARK VINA RESULT:      -0.7      2.068      3.573
REMARK  Name = 56776058
REMARK  7 active torsions:
REMARK  status: ('A' for Active; 'I' for Inactive)
REMARK    1  A    between atoms: O_5  and  C_13
REMARK    2  A    between atoms: O_5  and  C_24
REMARK    3  A    between atoms: C_10  and  C_16
REMARK    4  A    between atoms: C_13  and  C_14
REMARK    5  A    between atoms: C_13  and  C_17
REMARK    6  A    between atoms: C_13  and  C_18
REMARK    7  A    between atoms: C_19  and  C_23
REMARK                            x       y       z     vdW  Elec       q    Type
REMARK                         _______ _______ _______ _____ _____    ______ ____
ROOT
ATOM      4  O   UNL     1       0.235   3.136  25.465  0.00  0.00    -0.376 OA
ATOM      6  O   UNL     1      -2.919   0.916  22.316  0.00  0.00    -0.272 OA
ATOM      7  N   UNL     1      -1.642   1.439  24.190  0.00  0.00    -0.284 N 
ATOM     10  C   UNL     1      -0.558   2.054  23.397  0.00  0.00    +0.168 C 
ATOM     11  C   UNL     1      -1.420   1.383  25.641  0.00  0.00    +0.136 C 
ATOM     12  C   UNL     1      -0.030   3.330  24.075  0.00  0.00    +0.190 C 
ATOM     14  C   UNL     1      -2.736   0.866  23.535  0.00  0.00    +0.262 C 
ATOM     15  C   UNL     1      -0.940   2.727  26.164  0.00  0.00    +0.179 C 
ENDROOT
BRANCH  10  16
ATOM      8  N   UNL     1       1.776   1.109  23.554  0.00  0.00    -0.340 N 
ATOM      9  N   UNL     1       0.388   0.017  22.208  0.00  0.00    -0.238 NA
ATOM     16  C   UNL     1       0.516   1.036  23.028  0.00  0.00    +0.130 A 
ATOM     19  C   UNL     1       2.497   0.070  23.036  0.00  0.00    +0.066 A 
ATOM     20  C   UNL     1       1.619  -0.589  22.208  0.00  0.00    +0.139 A 
ATOM     33  H   UNL     1       2.102   1.805  24.213  0.00  0.00    +0.167 HD
BRANCH  19  23
ATOM     23  C   UNL     1       3.877  -0.177  23.362  0.00  0.00    -0.000 A 
ATOM     28  C   UNL     1       4.814   0.849  23.251  0.00  0.00    +0.010 A 
ATOM     29  C   UNL     1       4.275  -1.443  23.792  0.00  0.00    +0.010 A 
ATOM     30  C   UNL     1       6.151   0.611  23.569  0.00  0.00    +0.001 A 
ATOM     31  C   UNL     1       5.613  -1.682  24.109  0.00  0.00    +0.001 A 
ATOM     32  C   UNL     1       6.551  -0.656  23.997  0.00  0.00    +0.000 A 
ENDBRANCH  19  23
ENDBRANCH  10  16
BRANCH  14  13
ATOM     13  C   UNL     1      -3.743   0.150  24.401  0.00  0.00    +0.265 C 
BRANCH  13  17
ATOM     17  C   UNL     1      -4.654   1.125  25.122  0.00  0.00    +0.002 A 
ATOM     21  C   UNL     1      -5.668   0.649  25.953  0.00  0.00    +0.007 A 
ATOM     22  C   UNL     1      -4.477   2.499  24.955  0.00  0.00    +0.007 A 
ATOM     25  C   UNL     1      -6.506   1.546  26.615  0.00  0.00    +0.000 A 
ATOM     26  C   UNL     1      -5.315   3.395  25.618  0.00  0.00    +0.000 A 
ATOM     27  C   UNL     1      -6.329   2.920  26.448  0.00  0.00    +0.000 A 
ENDBRANCH  13  17
BRANCH  13  18
ATOM      1  F   UNL     1      -3.864  -1.806  25.741  0.00  0.00    -0.167 F 
ATOM      2  F   UNL     1      -2.641  -0.165  26.490  0.00  0.00    -0.167 F 
ATOM      3  F   UNL     1      -1.954  -1.355  24.795  0.00  0.00    -0.167 F 
ATOM     18  C   UNL     1      -3.046  -0.795  25.365  0.00  0.00    +0.431 C 
ENDBRANCH  13  18
BRANCH  13   5
ATOM      5  O   UNL     1      -4.468  -0.633  23.452  0.00  0.00    -0.356 OA
ATOM     24  C   UNL     1      -4.281  -2.021  23.681  0.00  0.00    +0.196 C 
ENDBRANCH  13   5
ENDBRANCH  14  13
TORSDOF 6
ENDMDL
MODEL 4
REMARK VINA RESULT:       0.1      1.601      2.709
REMARK  Name = 56776058
REMARK  7 active torsions:
REMARK  status: ('A' for Active; 'I' for Inactive)
REMARK    1  A    between atoms: O_5  and  C_13
REMARK    2  A    between atoms: O_5  and  C_24
REMARK    3  A    between atoms: C_10  and  C_16
REMARK    4  A    between atoms: C_13  and  C_14
REMARK    5  A    between atoms: C_13  and  C_17
REMARK    6  A    between atoms: C_13  and  C_18
REMARK    7  A    between atoms: C_19  and  C_23
REMARK                            x       y       z     vdW  Elec       q    Type
REMARK                         _______ _______ _______ _____ _____    ______ ____
ROOT
ATOM      4  O   UNL     1      -3.027  -1.897  23.805  0.00  0.00    -0.376 OA
ATOM      6  O   UNL     1      -1.016   1.949  26.247  0.00  0.00    -0.272 OA
ATOM      7  N   UNL     1      -2.164   0.652  24.692  0.00  0.00    -0.284 N 
ATOM     10  C   UNL     1      -1.288  -0.521  24.883  0.00  0.00    +0.168 C 
ATOM     11  C   UNL     1      -3.210   0.510  23.671  0.00  0.00    +0.136 C 
ATOM     12  C   UNL     1      -2.103  -1.827  24.892  0.00  0.00    +0.190 C 
ATOM     14  C   UNL     1      -1.897   1.834  25.389  0.00  0.00    +0.262 C 
ATOM     15  C   UNL     1      -3.948  -0.809  23.838  0.00  0.00    +0.179 C 
ENDROOT
BRANCH  10  16
ATOM      8  N   UNL     1       1.178  -0.433  24.356  0.00  0.00    -0.340 N 
ATOM      9  N   UNL     1      -0.173  -0.567  22.600  0.00  0.00    -0.238 NA
ATOM     16  C   UNL     1      -0.112  -0.510  23.911  0.00  0.00    +0.130 A 
ATOM     19  C   UNL     1       1.992  -0.441  23.258  0.00  0.00    +0.066 A 
ATOM     20  C   UNL     1       1.134  -0.525  22.187  0.00  0.00    +0.139 A 
ATOM     33  H   UNL     1       1.468  -0.386  25.325  0.00  0.00    +0.167 HD
BRANCH  19  23
ATOM     23  C   UNL     1       3.427  -0.372  23.335  0.00  0.00    -0.000 A 
ATOM     28  C   UNL     1       4.094   0.774  22.904  0.00  0.00    +0.010 A 
ATOM     29  C   UNL     1       4.151  -1.452  23.842  0.00  0.00    +0.010 A 
ATOM     30  C   UNL     1       5.485   0.841  22.980  0.00  0.00    +0.001 A 
ATOM     31  C   UNL     1       5.542  -1.385  23.917  0.00  0.00    +0.001 A 
ATOM     32  C   UNL     1       6.210  -0.239  23.486  0.00  0.00    +0.000 A 
ENDBRANCH  19  23
ENDBRANCH  10  16
BRANCH  14  13
ATOM     13  C   UNL     1      -2.757   3.026  25.055  0.00  0.00    +0.265 C 
BRANCH  13  17
ATOM     17  C   UNL     1      -4.209   2.789  25.420  0.00  0.00    +0.002 A 
ATOM     21  C   UNL     1      -4.653   1.501  25.718  0.00  0.00    +0.007 A 
ATOM     22  C   UNL     1      -5.103   3.860  25.458  0.00  0.00    +0.007 A 
ATOM     25  C   UNL     1      -5.989   1.282  26.053  0.00  0.00    +0.000 A 
ATOM     26  C   UNL     1      -6.438   3.641  25.794  0.00  0.00    +0.000 A 
ATOM     27  C   UNL     1      -6.883   2.353  26.091  0.00  0.00    +0.000 A 
ENDBRANCH  13  17
BRANCH  13  18
ATOM      1  F   UNL     1      -3.522   2.803  22.819  0.00  0.00    -0.167 F 
ATOM      2  F   UNL     1      -1.379   3.070  23.111  0.00  0.00    -0.167 F 
ATOM      3  F   UNL     1      -2.741   4.745  23.421  0.00  0.00    -0.167 F 
ATOM     18  C   UNL     1      -2.595   3.411  23.593  0.00  0.00    +0.431 C 
ENDBRANCH  13  18
BRANCH  13   5
ATOM      5  O   UNL     1      -2.183   4.059  25.856  0.00  0.00    -0.356 OA
ATOM     24  C   UNL     1      -1.166   4.752  25.150  0.00  0.00    +0.196 C 
ENDBRANCH  13   5
ENDBRANCH  14  13
TORSDOF 6
ENDMDL
MODEL 5
REMARK VINA RESULT:       0.8      1.437      2.169
REMARK  Name = 56776058
REMARK  7 active torsions:
REMARK  status: ('A' for Active; 'I' for Inactive)
REMARK    1  A    between atoms: O_5  and  C_13
REMARK    2  A    between atoms: O_5  and  C_24
REMARK    3  A    between atoms: C_10  and  C_16
REMARK    4  A    between atoms: C_13  and  C_14
REMARK    5  A    between atoms: C_13  and  C_17
REMARK    6  A    between atoms: C_13  and  C_18
REMARK    7  A    between atoms: C_19  and  C_23
REMARK                            x       y       z     vdW  Elec       q    Type
REMARK                         _______ _______ _______ _____ _____    ______ ____
ROOT
ATOM      4  O   UNL     1      -3.010  -2.452  24.307  0.00  0.00    -0.376 OA
ATOM      6  O   UNL     1      -1.402   1.804  26.330  0.00  0.00    -0.272 OA
ATOM      7  N   UNL     1      -2.450   0.250  24.951  0.00  0.00    -0.284 N 
ATOM     10  C   UNL     1      -1.414  -0.781  25.167  0.00  0.00    +0.168 C 
ATOM     11  C   UNL     1      -3.523  -0.108  24.014  0.00  0.00    +0.136 C 
ATOM     12  C   UNL     1      -2.044  -2.176  25.322  0.00  0.00    +0.190 C 
ATOM     14  C   UNL     1      -2.306   1.508  25.543  0.00  0.00    +0.262 C 
ATOM     15  C   UNL     1      -4.066  -1.494  24.323  0.00  0.00    +0.179 C 
ENDROOT
BRANCH  10  16
ATOM      8  N   UNL     1       1.002  -0.542  24.482  0.00  0.00    -0.340 N 
ATOM      9  N   UNL     1      -0.450  -0.747  22.816  0.00  0.00    -0.238 NA
ATOM     16  C   UNL     1      -0.308  -0.694  24.121  0.00  0.00    +0.130 A 
ATOM     19  C   UNL     1       1.742  -0.496  23.334  0.00  0.00    +0.066 A 
ATOM     20  C   UNL     1       0.823  -0.624  22.319  0.00  0.00    +0.139 A 
ATOM     33  H   UNL     1       1.352  -0.484  25.431  0.00  0.00    +0.167 HD
BRANCH  19  23
ATOM     23  C   UNL     1       3.172  -0.342  23.318  0.00  0.00    -0.000 A 
ATOM     28  C   UNL     1       3.743   0.821  22.801  0.00  0.00    +0.010 A 
ATOM     29  C   UNL     1       3.988  -1.355  23.823  0.00  0.00    +0.010 A 
ATOM     30  C   UNL     1       5.129   0.971  22.787  0.00  0.00    +0.001 A 
ATOM     31  C   UNL     1       5.375  -1.205  23.808  0.00  0.00    +0.001 A 
ATOM     32  C   UNL     1       5.946  -0.043  23.290  0.00  0.00    +0.000 A 
ENDBRANCH  19  23
ENDBRANCH  10  16
BRANCH  14  13
ATOM     13  C   UNL     1      -3.336   2.548  25.182  0.00  0.00    +0.265 C 
BRANCH  13  17
ATOM     17  C   UNL     1      -3.389   2.788  23.686  0.00  0.00    +0.002 A 
ATOM     21  C   UNL     1      -4.281   3.721  23.159  0.00  0.00    +0.007 A 
ATOM     22  C   UNL     1      -2.543   2.075  22.835  0.00  0.00    +0.007 A 
ATOM     25  C   UNL     1      -4.330   3.941  21.782  0.00  0.00    +0.000 A 
ATOM     26  C   UNL     1      -2.591   2.296  21.459  0.00  0.00    +0.000 A 
ATOM     27  C   UNL     1      -3.484   3.228  20.932  0.00  0.00    +0.000 A 
ENDBRANCH  13  17
BRANCH  13  18
ATOM      1  F   UNL     1      -2.962   3.593  27.280  0.00  0.00    -0.167 F 
ATOM      2  F   UNL     1      -4.108   4.714  25.805  0.00  0.00    -0.167 F 
ATOM      3  F   UNL     1      -1.959   4.444  25.544  0.00  0.00    -0.167 F 
ATOM     18  C   UNL     1      -3.094   3.834  25.956  0.00  0.00    +0.431 C 
ENDBRANCH  13  18
BRANCH  13   5
ATOM      5  O   UNL     1      -4.549   1.962  25.657  0.00  0.00    -0.356 OA
ATOM     24  C   UNL     1      -5.665   2.793  25.377  0.00  0.00    +0.196 C 
ENDBRANCH  13   5
ENDBRANCH  14  13
TORSDOF 6
ENDMDL
