MODEL 1
REMARK VINA RESULT:      -5.0      0.000      0.000
REMARK  Name = 11912841
REMARK  7 active torsions:
REMARK  status: ('A' for Active; 'I' for Inactive)
REMARK    1  A    between atoms: O_4  and  C_13
REMARK    2  A    between atoms: O_4  and  C_17
REMARK    3  A    between atoms: O_5  and  C_18
REMARK    4  A    between atoms: O_5  and  C_25
REMARK    5  A    between atoms: N_7  and  C_12
REMARK    6  A    between atoms: C_17  and  C_18
REMARK    7  A    between atoms: C_19  and  C_22
REMARK                            x       y       z     vdW  Elec       q    Type
REMARK                         _______ _______ _______ _____ _____    ______ ____
ROOT
ATOM      7  N   UNL     1      -3.744   4.202  24.649  0.00  0.00    -0.306 N 
ATOM      8  N   UNL     1      -3.853   1.860  24.741  0.00  0.00    -0.214 NA
ATOM      9  N   UNL     1      -5.717   3.213  25.447  0.00  0.00    -0.223 NA
ATOM     16  C   UNL     1      -4.460   3.057  24.955  0.00  0.00    +0.216 A 
ATOM     19  C   UNL     1      -4.578   0.765  25.049  0.00  0.00    +0.076 A 
ATOM     20  C   UNL     1      -6.385   2.076  25.735  0.00  0.00    +0.116 A 
ATOM     21  C   UNL     1      -5.861   0.813  25.555  0.00  0.00    +0.048 A 
ATOM     29  H   UNL     1      -4.186   5.089  24.861  0.00  0.00    +0.149 HD
ENDROOT
BRANCH   7  12
ATOM      2  O   UNL     1      -0.953   4.486  25.987  0.00  0.00    -0.369 OA
ATOM      3  O   UNL     1      -0.608   2.661  23.546  0.00  0.00    -0.369 OA
ATOM     10  C   UNL     1      -1.726   2.870  24.434  0.00  0.00    +0.172 C 
ATOM     11  C   UNL     1      -1.151   3.073  25.822  0.00  0.00    +0.180 C 
ATOM     12  C   UNL     1      -2.397   4.187  24.121  0.00  0.00    +0.130 C 
ATOM     13  C   UNL     1       0.161   2.329  25.745  0.00  0.00    +0.176 C 
ATOM     14  C   UNL     1      -1.527   5.181  24.869  0.00  0.00    +0.185 C 
ATOM     15  C   UNL     1       0.597   2.600  24.323  0.00  0.00    +0.194 C 
BRANCH  13   4
ATOM      4  O   UNL     1       1.114   2.771  26.685  0.00  0.00    -0.360 OA
BRANCH   4  17
ATOM     17  C   UNL     1       0.795   2.346  28.008  0.00  0.00    +0.280 C 
BRANCH  17  18
ATOM      6  O   UNL     1       3.018   3.142  28.553  0.00  0.00    -0.248 OA
ATOM     18  C   UNL     1       1.994   2.566  28.892  0.00  0.00    +0.333 C 
BRANCH  18   5
ATOM      5  O   UNL     1       1.746   2.022  30.119  0.00  0.00    -0.466 OA
ATOM     25  C   UNL     1       0.690   2.639  30.864  0.00  0.00    +0.280 C 
ENDBRANCH  18   5
ENDBRANCH  17  18
ENDBRANCH   4  17
ENDBRANCH  13   4
ENDBRANCH   7  12
BRANCH  19  22
ATOM      1  F   UNL     1      -0.718  -2.105  25.481  0.00  0.00    -0.205 F 
ATOM     22  C   UNL     1      -3.916  -0.496  24.815  0.00  0.00    +0.003 A 
ATOM     23  C   UNL     1      -2.610  -0.697  25.270  0.00  0.00    +0.048 A 
ATOM     24  C   UNL     1      -4.576  -1.520  24.133  0.00  0.00    +0.010 A 
ATOM     26  C   UNL     1      -1.969  -1.916  25.043  0.00  0.00    +0.124 A 
ATOM     27  C   UNL     1      -3.936  -2.738  23.907  0.00  0.00    +0.003 A 
ATOM     28  C   UNL     1      -2.633  -2.936  24.362  0.00  0.00    +0.038 A 
ENDBRANCH  19  22
TORSDOF 6
ENDMDL
MODEL 2
REMARK VINA RESULT:      -3.2     15.847     17.725
REMARK  Name = 11912841
REMARK  7 active torsions:
REMARK  status: ('A' for Active; 'I' for Inactive)
REMARK    1  A    between atoms: O_4  and  C_13
REMARK    2  A    between atoms: O_4  and  C_17
REMARK    3  A    between atoms: O_5  and  C_18
REMARK    4  A    between atoms: O_5  and  C_25
REMARK    5  A    between atoms: N_7  and  C_12
REMARK    6  A    between atoms: C_17  and  C_18
REMARK    7  A    between atoms: C_19  and  C_22
REMARK                            x       y       z     vdW  Elec       q    Type
REMARK                         _______ _______ _______ _____ _____    ______ ____
ROOT
ATOM      7  N   UNL     1      -9.336  -8.863  13.062  0.00  0.00    -0.306 N 
ATOM      8  N   UNL     1      -8.863  -9.114  15.347  0.00  0.00    -0.214 NA
ATOM      9  N   UNL     1     -10.404  -7.427  14.581  0.00  0.00    -0.223 NA
ATOM     16  C   UNL     1      -9.540  -8.455  14.369  0.00  0.00    +0.216 A 
ATOM     19  C   UNL     1      -9.086  -8.692  16.609  0.00  0.00    +0.076 A 
ATOM     20  C   UNL     1     -10.579  -7.057  15.867  0.00  0.00    +0.116 A 
ATOM     21  C   UNL     1      -9.941  -7.658  16.931  0.00  0.00    +0.048 A 
ATOM     29  H   UNL     1      -9.805  -8.332  12.338  0.00  0.00    +0.149 HD
ENDROOT
BRANCH   7  12
ATOM      2  O   UNL     1      -7.870  -9.563  10.412  0.00  0.00    -0.369 OA
ATOM      3  O   UNL     1      -6.104 -10.555  12.717  0.00  0.00    -0.369 OA
ATOM     10  C   UNL     1      -7.020  -9.444  12.623  0.00  0.00    +0.172 C 
ATOM     11  C   UNL     1      -6.891  -8.887  11.219  0.00  0.00    +0.180 C 
ATOM     12  C   UNL     1      -8.445  -9.941  12.690  0.00  0.00    +0.130 C 
ATOM     13  C   UNL     1      -5.484  -9.280  10.838  0.00  0.00    +0.176 C 
ATOM     14  C   UNL     1      -8.707 -10.368  11.256  0.00  0.00    +0.185 C 
ATOM     15  C   UNL     1      -5.339 -10.629  11.505  0.00  0.00    +0.194 C 
BRANCH  13   4
ATOM      4  O   UNL     1      -5.276  -9.351   9.446  0.00  0.00    -0.360 OA
BRANCH   4  17
ATOM     17  C   UNL     1      -4.051 -10.004   9.123  0.00  0.00    +0.280 C 
BRANCH  17  18
ATOM      6  O   UNL     1      -2.646  -8.481  10.381  0.00  0.00    -0.248 OA
ATOM     18  C   UNL     1      -3.014  -9.624  10.146  0.00  0.00    +0.333 C 
BRANCH  18   5
ATOM      5  O   UNL     1      -2.562 -10.756  10.760  0.00  0.00    -0.466 OA
ATOM     25  C   UNL     1      -1.744 -10.546  11.916  0.00  0.00    +0.280 C 
ENDBRANCH  18   5
ENDBRANCH  17  18
ENDBRANCH   4  17
ENDBRANCH  13   4
ENDBRANCH   7  12
BRANCH  19  22
ATOM      1  F   UNL     1      -4.948 -10.440  18.383  0.00  0.00    -0.205 F 
ATOM     22  C   UNL     1      -8.357  -9.403  17.631  0.00  0.00    +0.003 A 
ATOM     23  C   UNL     1      -6.976  -9.582  17.512  0.00  0.00    +0.048 A 
ATOM     24  C   UNL     1      -9.027  -9.916  18.744  0.00  0.00    +0.010 A 
ATOM     26  C   UNL     1      -6.271 -10.270  18.500  0.00  0.00    +0.124 A 
ATOM     27  C   UNL     1      -8.322 -10.603  19.732  0.00  0.00    +0.003 A 
ATOM     28  C   UNL     1      -6.945 -10.780  19.610  0.00  0.00    +0.038 A 
ENDBRANCH  19  22
TORSDOF 6
ENDMDL
MODEL 3
REMARK VINA RESULT:      -3.2      2.180      3.428
REMARK  Name = 11912841
REMARK  7 active torsions:
REMARK  status: ('A' for Active; 'I' for Inactive)
REMARK    1  A    between atoms: O_4  and  C_13
REMARK    2  A    between atoms: O_4  and  C_17
REMARK    3  A    between atoms: O_5  and  C_18
REMARK    4  A    between atoms: O_5  and  C_25
REMARK    5  A    between atoms: N_7  and  C_12
REMARK    6  A    between atoms: C_17  and  C_18
REMARK    7  A    between atoms: C_19  and  C_22
REMARK                            x       y       z     vdW  Elec       q    Type
REMARK                         _______ _______ _______ _____ _____    ______ ____
ROOT
ATOM      7  N   UNL     1      -3.452   4.252  25.574  0.00  0.00    -0.306 N 
ATOM      8  N   UNL     1      -3.609   1.936  25.229  0.00  0.00    -0.214 NA
ATOM      9  N   UNL     1      -5.590   3.288  25.465  0.00  0.00    -0.223 NA
ATOM     16  C   UNL     1      -4.241   3.125  25.418  0.00  0.00    +0.216 A 
ATOM     19  C   UNL     1      -4.408   0.859  25.079  0.00  0.00    +0.076 A 
ATOM     20  C   UNL     1      -6.327   2.169  25.308  0.00  0.00    +0.116 A 
ATOM     21  C   UNL     1      -5.786   0.916  25.111  0.00  0.00    +0.048 A 
ATOM     29  H   UNL     1      -3.932   5.124  25.767  0.00  0.00    +0.149 HD
ENDROOT
BRANCH   7  12
ATOM      2  O   UNL     1      -1.383   1.941  25.773  0.00  0.00    -0.369 OA
ATOM      3  O   UNL     1      -0.142   4.122  24.007  0.00  0.00    -0.369 OA
ATOM     10  C   UNL     1      -1.514   3.722  24.212  0.00  0.00    +0.172 C 
ATOM     11  C   UNL     1      -1.512   2.214  24.368  0.00  0.00    +0.180 C 
ATOM     12  C   UNL     1      -2.006   4.226  25.549  0.00  0.00    +0.130 C 
ATOM     13  C   UNL     1      -0.275   1.808  23.603  0.00  0.00    +0.176 C 
ATOM     14  C   UNL     1      -1.481   3.171  26.507  0.00  0.00    +0.185 C 
ATOM     15  C   UNL     1       0.673   2.947  23.903  0.00  0.00    +0.194 C 
BRANCH  13   4
ATOM      4  O   UNL     1       0.250   0.562  24.003  0.00  0.00    -0.360 OA
BRANCH   4  17
ATOM     17  C   UNL     1       0.360  -0.346  22.909  0.00  0.00    +0.280 C 
BRANCH  17  18
ATOM      6  O   UNL     1       1.937  -0.332  21.068  0.00  0.00    -0.248 OA
ATOM     18  C   UNL     1       1.704  -0.159  22.256  0.00  0.00    +0.333 C 
BRANCH  18   5
ATOM      5  O   UNL     1       2.606   0.233  23.203  0.00  0.00    -0.466 OA
ATOM     25  C   UNL     1       3.847   0.740  22.700  0.00  0.00    +0.280 C 
ENDBRANCH  18   5
ENDBRANCH  17  18
ENDBRANCH   4  17
ENDBRANCH  13   4
ENDBRANCH   7  12
BRANCH  19  22
ATOM      1  F   UNL     1      -0.564  -1.984  25.766  0.00  0.00    -0.205 F 
ATOM     22  C   UNL     1      -3.718  -0.393  24.880  0.00  0.00    +0.003 A 
ATOM     23  C   UNL     1      -2.448  -0.589  25.430  0.00  0.00    +0.048 A 
ATOM     24  C   UNL     1      -4.315  -1.413  24.137  0.00  0.00    +0.010 A 
ATOM     26  C   UNL     1      -1.781  -1.799  25.237  0.00  0.00    +0.124 A 
ATOM     27  C   UNL     1      -3.648  -2.623  23.945  0.00  0.00    +0.003 A 
ATOM     28  C   UNL     1      -2.381  -2.816  24.495  0.00  0.00    +0.038 A 
ENDBRANCH  19  22
TORSDOF 6
ENDMDL
MODEL 4
REMARK VINA RESULT:      -3.1      3.188      5.495
REMARK  Name = 11912841
REMARK  7 active torsions:
REMARK  status: ('A' for Active; 'I' for Inactive)
REMARK    1  A    between atoms: O_4  and  C_13
REMARK    2  A    between atoms: O_4  and  C_17
REMARK    3  A    between atoms: O_5  and  C_18
REMARK    4  A    between atoms: O_5  and  C_25
REMARK    5  A    between atoms: N_7  and  C_12
REMARK    6  A    between atoms: C_17  and  C_18
REMARK    7  A    between atoms: C_19  and  C_22
REMARK                            x       y       z     vdW  Elec       q    Type
REMARK                         _______ _______ _______ _____ _____    ______ ____
ROOT
ATOM      7  N   UNL     1      -4.538  -0.943  25.576  0.00  0.00    -0.306 N 
ATOM      8  N   UNL     1      -3.578   1.166  25.205  0.00  0.00    -0.214 NA
ATOM      9  N   UNL     1      -5.960   0.844  25.034  0.00  0.00    -0.223 NA
ATOM     16  C   UNL     1      -4.697   0.396  25.262  0.00  0.00    +0.216 A 
ATOM     19  C   UNL     1      -3.769   2.465  24.898  0.00  0.00    +0.076 A 
ATOM     20  C   UNL     1      -6.077   2.154  24.731  0.00  0.00    +0.116 A 
ATOM     21  C   UNL     1      -5.007   3.020  24.647  0.00  0.00    +0.048 A 
ATOM     29  H   UNL     1      -5.372  -1.518  25.565  0.00  0.00    +0.149 HD
ENDROOT
BRANCH   7  12
ATOM      2  O   UNL     1      -2.222  -1.866  23.720  0.00  0.00    -0.369 OA
ATOM      3  O   UNL     1      -0.963  -0.992  26.378  0.00  0.00    -0.369 OA
ATOM     10  C   UNL     1      -2.146  -0.541  25.686  0.00  0.00    +0.172 C 
ATOM     11  C   UNL     1      -1.826  -0.572  24.204  0.00  0.00    +0.180 C 
ATOM     12  C   UNL     1      -3.255  -1.556  25.841  0.00  0.00    +0.130 C 
ATOM     13  C   UNL     1      -0.326  -0.404  24.190  0.00  0.00    +0.176 C 
ATOM     14  C   UNL     1      -2.922  -2.568  24.758  0.00  0.00    +0.185 C 
ATOM     15  C   UNL     1       0.093  -1.173  25.422  0.00  0.00    +0.194 C 
BRANCH  13   4
ATOM      4  O   UNL     1       0.285  -0.902  23.021  0.00  0.00    -0.360 OA
BRANCH   4  17
ATOM     17  C   UNL     1       1.161   0.054  22.428  0.00  0.00    +0.280 C 
BRANCH  17  18
ATOM      6  O   UNL     1       2.956  -1.287  23.351  0.00  0.00    -0.248 OA
ATOM     18  C   UNL     1       2.567  -0.224  22.888  0.00  0.00    +0.333 C 
BRANCH  18   5
ATOM      5  O   UNL     1       3.325   0.896  22.698  0.00  0.00    -0.466 OA
ATOM     25  C   UNL     1       4.705   0.774  23.058  0.00  0.00    +0.280 C 
ENDBRANCH  18   5
ENDBRANCH  17  18
ENDBRANCH   4  17
ENDBRANCH  13   4
ENDBRANCH   7  12
BRANCH  19  22
ATOM      1  F   UNL     1       0.935   2.932  23.906  0.00  0.00    -0.205 F 
ATOM     22  C   UNL     1      -2.568   3.265  24.841  0.00  0.00    +0.003 A 
ATOM     23  C   UNL     1      -1.371   2.702  24.392  0.00  0.00    +0.048 A 
ATOM     24  C   UNL     1      -2.598   4.604  25.235  0.00  0.00    +0.010 A 
ATOM     26  C   UNL     1      -0.211   3.474  24.337  0.00  0.00    +0.124 A 
ATOM     27  C   UNL     1      -1.438   5.377  25.181  0.00  0.00    +0.003 A 
ATOM     28  C   UNL     1      -0.244   4.812  24.732  0.00  0.00    +0.038 A 
ENDBRANCH  19  22
TORSDOF 6
ENDMDL
MODEL 5
REMARK VINA RESULT:      -2.7      2.684      5.239
REMARK  Name = 11912841
REMARK  7 active torsions:
REMARK  status: ('A' for Active; 'I' for Inactive)
REMARK    1  A    between atoms: O_4  and  C_13
REMARK    2  A    between atoms: O_4  and  C_17
REMARK    3  A    between atoms: O_5  and  C_18
REMARK    4  A    between atoms: O_5  and  C_25
REMARK    5  A    between atoms: N_7  and  C_12
REMARK    6  A    between atoms: C_17  and  C_18
REMARK    7  A    between atoms: C_19  and  C_22
REMARK                            x       y       z     vdW  Elec       q    Type
REMARK                         _______ _______ _______ _____ _____    ______ ____
ROOT
ATOM      7  N   UNL     1      -5.559  -0.099  24.448  0.00  0.00    -0.306 N 
ATOM      8  N   UNL     1      -4.069   1.659  24.889  0.00  0.00    -0.214 NA
ATOM      9  N   UNL     1      -6.401   1.839  25.470  0.00  0.00    -0.223 NA
ATOM     16  C   UNL     1      -5.337   1.172  24.950  0.00  0.00    +0.216 A 
ATOM     19  C   UNL     1      -3.888   2.899  25.388  0.00  0.00    +0.076 A 
ATOM     20  C   UNL     1      -6.148   3.074  25.951  0.00  0.00    +0.116 A 
ATOM     21  C   UNL     1      -4.900   3.661  25.936  0.00  0.00    +0.048 A 
ATOM     29  H   UNL     1      -6.517  -0.432  24.451  0.00  0.00    +0.149 HD
ENDROOT
BRANCH   7  12
ATOM      2  O   UNL     1      -2.503   0.318  24.071  0.00  0.00    -0.369 OA
ATOM      3  O   UNL     1      -2.971  -2.693  24.429  0.00  0.00    -0.369 OA
ATOM     10  C   UNL     1      -3.676  -1.546  24.949  0.00  0.00    +0.172 C 
ATOM     11  C   UNL     1      -2.632  -0.490  25.252  0.00  0.00    +0.180 C 
ATOM     12  C   UNL     1      -4.522  -0.922  23.864  0.00  0.00    +0.130 C 
ATOM     13  C   UNL     1      -1.393  -1.317  25.503  0.00  0.00    +0.176 C 
ATOM     14  C   UNL     1      -3.516  -0.056  23.126  0.00  0.00    +0.185 C 
ATOM     15  C   UNL     1      -1.560  -2.448  24.513  0.00  0.00    +0.194 C 
BRANCH  13   4
ATOM      4  O   UNL     1      -0.192  -0.607  25.299  0.00  0.00    -0.360 OA
BRANCH   4  17
ATOM     17  C   UNL     1       0.496  -1.048  24.131  0.00  0.00    +0.280 C 
BRANCH  17  18
ATOM      6  O   UNL     1       0.327   1.247  23.369  0.00  0.00    -0.248 OA
ATOM     18  C   UNL     1       0.873   0.154  23.306  0.00  0.00    +0.333 C 
BRANCH  18   5
ATOM      5  O   UNL     1       1.916  -0.177  22.490  0.00  0.00    -0.466 OA
ATOM     25  C   UNL     1       3.130   0.545  22.718  0.00  0.00    +0.280 C 
ENDBRANCH  18   5
ENDBRANCH  17  18
ENDBRANCH   4  17
ENDBRANCH  13   4
ENDBRANCH   7  12
BRANCH  19  22
ATOM      1  F   UNL     1       0.830   2.432  26.309  0.00  0.00    -0.205 F 
ATOM     22  C   UNL     1      -2.536   3.399  25.312  0.00  0.00    +0.003 A 
ATOM     23  C   UNL     1      -1.483   2.660  25.858  0.00  0.00    +0.048 A 
ATOM     24  C   UNL     1      -2.274   4.623  24.694  0.00  0.00    +0.010 A 
ATOM     26  C   UNL     1      -0.177   3.143  25.785  0.00  0.00    +0.124 A 
ATOM     27  C   UNL     1      -0.968   5.107  24.621  0.00  0.00    +0.003 A 
ATOM     28  C   UNL     1       0.081   4.367  25.166  0.00  0.00    +0.038 A 
ENDBRANCH  19  22
TORSDOF 6
ENDMDL
MODEL 6
REMARK VINA RESULT:      -2.1      2.856      5.379
REMARK  Name = 11912841
REMARK  7 active torsions:
REMARK  status: ('A' for Active; 'I' for Inactive)
REMARK    1  A    between atoms: O_4  and  C_13
REMARK    2  A    between atoms: O_4  and  C_17
REMARK    3  A    between atoms: O_5  and  C_18
REMARK    4  A    between atoms: O_5  and  C_25
REMARK    5  A    between atoms: N_7  and  C_12
REMARK    6  A    between atoms: C_17  and  C_18
REMARK    7  A    between atoms: C_19  and  C_22
REMARK                            x       y       z     vdW  Elec       q    Type
REMARK                         _______ _______ _______ _____ _____    ______ ____
ROOT
ATOM      7  N   UNL     1       0.894   3.096  24.417  0.00  0.00    -0.306 N 
ATOM      8  N   UNL     1      -0.273   1.066  24.570  0.00  0.00    -0.214 NA
ATOM      9  N   UNL     1       1.645   1.284  23.127  0.00  0.00    -0.223 NA
ATOM     16  C   UNL     1       0.751   1.776  24.026  0.00  0.00    +0.216 A 
ATOM     19  C   UNL     1      -0.382  -0.217  24.168  0.00  0.00    +0.076 A 
ATOM     20  C   UNL     1       1.476  -0.006  22.769  0.00  0.00    +0.116 A 
ATOM     21  C   UNL     1       0.471  -0.812  23.261  0.00  0.00    +0.048 A 
ATOM     29  H   UNL     1       1.628   3.630  23.966  0.00  0.00    +0.149 HD
ENDROOT
BRANCH   7  12
ATOM      2  O   UNL     1      -1.849   4.524  24.105  0.00  0.00    -0.369 OA
ATOM      3  O   UNL     1      -1.787   3.280  26.909  0.00  0.00    -0.369 OA
ATOM     10  C   UNL     1      -1.175   2.872  25.667  0.00  0.00    +0.172 C 
ATOM     11  C   UNL     1      -2.162   3.199  24.564  0.00  0.00    +0.180 C 
ATOM     12  C   UNL     1       0.016   3.750  25.363  0.00  0.00    +0.130 C 
ATOM     13  C   UNL     1      -3.487   3.156  25.287  0.00  0.00    +0.176 C 
ATOM     14  C   UNL     1      -0.632   4.967  24.725  0.00  0.00    +0.185 C 
ATOM     15  C   UNL     1      -3.128   3.717  26.644  0.00  0.00    +0.194 C 
BRANCH  13   4
ATOM      4  O   UNL     1      -4.499   3.907  24.654  0.00  0.00    -0.360 OA
BRANCH   4  17
ATOM     17  C   UNL     1      -5.706   3.919  25.412  0.00  0.00    +0.280 C 
BRANCH  17  18
ATOM      6  O   UNL     1      -6.318   2.117  26.913  0.00  0.00    -0.248 OA
ATOM     18  C   UNL     1      -6.063   2.504  25.780  0.00  0.00    +0.333 C 
BRANCH  18   5
ATOM      5  O   UNL     1      -6.058   1.737  24.651  0.00  0.00    -0.466 OA
ATOM     25  C   UNL     1      -5.179   0.608  24.676  0.00  0.00    +0.280 C 
ENDBRANCH  18   5
ENDBRANCH  17  18
ENDBRANCH   4  17
ENDBRANCH  13   4
ENDBRANCH   7  12
BRANCH  19  22
ATOM      1  F   UNL     1      -3.842  -3.574  23.865  0.00  0.00    -0.205 F 
ATOM     22  C   UNL     1      -1.476  -0.953  24.756  0.00  0.00    +0.003 A 
ATOM     23  C   UNL     1      -2.146  -1.928  24.012  0.00  0.00    +0.048 A 
ATOM     24  C   UNL     1      -1.870  -0.693  26.070  0.00  0.00    +0.010 A 
ATOM     26  C   UNL     1      -3.203  -2.639  24.581  0.00  0.00    +0.124 A 
ATOM     27  C   UNL     1      -2.927  -1.404  26.638  0.00  0.00    +0.003 A 
ATOM     28  C   UNL     1      -3.594  -2.377  25.894  0.00  0.00    +0.038 A 
ENDBRANCH  19  22
TORSDOF 6
ENDMDL
MODEL 7
REMARK VINA RESULT:      -1.5      3.598      6.907
REMARK  Name = 11912841
REMARK  7 active torsions:
REMARK  status: ('A' for Active; 'I' for Inactive)
REMARK    1  A    between atoms: O_4  and  C_13
REMARK    2  A    between atoms: O_4  and  C_17
REMARK    3  A    between atoms: O_5  and  C_18
REMARK    4  A    between atoms: O_5  and  C_25
REMARK    5  A    between atoms: N_7  and  C_12
REMARK    6  A    between atoms: C_17  and  C_18
REMARK    7  A    between atoms: C_19  and  C_22
REMARK                            x       y       z     vdW  Elec       q    Type
REMARK                         _______ _______ _______ _____ _____    ______ ____
ROOT
ATOM      7  N   UNL     1       0.271  -1.649  24.455  0.00  0.00    -0.306 N 
ATOM      8  N   UNL     1       0.007   0.681  24.513  0.00  0.00    -0.214 NA
ATOM      9  N   UNL     1       1.851  -0.325  23.333  0.00  0.00    -0.223 NA
ATOM     16  C   UNL     1       0.724  -0.393  24.090  0.00  0.00    +0.216 A 
ATOM     19  C   UNL     1       0.476   1.890  24.139  0.00  0.00    +0.076 A 
ATOM     20  C   UNL     1       2.263   0.915  22.996  0.00  0.00    +0.116 A 
ATOM     21  C   UNL     1       1.610   2.070  23.374  0.00  0.00    +0.048 A 
ATOM     29  H   UNL     1       0.841  -2.440  24.178  0.00  0.00    +0.149 HD
ENDROOT
BRANCH   7  12
ATOM      2  O   UNL     1      -2.311   0.020  24.908  0.00  0.00    -0.369 OA
ATOM      3  O   UNL     1      -3.083  -2.938  25.172  0.00  0.00    -0.369 OA
ATOM     10  C   UNL     1      -2.072  -2.280  24.380  0.00  0.00    +0.172 C 
ATOM     11  C   UNL     1      -2.664  -0.963  23.920  0.00  0.00    +0.180 C 
ATOM     12  C   UNL     1      -0.911  -1.872  25.257  0.00  0.00    +0.130 C 
ATOM     13  C   UNL     1      -4.146  -1.251  23.922  0.00  0.00    +0.176 C 
ATOM     14  C   UNL     1      -1.399  -0.562  25.852  0.00  0.00    +0.185 C 
ATOM     15  C   UNL     1      -4.291  -2.165  25.118  0.00  0.00    +0.194 C 
BRANCH  13   4
ATOM      4  O   UNL     1      -4.945  -0.095  24.039  0.00  0.00    -0.360 OA
BRANCH   4  17
ATOM     17  C   UNL     1      -4.909   0.447  25.357  0.00  0.00    +0.280 C 
BRANCH  17  18
ATOM      6  O   UNL     1      -5.521   2.614  26.252  0.00  0.00    -0.248 OA
ATOM     18  C   UNL     1      -5.242   1.913  25.289  0.00  0.00    +0.333 C 
BRANCH  18   5
ATOM      5  O   UNL     1      -5.180   2.323  23.988  0.00  0.00    -0.466 OA
ATOM     25  C   UNL     1      -4.015   3.075  23.634  0.00  0.00    +0.280 C 
ENDBRANCH  18   5
ENDBRANCH  17  18
ENDBRANCH   4  17
ENDBRANCH  13   4
ENDBRANCH   7  12
BRANCH  19  22
ATOM      1  F   UNL     1      -2.838   3.795  27.092  0.00  0.00    -0.205 F 
ATOM     22  C   UNL     1      -0.299   3.018  24.600  0.00  0.00    +0.003 A 
ATOM     23  C   UNL     1      -1.214   2.860  25.645  0.00  0.00    +0.048 A 
ATOM     24  C   UNL     1      -0.138   4.270  24.005  0.00  0.00    +0.010 A 
ATOM     26  C   UNL     1      -1.963   3.950  26.090  0.00  0.00    +0.124 A 
ATOM     27  C   UNL     1      -0.886   5.360  24.450  0.00  0.00    +0.003 A 
ATOM     28  C   UNL     1      -1.798   5.199  25.492  0.00  0.00    +0.038 A 
ENDBRANCH  19  22
TORSDOF 6
ENDMDL
