MODEL 1
REMARK VINA RESULT:       5.9      0.000      0.000
REMARK  Name = 45360480
REMARK  11 active torsions:
REMARK  status: ('A' for Active; 'I' for Inactive)
REMARK    1  A    between atoms: N_3  and  C_15
REMARK    2  A    between atoms: N_3  and  C_17
REMARK    3  A    between atoms: C_9  and  C_15
REMARK    4  A    between atoms: C_10  and  C_16
REMARK    5  A    between atoms: C_23  and  C_25
REMARK    6  A    between atoms: C_24  and  C_29
REMARK    7  A    between atoms: C_25  and  C_26
REMARK    8  A    between atoms: C_25  and  C_27
REMARK    9  A    between atoms: C_26  and  C_30
REMARK   10  A    between atoms: C_27  and  C_31
REMARK   11  A    between atoms: C_28  and  C_32
REMARK                            x       y       z     vdW  Elec       q    Type
REMARK                         _______ _______ _______ _____ _____    ______ ____
ROOT
ATOM      2  N   UNL     1      -4.450   3.728  23.833  0.00  0.00    -0.298 NA
ATOM      8  C   UNL     1      -2.537   4.960  25.100  0.00  0.00    +0.002 C 
ATOM      9  C   UNL     1      -4.724   3.725  25.294  0.00  0.00    +0.071 C 
ATOM     10  C   UNL     1      -1.950   3.905  24.122  0.00  0.00    +0.055 C 
ATOM     11  C   UNL     1      -3.509   4.264  26.077  0.00  0.00    +0.024 C 
ATOM     12  C   UNL     1      -3.374   5.939  24.249  0.00  0.00    +0.019 C 
ATOM     13  C   UNL     1      -3.142   3.079  23.559  0.00  0.00    +0.094 C 
ATOM     14  C   UNL     1      -4.369   5.139  23.388  0.00  0.00    +0.085 C 
ENDROOT
BRANCH  10  16
ATOM      4  N   UNL     1      -0.434   3.184  25.900  0.00  0.00    -0.232 NA
ATOM      6  N   UNL     1       1.208   1.452  25.565  0.00  0.00    -0.232 NA
ATOM     16  C   UNL     1      -0.818   3.017  24.617  0.00  0.00    +0.050 A 
ATOM     18  C   UNL     1      -0.243   2.102  23.759  0.00  0.00    +0.047 A 
ATOM     23  C   UNL     1       0.775   1.339  24.293  0.00  0.00    +0.048 A 
ATOM     24  C   UNL     1       0.569   2.381  26.303  0.00  0.00    +0.160 A 
BRANCH  24  29
ATOM      7  N   UNL     1       1.859   2.826  30.311  0.00  0.00    -0.263 NA
ATOM     29  C   UNL     1       1.008   2.531  27.665  0.00  0.00    +0.022 A 
ATOM     33  C   UNL     1       2.343   2.804  27.943  0.00  0.00    +0.031 A 
ATOM     34  C   UNL     1       0.098   2.407  28.709  0.00  0.00    +0.031 A 
ATOM     35  C   UNL     1       2.714   2.941  29.271  0.00  0.00    +0.111 A 
ATOM     36  C   UNL     1       0.570   2.562  30.002  0.00  0.00    +0.111 A 
ENDBRANCH  24  29
BRANCH  23  25
ATOM     25  C   UNL     1       1.455   0.321  23.440  0.00  0.00    +0.037 C 
BRANCH  25  26
ATOM     26  C   UNL     1       0.512  -0.308  22.372  0.00  0.00    +0.006 C 
ATOM     30  C   UNL     1       1.244  -0.698  21.092  0.00  0.00    +0.004 C 
ENDBRANCH  25  26
BRANCH  25  27
ATOM     27  C   UNL     1       2.720   0.873  22.721  0.00  0.00    +0.006 C 
ATOM     31  C   UNL     1       4.008   0.211  23.198  0.00  0.00    +0.004 C 
ENDBRANCH  25  27
ENDBRANCH  23  25
ENDBRANCH  10  16
BRANCH   9  15
ATOM     15  C   UNL     1      -5.166   2.350  25.800  0.00  0.00    +0.100 C 
BRANCH  15   3
ATOM      3  N   UNL     1      -5.183   1.382  24.715  0.00  0.00    -0.312 NA
ATOM     37  H   UNL     1      -4.645   1.753  23.932  0.00  0.00    +0.122 HD
BRANCH   3  17
ATOM      1  O   UNL     1      -0.227  -2.214  25.264  0.00  0.00    -0.276 OA
ATOM      5  N   UNL     1      -2.513  -1.880  25.021  0.00  0.00    -0.302 N 
ATOM     17  C   UNL     1      -4.618   0.105  25.142  0.00  0.00    +0.057 C 
ATOM     19  C   UNL     1      -3.259   0.332  25.818  0.00  0.00    +0.037 C 
ATOM     20  C   UNL     1      -4.468  -0.834  23.939  0.00  0.00    +0.037 C 
ATOM     21  C   UNL     1      -2.606  -0.999  26.188  0.00  0.00    +0.109 C 
ATOM     22  C   UNL     1      -3.790  -2.143  24.346  0.00  0.00    +0.109 C 
ATOM     28  C   UNL     1      -1.281  -2.423  24.658  0.00  0.00    +0.212 C 
ATOM     32  C   UNL     1      -1.268  -3.316  23.443  0.00  0.00    +0.109 C 
ENDBRANCH   3  17
ENDBRANCH  15   3
ENDBRANCH   9  15
TORSDOF 8
ENDMDL
MODEL 2
REMARK VINA RESULT:       6.0      2.744      5.466
REMARK  Name = 45360480
REMARK  11 active torsions:
REMARK  status: ('A' for Active; 'I' for Inactive)
REMARK    1  A    between atoms: N_3  and  C_15
REMARK    2  A    between atoms: N_3  and  C_17
REMARK    3  A    between atoms: C_9  and  C_15
REMARK    4  A    between atoms: C_10  and  C_16
REMARK    5  A    between atoms: C_23  and  C_25
REMARK    6  A    between atoms: C_24  and  C_29
REMARK    7  A    between atoms: C_25  and  C_26
REMARK    8  A    between atoms: C_25  and  C_27
REMARK    9  A    between atoms: C_26  and  C_30
REMARK   10  A    between atoms: C_27  and  C_31
REMARK   11  A    between atoms: C_28  and  C_32
REMARK                            x       y       z     vdW  Elec       q    Type
REMARK                         _______ _______ _______ _____ _____    ______ ____
ROOT
ATOM      2  N   UNL     1      -3.504  -1.985  25.744  0.00  0.00    -0.298 NA
ATOM      8  C   UNL     1      -1.456  -2.600  24.257  0.00  0.00    +0.002 C 
ATOM      9  C   UNL     1      -3.902  -2.000  24.312  0.00  0.00    +0.071 C 
ATOM     10  C   UNL     1      -1.085  -1.464  25.250  0.00  0.00    +0.055 C 
ATOM     11  C   UNL     1      -2.664  -2.157  23.404  0.00  0.00    +0.024 C 
ATOM     12  C   UNL     1      -1.918  -3.802  25.107  0.00  0.00    +0.019 C 
ATOM     13  C   UNL     1      -2.398  -1.017  25.954  0.00  0.00    +0.094 C 
ATOM     14  C   UNL     1      -3.006  -3.338  26.092  0.00  0.00    +0.085 C 
ENDROOT
BRANCH  10  16
ATOM      4  N   UNL     1      -0.775   0.947  24.981  0.00  0.00    -0.232 NA
ATOM      6  N   UNL     1       1.114   1.877  23.809  0.00  0.00    -0.232 NA
ATOM     16  C   UNL     1      -0.282  -0.283  24.724  0.00  0.00    +0.050 A 
ATOM     18  C   UNL     1       0.887  -0.509  24.027  0.00  0.00    +0.047 A 
ATOM     23  C   UNL     1       1.549   0.619  23.589  0.00  0.00    +0.048 A 
ATOM     24  C   UNL     1      -0.038   1.967  24.501  0.00  0.00    +0.160 A 
BRANCH  24  29
ATOM      7  N   UNL     1      -1.499   5.872  25.238  0.00  0.00    -0.263 NA
ATOM     29  C   UNL     1      -0.534   3.294  24.752  0.00  0.00    +0.022 A 
ATOM     33  C   UNL     1      -0.151   4.349  23.931  0.00  0.00    +0.031 A 
ATOM     34  C   UNL     1      -1.400   3.527  25.815  0.00  0.00    +0.031 A 
ATOM     35  C   UNL     1      -0.657   5.608  24.214  0.00  0.00    +0.111 A 
ATOM     36  C   UNL     1      -1.850   4.822  26.013  0.00  0.00    +0.111 A 
ENDBRANCH  24  29
BRANCH  23  25
ATOM     25  C   UNL     1       2.823   0.473  22.826  0.00  0.00    +0.037 C 
BRANCH  25  26
ATOM     26  C   UNL     1       3.898  -0.358  23.587  0.00  0.00    +0.006 C 
ATOM     30  C   UNL     1       5.273   0.301  23.576  0.00  0.00    +0.004 C 
ENDBRANCH  25  26
BRANCH  25  27
ATOM     27  C   UNL     1       2.622  -0.151  21.414  0.00  0.00    +0.006 C 
ATOM     31  C   UNL     1       1.191  -0.615  21.171  0.00  0.00    +0.004 C 
ENDBRANCH  25  27
ENDBRANCH  23  25
ENDBRANCH  10  16
BRANCH   9  15
ATOM     15  C   UNL     1      -4.740  -0.778  23.928  0.00  0.00    +0.100 C 
BRANCH  15   3
ATOM      3  N   UNL     1      -3.919   0.220  23.261  0.00  0.00    -0.312 NA
ATOM     37  H   UNL     1      -4.335   0.440  22.357  0.00  0.00    +0.122 HD
BRANCH   3  17
ATOM      1  O   UNL     1      -6.777   4.655  26.418  0.00  0.00    -0.276 OA
ATOM      5  N   UNL     1      -5.007   3.839  25.154  0.00  0.00    -0.302 N 
ATOM     17  C   UNL     1      -3.816   1.435  24.065  0.00  0.00    +0.057 C 
ATOM     19  C   UNL     1      -4.813   1.382  25.230  0.00  0.00    +0.037 C 
ATOM     20  C   UNL     1      -4.076   2.669  23.192  0.00  0.00    +0.037 C 
ATOM     21  C   UNL     1      -4.789   2.684  26.028  0.00  0.00    +0.109 C 
ATOM     22  C   UNL     1      -4.066   3.947  24.032  0.00  0.00    +0.109 C 
ATOM     28  C   UNL     1      -6.022   4.749  25.447  0.00  0.00    +0.212 C 
ATOM     32  C   UNL     1      -6.184   5.909  24.497  0.00  0.00    +0.109 C 
ENDBRANCH   3  17
ENDBRANCH  15   3
ENDBRANCH   9  15
TORSDOF 8
ENDMDL
MODEL 3
REMARK VINA RESULT:       7.0      1.045      4.203
REMARK  Name = 45360480
REMARK  11 active torsions:
REMARK  status: ('A' for Active; 'I' for Inactive)
REMARK    1  A    between atoms: N_3  and  C_15
REMARK    2  A    between atoms: N_3  and  C_17
REMARK    3  A    between atoms: C_9  and  C_15
REMARK    4  A    between atoms: C_10  and  C_16
REMARK    5  A    between atoms: C_23  and  C_25
REMARK    6  A    between atoms: C_24  and  C_29
REMARK    7  A    between atoms: C_25  and  C_26
REMARK    8  A    between atoms: C_25  and  C_27
REMARK    9  A    between atoms: C_26  and  C_30
REMARK   10  A    between atoms: C_27  and  C_31
REMARK   11  A    between atoms: C_28  and  C_32
REMARK                            x       y       z     vdW  Elec       q    Type
REMARK                         _______ _______ _______ _____ _____    ______ ____
ROOT
ATOM      2  N   UNL     1      -4.812   3.511  24.201  0.00  0.00    -0.298 NA
ATOM      8  C   UNL     1      -3.065   4.806  25.633  0.00  0.00    +0.002 C 
ATOM      9  C   UNL     1      -5.099   3.319  25.647  0.00  0.00    +0.071 C 
ATOM     10  C   UNL     1      -2.351   3.936  24.562  0.00  0.00    +0.055 C 
ATOM     11  C   UNL     1      -3.961   3.904  26.509  0.00  0.00    +0.024 C 
ATOM     12  C   UNL     1      -3.999   5.771  24.872  0.00  0.00    +0.019 C 
ATOM     13  C   UNL     1      -3.436   3.047  23.889  0.00  0.00    +0.094 C 
ATOM     14  C   UNL     1      -4.888   4.962  23.910  0.00  0.00    +0.085 C 
ENDROOT
BRANCH  10  16
ATOM      4  N   UNL     1      -0.496   2.438  24.017  0.00  0.00    -0.232 NA
ATOM      6  N   UNL     1       1.070   1.674  25.683  0.00  0.00    -0.232 NA
ATOM     16  C   UNL     1      -1.130   3.133  24.986  0.00  0.00    +0.050 A 
ATOM     18  C   UNL     1      -0.729   3.146  26.306  0.00  0.00    +0.047 A 
ATOM     23  C   UNL     1       0.388   2.392  26.599  0.00  0.00    +0.048 A 
ATOM     24  C   UNL     1       0.580   1.741  24.430  0.00  0.00    +0.160 A 
BRANCH  24  29
ATOM      7  N   UNL     1       2.640  -0.483  21.474  0.00  0.00    -0.263 NA
ATOM     29  C   UNL     1       1.280   0.984  23.426  0.00  0.00    +0.022 A 
ATOM     33  C   UNL     1       0.594   0.067  22.638  0.00  0.00    +0.031 A 
ATOM     34  C   UNL     1       2.646   1.169  23.238  0.00  0.00    +0.031 A 
ATOM     35  C   UNL     1       1.314  -0.636  21.684  0.00  0.00    +0.111 A 
ATOM     36  C   UNL     1       3.273   0.418  22.258  0.00  0.00    +0.111 A 
ENDBRANCH  24  29
BRANCH  23  25
ATOM     25  C   UNL     1       0.897   2.347  28.001  0.00  0.00    +0.037 C 
BRANCH  25  26
ATOM     26  C   UNL     1       2.180   3.203  28.212  0.00  0.00    +0.006 C 
ATOM     30  C   UNL     1       3.242   2.485  29.036  0.00  0.00    +0.004 C 
ENDBRANCH  25  26
BRANCH  25  27
ATOM     27  C   UNL     1      -0.167   2.780  29.052  0.00  0.00    +0.006 C 
ATOM     31  C   UNL     1       0.418   2.959  30.448  0.00  0.00    +0.004 C 
ENDBRANCH  25  27
ENDBRANCH  23  25
ENDBRANCH  10  16
BRANCH   9  15
ATOM     15  C   UNL     1      -5.385   1.857  25.995  0.00  0.00    +0.100 C 
BRANCH  15   3
ATOM      3  N   UNL     1      -5.151   0.999  24.844  0.00  0.00    -0.312 NA
ATOM     37  H   UNL     1      -4.589   1.506  24.162  0.00  0.00    +0.122 HD
BRANCH   3  17
ATOM      1  O   UNL     1       0.109  -2.170  25.151  0.00  0.00    -0.276 OA
ATOM      5  N   UNL     1      -2.206  -2.028  25.010  0.00  0.00    -0.302 N 
ATOM     17  C   UNL     1      -4.462  -0.228  25.237  0.00  0.00    +0.057 C 
ATOM     19  C   UNL     1      -3.099   0.110  25.856  0.00  0.00    +0.037 C 
ATOM     20  C   UNL     1      -4.287  -1.147  24.022  0.00  0.00    +0.037 C 
ATOM     21  C   UNL     1      -2.321  -1.163  26.187  0.00  0.00    +0.109 C 
ATOM     22  C   UNL     1      -3.485  -2.395  24.390  0.00  0.00    +0.109 C 
ATOM     28  C   UNL     1      -0.950  -2.465  24.590  0.00  0.00    +0.212 C 
ATOM     32  C   UNL     1      -0.916  -3.349  23.370  0.00  0.00    +0.109 C 
ENDBRANCH   3  17
ENDBRANCH  15   3
ENDBRANCH   9  15
TORSDOF 8
ENDMDL
MODEL 4
REMARK VINA RESULT:       7.9      2.331      5.987
REMARK  Name = 45360480
REMARK  11 active torsions:
REMARK  status: ('A' for Active; 'I' for Inactive)
REMARK    1  A    between atoms: N_3  and  C_15
REMARK    2  A    between atoms: N_3  and  C_17
REMARK    3  A    between atoms: C_9  and  C_15
REMARK    4  A    between atoms: C_10  and  C_16
REMARK    5  A    between atoms: C_23  and  C_25
REMARK    6  A    between atoms: C_24  and  C_29
REMARK    7  A    between atoms: C_25  and  C_26
REMARK    8  A    between atoms: C_25  and  C_27
REMARK    9  A    between atoms: C_26  and  C_30
REMARK   10  A    between atoms: C_27  and  C_31
REMARK   11  A    between atoms: C_28  and  C_32
REMARK                            x       y       z     vdW  Elec       q    Type
REMARK                         _______ _______ _______ _____ _____    ______ ____
ROOT
ATOM      2  N   UNL     1      -3.464  -2.311  25.711  0.00  0.00    -0.298 NA
ATOM      8  C   UNL     1      -2.275  -2.229  23.395  0.00  0.00    +0.002 C 
ATOM      9  C   UNL     1      -4.284  -1.532  24.746  0.00  0.00    +0.071 C 
ATOM     10  C   UNL     1      -1.289  -1.827  24.527  0.00  0.00    +0.055 C 
ATOM     11  C   UNL     1      -3.505  -1.296  23.436  0.00  0.00    +0.024 C 
ATOM     12  C   UNL     1      -2.774  -3.652  23.724  0.00  0.00    +0.019 C 
ATOM     13  C   UNL     1      -2.116  -1.703  25.840  0.00  0.00    +0.094 C 
ATOM     14  C   UNL     1      -3.304  -3.682  25.169  0.00  0.00    +0.085 C 
ENDROOT
BRANCH  10  16
ATOM      4  N   UNL     1       0.904  -0.883  23.999  0.00  0.00    -0.232 NA
ATOM      6  N   UNL     1       1.285   1.493  23.880  0.00  0.00    -0.232 NA
ATOM     16  C   UNL     1      -0.386  -0.624  24.301  0.00  0.00    +0.050 A 
ATOM     18  C   UNL     1      -0.905   0.650  24.408  0.00  0.00    +0.047 A 
ATOM     23  C   UNL     1      -0.016   1.680  24.185  0.00  0.00    +0.048 A 
ATOM     24  C   UNL     1       1.673   0.205  23.805  0.00  0.00    +0.160 A 
BRANCH  24  29
ATOM      7  N   UNL     1       5.742  -0.490  22.864  0.00  0.00    -0.263 NA
ATOM     29  C   UNL     1       3.055  -0.031  23.484  0.00  0.00    +0.022 A 
ATOM     33  C   UNL     1       3.786   0.929  22.793  0.00  0.00    +0.031 A 
ATOM     34  C   UNL     1       3.667  -1.221  23.866  0.00  0.00    +0.031 A 
ATOM     35  C   UNL     1       5.115   0.653  22.510  0.00  0.00    +0.111 A 
ATOM     36  C   UNL     1       5.000  -1.399  23.535  0.00  0.00    +0.111 A 
ENDBRANCH  24  29
BRANCH  23  25
ATOM     25  C   UNL     1      -0.488   3.092  24.278  0.00  0.00    +0.037 C 
BRANCH  25  26
ATOM     26  C   UNL     1      -0.237   3.729  25.677  0.00  0.00    +0.006 C 
ATOM     30  C   UNL     1       0.118   2.697  26.741  0.00  0.00    +0.004 C 
ENDBRANCH  25  26
BRANCH  25  27
ATOM     27  C   UNL     1       0.136   4.017  23.192  0.00  0.00    +0.006 C 
ATOM     31  C   UNL     1      -0.006   5.498  23.526  0.00  0.00    +0.004 C 
ENDBRANCH  25  27
ENDBRANCH  23  25
ENDBRANCH  10  16
BRANCH   9  15
ATOM     15  C   UNL     1      -4.801  -0.222  25.346  0.00  0.00    +0.100 C 
BRANCH  15   3
ATOM      3  N   UNL     1      -5.774   0.400  24.463  0.00  0.00    -0.312 NA
ATOM     37  H   UNL     1      -6.712   0.151  24.775  0.00  0.00    +0.122 HD
BRANCH   3  17
ATOM      1  O   UNL     1      -2.152   5.282  25.383  0.00  0.00    -0.276 OA
ATOM      5  N   UNL     1      -4.227   4.240  25.317  0.00  0.00    -0.302 N 
ATOM     17  C   UNL     1      -5.625   1.853  24.460  0.00  0.00    +0.057 C 
ATOM     19  C   UNL     1      -4.262   2.241  23.872  0.00  0.00    +0.037 C 
ATOM     20  C   UNL     1      -5.771   2.401  25.885  0.00  0.00    +0.037 C 
ATOM     21  C   UNL     1      -4.046   3.752  23.948  0.00  0.00    +0.109 C 
ATOM     22  C   UNL     1      -5.524   3.909  25.920  0.00  0.00    +0.109 C 
ATOM     28  C   UNL     1      -3.221   4.988  25.926  0.00  0.00    +0.212 C 
ATOM     32  C   UNL     1      -3.483   5.451  27.337  0.00  0.00    +0.109 C 
ENDBRANCH   3  17
ENDBRANCH  15   3
ENDBRANCH   9  15
TORSDOF 8
ENDMDL
MODEL 5
REMARK VINA RESULT:       8.6      1.955      5.762
REMARK  Name = 45360480
REMARK  11 active torsions:
REMARK  status: ('A' for Active; 'I' for Inactive)
REMARK    1  A    between atoms: N_3  and  C_15
REMARK    2  A    between atoms: N_3  and  C_17
REMARK    3  A    between atoms: C_9  and  C_15
REMARK    4  A    between atoms: C_10  and  C_16
REMARK    5  A    between atoms: C_23  and  C_25
REMARK    6  A    between atoms: C_24  and  C_29
REMARK    7  A    between atoms: C_25  and  C_26
REMARK    8  A    between atoms: C_25  and  C_27
REMARK    9  A    between atoms: C_26  and  C_30
REMARK   10  A    between atoms: C_27  and  C_31
REMARK   11  A    between atoms: C_28  and  C_32
REMARK                            x       y       z     vdW  Elec       q    Type
REMARK                         _______ _______ _______ _____ _____    ______ ____
ROOT
ATOM      2  N   UNL     1      -2.558  -1.775  23.694  0.00  0.00    -0.298 NA
ATOM      8  C   UNL     1      -2.107  -1.353  26.224  0.00  0.00    +0.002 C 
ATOM      9  C   UNL     1      -1.172  -2.185  24.037  0.00  0.00    +0.071 C 
ATOM     10  C   UNL     1      -2.712  -0.084  25.561  0.00  0.00    +0.055 C 
ATOM     11  C   UNL     1      -0.818  -1.753  25.476  0.00  0.00    +0.024 C 
ATOM     12  C   UNL     1      -3.126  -2.494  26.013  0.00  0.00    +0.019 C 
ATOM     13  C   UNL     1      -2.763  -0.342  24.027  0.00  0.00    +0.094 C 
ATOM     14  C   UNL     1      -3.489  -2.580  24.520  0.00  0.00    +0.085 C 
ENDROOT
BRANCH  10  16
ATOM      4  N   UNL     1      -1.032   1.256  26.728  0.00  0.00    -0.232 NA
ATOM      6  N   UNL     1      -0.947   3.657  26.539  0.00  0.00    -0.232 NA
ATOM     16  C   UNL     1      -2.096   1.266  25.898  0.00  0.00    +0.050 A 
ATOM     18  C   UNL     1      -2.635   2.415  25.357  0.00  0.00    +0.047 A 
ATOM     23  C   UNL     1      -2.014   3.593  25.715  0.00  0.00    +0.048 A 
ATOM     24  C   UNL     1      -0.514   2.469  27.002  0.00  0.00    +0.160 A 
BRANCH  24  29
ATOM      7  N   UNL     1       2.825   2.560  29.604  0.00  0.00    -0.263 NA
ATOM     29  C   UNL     1       0.621   2.499  27.886  0.00  0.00    +0.022 A 
ATOM     33  C   UNL     1       1.831   3.027  27.451  0.00  0.00    +0.031 A 
ATOM     34  C   UNL     1       0.512   2.001  29.180  0.00  0.00    +0.031 A 
ATOM     35  C   UNL     1       2.893   3.035  28.341  0.00  0.00    +0.111 A 
ATOM     36  C   UNL     1       1.633   2.054  29.992  0.00  0.00    +0.111 A 
ENDBRANCH  24  29
BRANCH  23  25
ATOM     25  C   UNL     1      -2.526   4.887  25.178  0.00  0.00    +0.037 C 
BRANCH  25  26
ATOM     26  C   UNL     1      -1.447   5.693  24.396  0.00  0.00    +0.006 C 
ATOM     30  C   UNL     1      -0.303   4.818  23.894  0.00  0.00    +0.004 C 
ENDBRANCH  25  26
BRANCH  25  27
ATOM     27  C   UNL     1      -3.777   4.718  24.267  0.00  0.00    +0.006 C 
ATOM     31  C   UNL     1      -4.989   4.182  25.020  0.00  0.00    +0.004 C 
ENDBRANCH  25  27
ENDBRANCH  23  25
ENDBRANCH  10  16
BRANCH   9  15
ATOM     15  C   UNL     1      -0.146  -1.679  23.021  0.00  0.00    +0.100 C 
BRANCH  15   3
ATOM      3  N   UNL     1      -0.359  -0.270  22.732  0.00  0.00    -0.312 NA
ATOM     37  H   UNL     1      -0.821   0.166  23.530  0.00  0.00    +0.122 HD
BRANCH   3  17
ATOM      1  O   UNL     1       5.781  -0.546  22.566  0.00  0.00    -0.276 OA
ATOM      5  N   UNL     1       3.776   0.603  22.807  0.00  0.00    -0.302 N 
ATOM     17  C   UNL     1       0.907   0.408  22.466  0.00  0.00    +0.057 C 
ATOM     19  C   UNL     1       1.869  -0.541  21.739  0.00  0.00    +0.037 C 
ATOM     20  C   UNL     1       1.528   0.900  23.779  0.00  0.00    +0.037 C 
ATOM     21  C   UNL     1       3.233   0.117  21.536  0.00  0.00    +0.109 C 
ATOM     22  C   UNL     1       2.900   1.529  23.535  0.00  0.00    +0.109 C 
ATOM     28  C   UNL     1       5.049   0.207  23.214  0.00  0.00    +0.212 C 
ATOM     32  C   UNL     1       5.534   0.748  24.535  0.00  0.00    +0.109 C 
ENDBRANCH   3  17
ENDBRANCH  15   3
ENDBRANCH   9  15
TORSDOF 8
ENDMDL
MODEL 6
REMARK VINA RESULT:       8.7      2.930      6.037
REMARK  Name = 45360480
REMARK  11 active torsions:
REMARK  status: ('A' for Active; 'I' for Inactive)
REMARK    1  A    between atoms: N_3  and  C_15
REMARK    2  A    between atoms: N_3  and  C_17
REMARK    3  A    between atoms: C_9  and  C_15
REMARK    4  A    between atoms: C_10  and  C_16
REMARK    5  A    between atoms: C_23  and  C_25
REMARK    6  A    between atoms: C_24  and  C_29
REMARK    7  A    between atoms: C_25  and  C_26
REMARK    8  A    between atoms: C_25  and  C_27
REMARK    9  A    between atoms: C_26  and  C_30
REMARK   10  A    between atoms: C_27  and  C_31
REMARK   11  A    between atoms: C_28  and  C_32
REMARK                            x       y       z     vdW  Elec       q    Type
REMARK                         _______ _______ _______ _____ _____    ______ ____
ROOT
ATOM      2  N   UNL     1      -3.545  -1.997  25.597  0.00  0.00    -0.298 NA
ATOM      8  C   UNL     1      -1.402  -2.711  24.300  0.00  0.00    +0.002 C 
ATOM      9  C   UNL     1      -3.846  -2.116  24.146  0.00  0.00    +0.071 C 
ATOM     10  C   UNL     1      -1.097  -1.504  25.231  0.00  0.00    +0.055 C 
ATOM     11  C   UNL     1      -2.549  -2.335  23.338  0.00  0.00    +0.024 C 
ATOM     12  C   UNL     1      -1.923  -3.849  25.203  0.00  0.00    +0.019 C 
ATOM     13  C   UNL     1      -2.455  -1.012  25.811  0.00  0.00    +0.094 C 
ATOM     14  C   UNL     1      -3.075  -3.319  26.075  0.00  0.00    +0.085 C 
ENDROOT
BRANCH  10  16
ATOM      4  N   UNL     1       1.017  -0.652  24.347  0.00  0.00    -0.232 NA
ATOM      6  N   UNL     1       1.295   1.646  23.675  0.00  0.00    -0.232 NA
ATOM     16  C   UNL     1      -0.259  -0.362  24.677  0.00  0.00    +0.050 A 
ATOM     18  C   UNL     1      -0.821   0.891  24.538  0.00  0.00    +0.047 A 
ATOM     23  C   UNL     1       0.011   1.865  24.027  0.00  0.00    +0.048 A 
ATOM     24  C   UNL     1       1.727   0.384  23.859  0.00  0.00    +0.160 A 
BRANCH  24  29
ATOM      7  N   UNL     1       5.749  -0.410  22.799  0.00  0.00    -0.263 NA
ATOM     29  C   UNL     1       3.094   0.114  23.498  0.00  0.00    +0.022 A 
ATOM     33  C   UNL     1       3.816   1.042  22.757  0.00  0.00    +0.031 A 
ATOM     34  C   UNL     1       3.698  -1.076  23.891  0.00  0.00    +0.031 A 
ATOM     35  C   UNL     1       5.129   0.735  22.436  0.00  0.00    +0.111 A 
ATOM     36  C   UNL     1       5.016  -1.287  23.519  0.00  0.00    +0.111 A 
ENDBRANCH  24  29
BRANCH  23  25
ATOM     25  C   UNL     1      -0.509   3.251  23.839  0.00  0.00    +0.037 C 
BRANCH  25  26
ATOM     26  C   UNL     1      -1.888   3.292  23.115  0.00  0.00    +0.006 C 
ATOM     30  C   UNL     1      -2.067   2.153  22.119  0.00  0.00    +0.004 C 
ENDBRANCH  25  26
BRANCH  25  27
ATOM     27  C   UNL     1      -0.624   4.047  25.172  0.00  0.00    +0.006 C 
ATOM     31  C   UNL     1      -1.178   5.453  24.975  0.00  0.00    +0.004 C 
ENDBRANCH  25  27
ENDBRANCH  23  25
ENDBRANCH  10  16
BRANCH   9  15
ATOM     15  C   UNL     1      -4.654  -0.928  23.619  0.00  0.00    +0.100 C 
BRANCH  15   3
ATOM      3  N   UNL     1      -5.690  -0.550  24.566  0.00  0.00    -0.312 NA
ATOM     37  H   UNL     1      -5.850  -1.325  25.209  0.00  0.00    +0.122 HD
BRANCH   3  17
ATOM      1  O   UNL     1      -6.425   5.475  25.548  0.00  0.00    -0.276 OA
ATOM      5  N   UNL     1      -5.165   3.523  25.567  0.00  0.00    -0.302 N 
ATOM     17  C   UNL     1      -5.303   0.641  25.317  0.00  0.00    +0.057 C 
ATOM     19  C   UNL     1      -6.545   1.480  25.649  0.00  0.00    +0.037 C 
ATOM     20  C   UNL     1      -4.296   1.470  24.511  0.00  0.00    +0.037 C 
ATOM     21  C   UNL     1      -6.153   2.779  26.352  0.00  0.00    +0.109 C 
ATOM     22  C   UNL     1      -3.949   2.770  25.237  0.00  0.00    +0.109 C 
ATOM     28  C   UNL     1      -5.408   4.853  25.227  0.00  0.00    +0.212 C 
ATOM     32  C   UNL     1      -4.345   5.548  24.415  0.00  0.00    +0.109 C 
ENDBRANCH   3  17
ENDBRANCH  15   3
ENDBRANCH   9  15
TORSDOF 8
ENDMDL
MODEL 7
REMARK VINA RESULT:       8.8      2.851      6.992
REMARK  Name = 45360480
REMARK  11 active torsions:
REMARK  status: ('A' for Active; 'I' for Inactive)
REMARK    1  A    between atoms: N_3  and  C_15
REMARK    2  A    between atoms: N_3  and  C_17
REMARK    3  A    between atoms: C_9  and  C_15
REMARK    4  A    between atoms: C_10  and  C_16
REMARK    5  A    between atoms: C_23  and  C_25
REMARK    6  A    between atoms: C_24  and  C_29
REMARK    7  A    between atoms: C_25  and  C_26
REMARK    8  A    between atoms: C_25  and  C_27
REMARK    9  A    between atoms: C_26  and  C_30
REMARK   10  A    between atoms: C_27  and  C_31
REMARK   11  A    between atoms: C_28  and  C_32
REMARK                            x       y       z     vdW  Elec       q    Type
REMARK                         _______ _______ _______ _____ _____    ______ ____
ROOT
ATOM      2  N   UNL     1      -2.018  -2.352  23.653  0.00  0.00    -0.298 NA
ATOM      8  C   UNL     1      -3.372  -1.713  25.784  0.00  0.00    +0.002 C 
ATOM      9  C   UNL     1      -1.093  -2.130  24.795  0.00  0.00    +0.071 C 
ATOM     10  C   UNL     1      -3.810  -0.835  24.578  0.00  0.00    +0.055 C 
ATOM     11  C   UNL     1      -1.853  -1.552  26.007  0.00  0.00    +0.024 C 
ATOM     12  C   UNL     1      -3.618  -3.182  25.377  0.00  0.00    +0.019 C 
ATOM     13  C   UNL     1      -2.827  -1.131  23.409  0.00  0.00    +0.094 C 
ATOM     14  C   UNL     1      -2.941  -3.452  24.021  0.00  0.00    +0.085 C 
ENDROOT
BRANCH  10  16
ATOM      4  N   UNL     1      -2.916   1.441  24.629  0.00  0.00    -0.232 NA
ATOM      6  N   UNL     1      -4.280   3.343  25.201  0.00  0.00    -0.232 NA
ATOM     16  C   UNL     1      -4.000   0.657  24.807  0.00  0.00    +0.050 A 
ATOM     18  C   UNL     1      -5.240   1.137  25.177  0.00  0.00    +0.047 A 
ATOM     23  C   UNL     1      -5.322   2.502  25.362  0.00  0.00    +0.048 A 
ATOM     24  C   UNL     1      -3.124   2.754  24.840  0.00  0.00    +0.160 A 
BRANCH  24  29
ATOM      7  N   UNL     1       0.213   5.308  24.316  0.00  0.00    -0.263 NA
ATOM     29  C   UNL     1      -1.989   3.622  24.663  0.00  0.00    +0.022 A 
ATOM     33  C   UNL     1      -0.861   3.167  23.989  0.00  0.00    +0.031 A 
ATOM     34  C   UNL     1      -2.017   4.919  25.162  0.00  0.00    +0.031 A 
ATOM     35  C   UNL     1       0.204   4.042  23.844  0.00  0.00    +0.111 A 
ATOM     36  C   UNL     1      -0.901   5.715  24.964  0.00  0.00    +0.111 A 
ENDBRANCH  24  29
BRANCH  23  25
ATOM     25  C   UNL     1      -6.623   3.112  25.761  0.00  0.00    +0.037 C 
BRANCH  25  26
ATOM     26  C   UNL     1      -7.330   2.342  26.915  0.00  0.00    +0.006 C 
ATOM     30  C   UNL     1      -6.503   1.174  27.441  0.00  0.00    +0.004 C 
ENDBRANCH  25  26
BRANCH  25  27
ATOM     27  C   UNL     1      -6.496   4.609  26.169  0.00  0.00    +0.006 C 
ATOM     31  C   UNL     1      -6.273   5.530  24.975  0.00  0.00    +0.004 C 
ENDBRANCH  25  27
ENDBRANCH  23  25
ENDBRANCH  10  16
BRANCH   9  15
ATOM     15  C   UNL     1       0.110  -1.266  24.411  0.00  0.00    +0.100 C 
BRANCH  15   3
ATOM      3  N   UNL     1      -0.207  -0.421  23.271  0.00  0.00    -0.312 NA
ATOM     37  H   UNL     1      -0.905   0.267  23.553  0.00  0.00    +0.122 HD
BRANCH   3  17
ATOM      1  O   UNL     1       5.881  -0.502  22.414  0.00  0.00    -0.276 OA
ATOM      5  N   UNL     1       3.862   0.598  22.750  0.00  0.00    -0.302 N 
ATOM     17  C   UNL     1       0.986   0.262  22.777  0.00  0.00    +0.057 C 
ATOM     19  C   UNL     1       1.905  -0.737  22.062  0.00  0.00    +0.037 C 
ATOM     20  C   UNL     1       1.727   0.936  23.938  0.00  0.00    +0.037 C 
ATOM     21  C   UNL     1       3.204  -0.063  21.620  0.00  0.00    +0.109 C 
ATOM     22  C   UNL     1       3.030   1.577  23.459  0.00  0.00    +0.109 C 
ATOM     28  C   UNL     1       5.191   0.300  23.049  0.00  0.00    +0.212 C 
ATOM     32  C   UNL     1       5.795   1.020  24.228  0.00  0.00    +0.109 C 
ENDBRANCH   3  17
ENDBRANCH  15   3
ENDBRANCH   9  15
TORSDOF 8
ENDMDL
MODEL 8
REMARK VINA RESULT:       9.6      1.904      5.886
REMARK  Name = 45360480
REMARK  11 active torsions:
REMARK  status: ('A' for Active; 'I' for Inactive)
REMARK    1  A    between atoms: N_3  and  C_15
REMARK    2  A    between atoms: N_3  and  C_17
REMARK    3  A    between atoms: C_9  and  C_15
REMARK    4  A    between atoms: C_10  and  C_16
REMARK    5  A    between atoms: C_23  and  C_25
REMARK    6  A    between atoms: C_24  and  C_29
REMARK    7  A    between atoms: C_25  and  C_26
REMARK    8  A    between atoms: C_25  and  C_27
REMARK    9  A    between atoms: C_26  and  C_30
REMARK   10  A    between atoms: C_27  and  C_31
REMARK   11  A    between atoms: C_28  and  C_32
REMARK                            x       y       z     vdW  Elec       q    Type
REMARK                         _______ _______ _______ _____ _____    ______ ____
ROOT
ATOM      2  N   UNL     1      -4.136  -1.646  25.869  0.00  0.00    -0.298 NA
ATOM      8  C   UNL     1      -2.720  -1.449  23.693  0.00  0.00    +0.002 C 
ATOM      9  C   UNL     1      -4.752  -0.653  24.951  0.00  0.00    +0.071 C 
ATOM     10  C   UNL     1      -1.810  -1.323  24.947  0.00  0.00    +0.055 C 
ATOM     11  C   UNL     1      -3.822  -0.369  23.753  0.00  0.00    +0.024 C 
ATOM     12  C   UNL     1      -3.422  -2.820  23.788  0.00  0.00    +0.019 C 
ATOM     13  C   UNL     1      -2.742  -1.247  26.190  0.00  0.00    +0.094 C 
ATOM     14  C   UNL     1      -4.094  -2.951  25.166  0.00  0.00    +0.085 C 
ENDROOT
BRANCH  10  16
ATOM      4  N   UNL     1       0.232  -0.336  24.033  0.00  0.00    -0.232 NA
ATOM      6  N   UNL     1       1.192   1.687  24.925  0.00  0.00    -0.232 NA
ATOM     16  C   UNL     1      -0.746  -0.236  24.958  0.00  0.00    +0.050 A 
ATOM     18  C   UNL     1      -0.821   0.783  25.886  0.00  0.00    +0.047 A 
ATOM     23  C   UNL     1       0.185   1.725  25.822  0.00  0.00    +0.048 A 
ATOM     24  C   UNL     1       1.155   0.644  24.073  0.00  0.00    +0.160 A 
BRANCH  24  29
ATOM      7  N   UNL     1       4.278   0.422  21.222  0.00  0.00    -0.263 NA
ATOM     29  C   UNL     1       2.216   0.569  23.104  0.00  0.00    +0.022 A 
ATOM     33  C   UNL     1       3.447   1.157  23.370  0.00  0.00    +0.031 A 
ATOM     34  C   UNL     1       2.015  -0.093  21.897  0.00  0.00    +0.031 A 
ATOM     35  C   UNL     1       4.437   1.056  22.405  0.00  0.00    +0.111 A 
ATOM     36  C   UNL     1       3.068  -0.138  20.999  0.00  0.00    +0.111 A 
ENDBRANCH  24  29
BRANCH  23  25
ATOM     25  C   UNL     1       0.186   2.864  26.785  0.00  0.00    +0.037 C 
BRANCH  25  26
ATOM     26  C   UNL     1      -1.074   2.892  27.699  0.00  0.00    +0.006 C 
ATOM     30  C   UNL     1      -2.320   3.388  26.974  0.00  0.00    +0.004 C 
ENDBRANCH  25  26
BRANCH  25  27
ATOM     27  C   UNL     1       1.454   2.901  27.686  0.00  0.00    +0.006 C 
ATOM     31  C   UNL     1       1.180   2.438  29.113  0.00  0.00    +0.004 C 
ENDBRANCH  25  27
ENDBRANCH  23  25
ENDBRANCH  10  16
BRANCH   9  15
ATOM     15  C   UNL     1      -5.160   0.633  25.673  0.00  0.00    +0.100 C 
BRANCH  15   3
ATOM      3  N   UNL     1      -6.035   1.438  24.836  0.00  0.00    -0.312 NA
ATOM     37  H   UNL     1      -6.757   1.859  25.420  0.00  0.00    +0.122 HD
BRANCH   3  17
ATOM      1  O   UNL     1      -0.599   4.071  23.685  0.00  0.00    -0.276 OA
ATOM      5  N   UNL     1      -2.912   4.128  23.899  0.00  0.00    -0.302 N 
ATOM     17  C   UNL     1      -5.284   2.487  24.150  0.00  0.00    +0.057 C 
ATOM     19  C   UNL     1      -3.967   1.919  23.604  0.00  0.00    +0.037 C 
ATOM     20  C   UNL     1      -5.009   3.652  25.108  0.00  0.00    +0.037 C 
ATOM     21  C   UNL     1      -3.122   3.020  22.965  0.00  0.00    +0.109 C 
ATOM     22  C   UNL     1      -4.143   4.719  24.439  0.00  0.00    +0.109 C 
ATOM     28  C   UNL     1      -1.617   4.563  24.180  0.00  0.00    +0.212 C 
ATOM     32  C   UNL     1      -1.484   5.706  25.154  0.00  0.00    +0.109 C 
ENDBRANCH   3  17
ENDBRANCH  15   3
ENDBRANCH   9  15
TORSDOF 8
ENDMDL
