MODEL 1
REMARK VINA RESULT:       2.0      0.000      0.000
REMARK  Name = 51136673
REMARK  8 active torsions:
REMARK  status: ('A' for Active; 'I' for Inactive)
REMARK    1  A    between atoms: O_1  and  C_18
REMARK    2  A    between atoms: O_4  and  C_25
REMARK    3  A    between atoms: O_4  and  C_31
REMARK    4  A    between atoms: N_7  and  C_26
REMARK    5  A    between atoms: C_8  and  C_12
REMARK    6  A    between atoms: C_9  and  C_14
REMARK    7  A    between atoms: C_12  and  C_15
REMARK    8  A    between atoms: C_14  and  C_18
REMARK                            x       y       z     vdW  Elec       q    Type
REMARK                         _______ _______ _______ _____ _____    ______ ____
ROOT
ATOM      2  O   UNL     1       0.627   4.325  23.435  0.00  0.00    -0.252 OA
ATOM      5  N   UNL     1      -0.919   3.976  25.118  0.00  0.00    -0.285 N 
ATOM      7  N   UNL     1       0.666   2.312  24.589  0.00  0.00    -0.269 N 
ATOM      8  C   UNL     1      -3.014   2.936  25.940  0.00  0.00    +0.016 C 
ATOM      9  C   UNL     1      -3.739   4.284  25.689  0.00  0.00    +0.006 C 
ATOM     10  C   UNL     1      -3.034   5.121  24.606  0.00  0.00    +0.023 C 
ATOM     11  C   UNL     1      -1.523   3.198  26.209  0.00  0.00    +0.113 C 
ATOM     13  C   UNL     1      -1.544   5.283  24.905  0.00  0.00    +0.109 C 
ATOM     16  C   UNL     1       0.176   3.589  24.317  0.00  0.00    +0.306 C 
ATOM     33  H   UNL     1       0.571   1.948  25.530  0.00  0.00    +0.156 HD
ENDROOT
BRANCH   7  26
ATOM     26  C   UNL     1       1.290   1.419  23.682  0.00  0.00    +0.035 A 
ATOM     27  C   UNL     1       0.533   0.445  23.032  0.00  0.00    +0.023 A 
ATOM     28  C   UNL     1       2.660   1.515  23.441  0.00  0.00    +0.023 A 
ATOM     29  C   UNL     1       1.146  -0.434  22.140  0.00  0.00    +0.002 A 
ATOM     30  C   UNL     1       3.274   0.636  22.550  0.00  0.00    +0.002 A 
ATOM     32  C   UNL     1       2.517  -0.339  21.898  0.00  0.00    +0.000 A 
ENDBRANCH   7  26
BRANCH   8  12
ATOM     12  C   UNL     1      -3.184   1.916  24.808  0.00  0.00    +0.061 C 
BRANCH  12  15
ATOM      6  N   UNL     1      -1.438   0.682  25.905  0.00  0.00    -0.287 NA
ATOM     15  C   UNL     1      -2.508   0.619  25.182  0.00  0.00    +0.044 C 
ATOM     17  C   UNL     1      -3.094  -0.658  24.701  0.00  0.00    -0.001 A 
ATOM     19  C   UNL     1      -2.262  -1.784  24.726  0.00  0.00    -0.033 A 
ATOM     20  C   UNL     1      -0.853  -1.628  25.213  0.00  0.00    +0.059 C 
ATOM     21  C   UNL     1      -0.816  -0.580  26.318  0.00  0.00    +0.146 C 
ATOM     22  C   UNL     1      -4.404  -0.757  24.228  0.00  0.00    +0.013 A 
ATOM     23  C   UNL     1      -2.741  -3.007  24.248  0.00  0.00    +0.050 A 
ATOM     24  C   UNL     1      -4.879  -1.985  23.768  0.00  0.00    +0.046 A 
ATOM     25  C   UNL     1      -4.049  -3.107  23.775  0.00  0.00    +0.120 A 
BRANCH  25   4
ATOM      4  O   UNL     1      -4.517  -4.301  23.318  0.00  0.00    -0.495 OA
ATOM     31  C   UNL     1      -5.721  -4.275  22.551  0.00  0.00    +0.277 C 
ENDBRANCH  25   4
ENDBRANCH  12  15
ENDBRANCH   8  12
BRANCH   9  14
ATOM     14  C   UNL     1      -5.223   4.116  25.358  0.00  0.00    +0.124 C 
BRANCH  14  18
ATOM      3  O   UNL     1      -5.885   2.575  27.127  0.00  0.00    -0.251 OA
ATOM     18  C   UNL     1      -5.781   2.847  25.940  0.00  0.00    +0.305 C 
BRANCH  18   1
ATOM      1  O   UNL     1      -6.169   2.016  24.938  0.00  0.00    -0.481 OA
ATOM     34  H   UNL     1      -7.111   1.755  25.026  0.00  0.00    +0.295 HD
ENDBRANCH  18   1
ENDBRANCH  14  18
ENDBRANCH   9  14
TORSDOF 7
ENDMDL
MODEL 2
REMARK VINA RESULT:       3.1      2.094      7.192
REMARK  Name = 51136673
REMARK  8 active torsions:
REMARK  status: ('A' for Active; 'I' for Inactive)
REMARK    1  A    between atoms: O_1  and  C_18
REMARK    2  A    between atoms: O_4  and  C_25
REMARK    3  A    between atoms: O_4  and  C_31
REMARK    4  A    between atoms: N_7  and  C_26
REMARK    5  A    between atoms: C_8  and  C_12
REMARK    6  A    between atoms: C_9  and  C_14
REMARK    7  A    between atoms: C_12  and  C_15
REMARK    8  A    between atoms: C_14  and  C_18
REMARK                            x       y       z     vdW  Elec       q    Type
REMARK                         _______ _______ _______ _____ _____    ______ ____
ROOT
ATOM      2  O   UNL     1      -3.791  -2.198  24.029  0.00  0.00    -0.252 OA
ATOM      5  N   UNL     1      -1.600  -1.658  24.528  0.00  0.00    -0.285 N 
ATOM      7  N   UNL     1      -3.378  -0.470  25.522  0.00  0.00    -0.269 N 
ATOM      8  C   UNL     1       0.373  -0.182  24.256  0.00  0.00    +0.016 C 
ATOM      9  C   UNL     1       0.959  -1.210  23.253  0.00  0.00    +0.006 C 
ATOM     10  C   UNL     1      -0.144  -2.053  22.587  0.00  0.00    +0.023 C 
ATOM     11  C   UNL     1      -0.561  -0.902  25.243  0.00  0.00    +0.113 C 
ATOM     13  C   UNL     1      -1.072  -2.682  23.624  0.00  0.00    +0.109 C 
ATOM     16  C   UNL     1      -2.995  -1.496  24.659  0.00  0.00    +0.306 C 
ATOM     33  H   UNL     1      -2.765  -0.232  26.292  0.00  0.00    +0.156 HD
ENDROOT
BRANCH   7  26
ATOM     26  C   UNL     1      -4.551   0.322  25.448  0.00  0.00    +0.035 A 
ATOM     27  C   UNL     1      -5.237   0.440  24.240  0.00  0.00    +0.023 A 
ATOM     28  C   UNL     1      -5.017   0.984  26.584  0.00  0.00    +0.023 A 
ATOM     29  C   UNL     1      -6.391   1.221  24.167  0.00  0.00    +0.002 A 
ATOM     30  C   UNL     1      -6.170   1.765  26.511  0.00  0.00    +0.002 A 
ATOM     32  C   UNL     1      -6.858   1.883  25.302  0.00  0.00    +0.000 A 
ENDBRANCH   7  26
BRANCH   8  12
ATOM     12  C   UNL     1      -0.352   0.994  23.592  0.00  0.00    +0.061 C 
BRANCH  12  15
ATOM      6  N   UNL     1       0.266   2.282  25.524  0.00  0.00    -0.287 NA
ATOM     15  C   UNL     1      -0.628   2.069  24.615  0.00  0.00    +0.044 C 
ATOM     17  C   UNL     1      -1.906   2.822  24.534  0.00  0.00    -0.001 A 
ATOM     19  C   UNL     1      -2.305   3.516  25.683  0.00  0.00    -0.033 A 
ATOM     20  C   UNL     1      -1.437   3.444  26.905  0.00  0.00    +0.059 C 
ATOM     21  C   UNL     1       0.024   3.367  26.481  0.00  0.00    +0.146 C 
ATOM     22  C   UNL     1      -2.700   2.841  23.385  0.00  0.00    +0.013 A 
ATOM     23  C   UNL     1      -3.518   4.210  25.686  0.00  0.00    +0.050 A 
ATOM     24  C   UNL     1      -3.902   3.549  23.391  0.00  0.00    +0.046 A 
ATOM     25  C   UNL     1      -4.312   4.229  24.539  0.00  0.00    +0.120 A 
BRANCH  25   4
ATOM      4  O   UNL     1      -5.490   4.913  24.540  0.00  0.00    -0.495 OA
ATOM     31  C   UNL     1      -6.089   5.169  25.810  0.00  0.00    +0.277 C 
ENDBRANCH  25   4
ENDBRANCH  12  15
ENDBRANCH   8  12
BRANCH   9  14
ATOM     14  C   UNL     1       1.862  -0.572  22.196  0.00  0.00    +0.124 C 
BRANCH  14  18
ATOM      3  O   UNL     1       3.484   1.169  22.723  0.00  0.00    -0.251 OA
ATOM     18  C   UNL     1       3.106   0.010  22.807  0.00  0.00    +0.305 C 
BRANCH  18   1
ATOM      1  O   UNL     1       3.776  -0.955  23.489  0.00  0.00    -0.481 OA
ATOM     34  H   UNL     1       4.446  -0.574  24.096  0.00  0.00    +0.295 HD
ENDBRANCH  18   1
ENDBRANCH  14  18
ENDBRANCH   9  14
TORSDOF 7
ENDMDL
MODEL 3
REMARK VINA RESULT:       5.2      1.989      5.961
REMARK  Name = 51136673
REMARK  8 active torsions:
REMARK  status: ('A' for Active; 'I' for Inactive)
REMARK    1  A    between atoms: O_1  and  C_18
REMARK    2  A    between atoms: O_4  and  C_25
REMARK    3  A    between atoms: O_4  and  C_31
REMARK    4  A    between atoms: N_7  and  C_26
REMARK    5  A    between atoms: C_8  and  C_12
REMARK    6  A    between atoms: C_9  and  C_14
REMARK    7  A    between atoms: C_12  and  C_15
REMARK    8  A    between atoms: C_14  and  C_18
REMARK                            x       y       z     vdW  Elec       q    Type
REMARK                         _______ _______ _______ _____ _____    ______ ____
ROOT
ATOM      2  O   UNL     1       0.624   1.604  26.332  0.00  0.00    -0.252 OA
ATOM      5  N   UNL     1       0.063   0.171  24.607  0.00  0.00    -0.285 N 
ATOM      7  N   UNL     1      -0.502   2.458  24.493  0.00  0.00    -0.269 N 
ATOM      8  C   UNL     1      -1.617  -1.190  23.393  0.00  0.00    +0.016 C 
ATOM      9  C   UNL     1      -1.076  -2.446  24.127  0.00  0.00    +0.006 C 
ATOM     10  C   UNL     1      -0.409  -2.083  25.466  0.00  0.00    +0.023 C 
ATOM     11  C   UNL     1      -0.500  -0.138  23.284  0.00  0.00    +0.113 C 
ATOM     13  C   UNL     1       0.640  -0.987  25.291  0.00  0.00    +0.109 C 
ATOM     16  C   UNL     1       0.107   1.439  25.224  0.00  0.00    +0.306 C 
ATOM     33  H   UNL     1      -0.519   2.385  23.482  0.00  0.00    +0.156 HD
ENDROOT
BRANCH   7  26
ATOM     26  C   UNL     1      -1.140   3.618  25.001  0.00  0.00    +0.035 A 
ATOM     27  C   UNL     1      -2.036   3.511  26.064  0.00  0.00    +0.023 A 
ATOM     28  C   UNL     1      -0.871   4.864  24.436  0.00  0.00    +0.023 A 
ATOM     29  C   UNL     1      -2.664   4.652  26.563  0.00  0.00    +0.002 A 
ATOM     30  C   UNL     1      -1.499   6.005  24.935  0.00  0.00    +0.002 A 
ATOM     32  C   UNL     1      -2.396   5.899  26.000  0.00  0.00    +0.000 A 
ENDBRANCH   7  26
BRANCH   8  12
ATOM     12  C   UNL     1      -2.867  -0.580  24.039  0.00  0.00    +0.061 C 
BRANCH  12  15
ATOM      6  N   UNL     1      -2.666   0.978  22.221  0.00  0.00    -0.287 NA
ATOM     15  C   UNL     1      -3.199   0.734  23.373  0.00  0.00    +0.044 C 
ATOM     17  C   UNL     1      -4.109   1.678  24.069  0.00  0.00    -0.001 A 
ATOM     19  C   UNL     1      -4.091   3.009  23.634  0.00  0.00    -0.033 A 
ATOM     20  C   UNL     1      -3.159   3.391  22.522  0.00  0.00    +0.059 C 
ATOM     21  C   UNL     1      -3.036   2.227  21.548  0.00  0.00    +0.146 C 
ATOM     22  C   UNL     1      -4.942   1.289  25.120  0.00  0.00    +0.013 A 
ATOM     23  C   UNL     1      -4.893   3.957  24.275  0.00  0.00    +0.050 A 
ATOM     24  C   UNL     1      -5.752   2.238  25.744  0.00  0.00    +0.046 A 
ATOM     25  C   UNL     1      -5.726   3.569  25.325  0.00  0.00    +0.120 A 
BRANCH  25   4
ATOM      4  O   UNL     1      -6.514   4.492  25.943  0.00  0.00    -0.495 OA
ATOM     31  C   UNL     1      -6.508   5.814  25.406  0.00  0.00    +0.277 C 
ENDBRANCH  25   4
ENDBRANCH  12  15
ENDBRANCH   8  12
BRANCH   9  14
ATOM     14  C   UNL     1      -2.138  -3.527  24.329  0.00  0.00    +0.124 C 
BRANCH  14  18
ATOM      3  O   UNL     1      -3.587  -2.424  25.950  0.00  0.00    -0.251 OA
ATOM     18  C   UNL     1      -3.422  -2.952  24.860  0.00  0.00    +0.305 C 
BRANCH  18   1
ATOM      1  O   UNL     1      -4.406  -3.101  23.937  0.00  0.00    -0.481 OA
ATOM     34  H   UNL     1      -4.233  -3.858  23.337  0.00  0.00    +0.295 HD
ENDBRANCH  18   1
ENDBRANCH  14  18
ENDBRANCH   9  14
TORSDOF 7
ENDMDL
MODEL 4
REMARK VINA RESULT:       5.4      1.581      2.836
REMARK  Name = 51136673
REMARK  8 active torsions:
REMARK  status: ('A' for Active; 'I' for Inactive)
REMARK    1  A    between atoms: O_1  and  C_18
REMARK    2  A    between atoms: O_4  and  C_25
REMARK    3  A    between atoms: O_4  and  C_31
REMARK    4  A    between atoms: N_7  and  C_26
REMARK    5  A    between atoms: C_8  and  C_12
REMARK    6  A    between atoms: C_9  and  C_14
REMARK    7  A    between atoms: C_12  and  C_15
REMARK    8  A    between atoms: C_14  and  C_18
REMARK                            x       y       z     vdW  Elec       q    Type
REMARK                         _______ _______ _______ _____ _____    ______ ____
ROOT
ATOM      2  O   UNL     1       0.750   4.086  23.958  0.00  0.00    -0.252 OA
ATOM      5  N   UNL     1      -1.068   3.313  25.157  0.00  0.00    -0.285 N 
ATOM      7  N   UNL     1       0.638   1.830  24.484  0.00  0.00    -0.269 N 
ATOM      8  C   UNL     1      -3.246   2.132  25.251  0.00  0.00    +0.016 C 
ATOM      9  C   UNL     1      -3.953   3.512  25.260  0.00  0.00    +0.006 C 
ATOM     10  C   UNL     1      -3.086   4.605  24.607  0.00  0.00    +0.023 C 
ATOM     11  C   UNL     1      -1.838   2.272  25.854  0.00  0.00    +0.113 C 
ATOM     13  C   UNL     1      -1.683   4.640  25.210  0.00  0.00    +0.109 C 
ATOM     16  C   UNL     1       0.167   3.142  24.497  0.00  0.00    +0.306 C 
ATOM     33  H   UNL     1       0.381   1.216  25.249  0.00  0.00    +0.156 HD
ENDROOT
BRANCH   7  26
ATOM     26  C   UNL     1       1.444   1.215  23.494  0.00  0.00    +0.035 A 
ATOM     27  C   UNL     1       2.812   1.484  23.443  0.00  0.00    +0.023 A 
ATOM     28  C   UNL     1       0.870   0.341  22.571  0.00  0.00    +0.023 A 
ATOM     29  C   UNL     1       3.606   0.880  22.469  0.00  0.00    +0.002 A 
ATOM     30  C   UNL     1       1.663  -0.263  21.596  0.00  0.00    +0.002 A 
ATOM     32  C   UNL     1       3.032   0.006  21.545  0.00  0.00    +0.000 A 
ENDBRANCH   7  26
BRANCH   8  12
ATOM     12  C   UNL     1      -3.174   1.477  23.866  0.00  0.00    +0.061 C 
BRANCH  12  15
ATOM      6  N   UNL     1      -4.614  -0.440  23.708  0.00  0.00    -0.287 NA
ATOM     15  C   UNL     1      -3.428  -0.006  23.987  0.00  0.00    +0.044 C 
ATOM     17  C   UNL     1      -2.317  -0.890  24.422  0.00  0.00    -0.001 A 
ATOM     19  C   UNL     1      -2.668  -2.162  24.891  0.00  0.00    -0.033 A 
ATOM     20  C   UNL     1      -4.119  -2.537  24.938  0.00  0.00    +0.059 C 
ATOM     21  C   UNL     1      -4.844  -1.887  23.767  0.00  0.00    +0.146 C 
ATOM     22  C   UNL     1      -0.979  -0.492  24.389  0.00  0.00    +0.013 A 
ATOM     23  C   UNL     1      -1.672  -3.026  25.354  0.00  0.00    +0.050 A 
ATOM     24  C   UNL     1       0.011  -1.367  24.838  0.00  0.00    +0.046 A 
ATOM     25  C   UNL     1      -0.335  -2.630  25.323  0.00  0.00    +0.120 A 
BRANCH  25   4
ATOM      4  O   UNL     1       0.635  -3.476  25.766  0.00  0.00    -0.495 OA
ATOM     31  C   UNL     1       1.981  -3.165  25.406  0.00  0.00    +0.277 C 
ENDBRANCH  25   4
ENDBRANCH  12  15
ENDBRANCH   8  12
BRANCH   9  14
ATOM     14  C   UNL     1      -5.344   3.479  24.626  0.00  0.00    +0.124 C 
BRANCH  14  18
ATOM      3  O   UNL     1      -6.874   1.584  24.736  0.00  0.00    -0.251 OA
ATOM     18  C   UNL     1      -6.233   2.464  25.291  0.00  0.00    +0.305 C 
BRANCH  18   1
ATOM      1  O   UNL     1      -6.228   2.662  26.634  0.00  0.00    -0.481 OA
ATOM     34  H   UNL     1      -5.589   2.070  27.087  0.00  0.00    +0.295 HD
ENDBRANCH  18   1
ENDBRANCH  14  18
ENDBRANCH   9  14
TORSDOF 7
ENDMDL
MODEL 5
REMARK VINA RESULT:       5.5      1.960      5.961
REMARK  Name = 51136673
REMARK  8 active torsions:
REMARK  status: ('A' for Active; 'I' for Inactive)
REMARK    1  A    between atoms: O_1  and  C_18
REMARK    2  A    between atoms: O_4  and  C_25
REMARK    3  A    between atoms: O_4  and  C_31
REMARK    4  A    between atoms: N_7  and  C_26
REMARK    5  A    between atoms: C_8  and  C_12
REMARK    6  A    between atoms: C_9  and  C_14
REMARK    7  A    between atoms: C_12  and  C_15
REMARK    8  A    between atoms: C_14  and  C_18
REMARK                            x       y       z     vdW  Elec       q    Type
REMARK                         _______ _______ _______ _____ _____    ______ ____
ROOT
ATOM      2  O   UNL     1      -5.723   0.844  25.756  0.00  0.00    -0.252 OA
ATOM      5  N   UNL     1      -4.503   2.343  24.487  0.00  0.00    -0.285 N 
ATOM      7  N   UNL     1      -4.318   0.023  24.102  0.00  0.00    -0.269 N 
ATOM      8  C   UNL     1      -2.363   3.475  23.953  0.00  0.00    +0.016 C 
ATOM      9  C   UNL     1      -2.858   4.709  24.754  0.00  0.00    +0.006 C 
ATOM     10  C   UNL     1      -3.900   4.320  25.818  0.00  0.00    +0.023 C 
ATOM     11  C   UNL     1      -3.572   2.699  23.406  0.00  0.00    +0.113 C 
ATOM     13  C   UNL     1      -5.036   3.495  25.215  0.00  0.00    +0.109 C 
ATOM     16  C   UNL     1      -4.917   1.042  24.842  0.00  0.00    +0.306 C 
ATOM     33  H   UNL     1      -4.028   0.222  23.152  0.00  0.00    +0.156 HD
ENDROOT
BRANCH   7  26
ATOM     26  C   UNL     1      -4.036  -1.299  24.529  0.00  0.00    +0.035 A 
ATOM     27  C   UNL     1      -4.376  -2.380  23.716  0.00  0.00    +0.023 A 
ATOM     28  C   UNL     1      -3.420  -1.517  25.761  0.00  0.00    +0.023 A 
ATOM     29  C   UNL     1      -4.100  -3.681  24.136  0.00  0.00    +0.002 A 
ATOM     30  C   UNL     1      -3.144  -2.818  26.181  0.00  0.00    +0.002 A 
ATOM     32  C   UNL     1      -3.484  -3.901  25.368  0.00  0.00    +0.000 A 
ENDBRANCH   7  26
BRANCH   8  12
ATOM     12  C   UNL     1      -1.443   2.542  24.750  0.00  0.00    +0.061 C 
BRANCH  12  15
ATOM      6  N   UNL     1      -1.981   0.547  23.525  0.00  0.00    -0.287 NA
ATOM     15  C   UNL     1      -1.049   1.360  23.897  0.00  0.00    +0.044 C 
ATOM     17  C   UNL     1       0.381   1.186  23.534  0.00  0.00    -0.001 A 
ATOM     19  C   UNL     1       0.769  -0.084  23.091  0.00  0.00    -0.033 A 
ATOM     20  C   UNL     1      -0.262  -1.171  23.027  0.00  0.00    +0.059 C 
ATOM     21  C   UNL     1      -1.608  -0.567  22.647  0.00  0.00    +0.146 C 
ATOM     22  C   UNL     1       1.317   2.217  23.634  0.00  0.00    +0.013 A 
ATOM     23  C   UNL     1       2.108  -0.325  22.772  0.00  0.00    +0.050 A 
ATOM     24  C   UNL     1       2.649   1.972  23.299  0.00  0.00    +0.046 A 
ATOM     25  C   UNL     1       3.044   0.703  22.872  0.00  0.00    +0.120 A 
BRANCH  25   4
ATOM      4  O   UNL     1       4.348   0.470  22.554  0.00  0.00    -0.495 OA
ATOM     31  C   UNL     1       5.238   0.190  23.633  0.00  0.00    +0.277 C 
ENDBRANCH  25   4
ENDBRANCH  12  15
ENDBRANCH   8  12
BRANCH   9  14
ATOM     14  C   UNL     1      -1.719   5.513  25.383  0.00  0.00    +0.124 C 
BRANCH  14  18
ATOM      3  O   UNL     1       0.063   5.477  23.721  0.00  0.00    -0.251 OA
ATOM     18  C   UNL     1      -0.385   5.132  24.804  0.00  0.00    +0.305 C 
BRANCH  18   1
ATOM      1  O   UNL     1       0.280   4.330  25.675  0.00  0.00    -0.481 OA
ATOM     34  H   UNL     1       0.899   3.724  25.214  0.00  0.00    +0.295 HD
ENDBRANCH  18   1
ENDBRANCH  14  18
ENDBRANCH   9  14
TORSDOF 7
ENDMDL
MODEL 6
REMARK VINA RESULT:       5.5      2.289      5.171
REMARK  Name = 51136673
REMARK  8 active torsions:
REMARK  status: ('A' for Active; 'I' for Inactive)
REMARK    1  A    between atoms: O_1  and  C_18
REMARK    2  A    between atoms: O_4  and  C_25
REMARK    3  A    between atoms: O_4  and  C_31
REMARK    4  A    between atoms: N_7  and  C_26
REMARK    5  A    between atoms: C_8  and  C_12
REMARK    6  A    between atoms: C_9  and  C_14
REMARK    7  A    between atoms: C_12  and  C_15
REMARK    8  A    between atoms: C_14  and  C_18
REMARK                            x       y       z     vdW  Elec       q    Type
REMARK                         _______ _______ _______ _____ _____    ______ ____
ROOT
ATOM      2  O   UNL     1      -0.081  -1.386  25.644  0.00  0.00    -0.252 OA
ATOM      5  N   UNL     1      -1.950  -0.998  24.341  0.00  0.00    -0.285 N 
ATOM      7  N   UNL     1       0.194  -1.069  23.363  0.00  0.00    -0.269 N 
ATOM      8  C   UNL     1      -3.418   0.554  23.083  0.00  0.00    +0.016 C 
ATOM      9  C   UNL     1      -4.384   0.567  24.297  0.00  0.00    +0.006 C 
ATOM     10  C   UNL     1      -3.655   0.236  25.612  0.00  0.00    +0.023 C 
ATOM     11  C   UNL     1      -2.638  -0.771  23.062  0.00  0.00    +0.113 C 
ATOM     13  C   UNL     1      -2.849  -1.057  25.496  0.00  0.00    +0.109 C 
ATOM     16  C   UNL     1      -0.563  -1.178  24.528  0.00  0.00    +0.306 C 
ATOM     33  H   UNL     1      -0.236  -1.319  22.480  0.00  0.00    +0.156 HD
ENDROOT
BRANCH   7  26
ATOM     26  C   UNL     1       1.534  -0.620  23.247  0.00  0.00    +0.035 A 
ATOM     27  C   UNL     1       2.585  -1.469  23.589  0.00  0.00    +0.023 A 
ATOM     28  C   UNL     1       1.799   0.671  22.790  0.00  0.00    +0.023 A 
ATOM     29  C   UNL     1       3.903  -1.028  23.476  0.00  0.00    +0.002 A 
ATOM     30  C   UNL     1       3.117   1.113  22.677  0.00  0.00    +0.002 A 
ATOM     32  C   UNL     1       4.170   0.263  23.019  0.00  0.00    +0.000 A 
ENDBRANCH   7  26
BRANCH   8  12
ATOM     12  C   UNL     1      -2.453   1.745  23.040  0.00  0.00    +0.061 C 
BRANCH  12  15
ATOM      6  N   UNL     1      -3.692   3.231  24.465  0.00  0.00    -0.287 NA
ATOM     15  C   UNL     1      -2.596   2.566  24.299  0.00  0.00    +0.044 C 
ATOM     17  C   UNL     1      -1.478   2.575  25.277  0.00  0.00    -0.001 A 
ATOM     19  C   UNL     1      -1.467   3.616  26.214  0.00  0.00    -0.033 A 
ATOM     20  C   UNL     1      -2.558   4.643  26.161  0.00  0.00    +0.059 C 
ATOM     21  C   UNL     1      -3.855   3.979  25.716  0.00  0.00    +0.146 C 
ATOM     22  C   UNL     1      -0.465   1.614  25.275  0.00  0.00    +0.013 A 
ATOM     23  C   UNL     1      -0.420   3.705  27.135  0.00  0.00    +0.050 A 
ATOM     24  C   UNL     1       0.568   1.702  26.209  0.00  0.00    +0.046 A 
ATOM     25  C   UNL     1       0.592   2.747  27.134  0.00  0.00    +0.120 A 
BRANCH  25   4
ATOM      4  O   UNL     1       1.608   2.830  28.038  0.00  0.00    -0.495 OA
ATOM     31  C   UNL     1       1.322   2.417  29.374  0.00  0.00    +0.277 C 
ENDBRANCH  25   4
ENDBRANCH  12  15
ENDBRANCH   8  12
BRANCH   9  14
ATOM     14  C   UNL     1      -5.165   1.875  24.429  0.00  0.00    +0.124 C 
BRANCH  14  18
ATOM      3  O   UNL     1      -6.436   1.663  26.498  0.00  0.00    -0.251 OA
ATOM     18  C   UNL     1      -6.395   1.705  25.277  0.00  0.00    +0.305 C 
BRANCH  18   1
ATOM      1  O   UNL     1      -7.490   1.602  24.481  0.00  0.00    -0.481 OA
ATOM     34  H   UNL     1      -7.271   1.763  23.538  0.00  0.00    +0.295 HD
ENDBRANCH  18   1
ENDBRANCH  14  18
ENDBRANCH   9  14
TORSDOF 7
ENDMDL
MODEL 7
REMARK VINA RESULT:       5.5      1.839      6.491
REMARK  Name = 51136673
REMARK  8 active torsions:
REMARK  status: ('A' for Active; 'I' for Inactive)
REMARK    1  A    between atoms: O_1  and  C_18
REMARK    2  A    between atoms: O_4  and  C_25
REMARK    3  A    between atoms: O_4  and  C_31
REMARK    4  A    between atoms: N_7  and  C_26
REMARK    5  A    between atoms: C_8  and  C_12
REMARK    6  A    between atoms: C_9  and  C_14
REMARK    7  A    between atoms: C_12  and  C_15
REMARK    8  A    between atoms: C_14  and  C_18
REMARK                            x       y       z     vdW  Elec       q    Type
REMARK                         _______ _______ _______ _____ _____    ______ ____
ROOT
ATOM      2  O   UNL     1      -5.842   2.515  24.590  0.00  0.00    -0.252 OA
ATOM      5  N   UNL     1      -4.679   0.675  25.368  0.00  0.00    -0.285 N 
ATOM      7  N   UNL     1      -3.751   2.836  25.541  0.00  0.00    -0.269 N 
ATOM      8  C   UNL     1      -2.883  -1.013  25.101  0.00  0.00    +0.016 C 
ATOM      9  C   UNL     1      -3.954  -2.022  24.611  0.00  0.00    +0.006 C 
ATOM     10  C   UNL     1      -5.178  -1.310  24.007  0.00  0.00    +0.023 C 
ATOM     11  C   UNL     1      -3.539   0.023  26.030  0.00  0.00    +0.113 C 
ATOM     13  C   UNL     1      -5.735  -0.251  24.956  0.00  0.00    +0.109 C 
ATOM     16  C   UNL     1      -4.834   2.058  25.135  0.00  0.00    +0.306 C 
ATOM     33  H   UNL     1      -3.186   2.512  26.317  0.00  0.00    +0.156 HD
ENDROOT
BRANCH   7  26
ATOM     26  C   UNL     1      -3.311   4.059  24.975  0.00  0.00    +0.035 A 
ATOM     27  C   UNL     1      -2.160   4.679  25.464  0.00  0.00    +0.023 A 
ATOM     28  C   UNL     1      -4.029   4.642  23.931  0.00  0.00    +0.023 A 
ATOM     29  C   UNL     1      -1.727   5.882  24.908  0.00  0.00    +0.002 A 
ATOM     30  C   UNL     1      -3.596   5.847  23.376  0.00  0.00    +0.002 A 
ATOM     32  C   UNL     1      -2.445   6.467  23.864  0.00  0.00    +0.000 A 
ENDBRANCH   7  26
BRANCH   8  12
ATOM     12  C   UNL     1      -2.122  -0.312  23.970  0.00  0.00    +0.061 C 
BRANCH  12  15
ATOM      6  N   UNL     1      -1.300   1.275  25.576  0.00  0.00    -0.287 NA
ATOM     15  C   UNL     1      -1.020   0.545  24.547  0.00  0.00    +0.044 C 
ATOM     17  C   UNL     1       0.320   0.514  23.907  0.00  0.00    -0.001 A 
ATOM     19  C   UNL     1       1.185   1.574  24.203  0.00  0.00    -0.033 A 
ATOM     20  C   UNL     1       0.707   2.660  25.119  0.00  0.00    +0.059 C 
ATOM     21  C   UNL     1      -0.215   2.060  26.173  0.00  0.00    +0.146 C 
ATOM     22  C   UNL     1       0.718  -0.503  23.037  0.00  0.00    +0.013 A 
ATOM     23  C   UNL     1       2.446   1.625  23.602  0.00  0.00    +0.050 A 
ATOM     24  C   UNL     1       1.984  -0.453  22.453  0.00  0.00    +0.046 A 
ATOM     25  C   UNL     1       2.844   0.610  22.732  0.00  0.00    +0.120 A 
BRANCH  25   4
ATOM      4  O   UNL     1       4.076   0.657  22.153  0.00  0.00    -0.495 OA
ATOM     31  C   UNL     1       5.190   0.296  22.968  0.00  0.00    +0.277 C 
ENDBRANCH  25   4
ENDBRANCH  12  15
ENDBRANCH   8  12
BRANCH   9  14
ATOM     14  C   UNL     1      -3.399  -3.060  23.635  0.00  0.00    +0.124 C 
BRANCH  14  18
ATOM      3  O   UNL     1      -1.336  -3.138  24.932  0.00  0.00    -0.251 OA
ATOM     18  C   UNL     1      -1.944  -3.341  23.891  0.00  0.00    +0.305 C 
BRANCH  18   1
ATOM      1  O   UNL     1      -1.377  -3.869  22.777  0.00  0.00    -0.481 OA
ATOM     34  H   UNL     1      -0.802  -3.220  22.317  0.00  0.00    +0.295 HD
ENDBRANCH  18   1
ENDBRANCH  14  18
ENDBRANCH   9  14
TORSDOF 7
ENDMDL
