MODEL 1
REMARK VINA RESULT:      17.1      0.000      0.000
REMARK  Name = 7144237
REMARK  7 active torsions:
REMARK  status: ('A' for Active; 'I' for Inactive)
REMARK    1  A    between atoms: S_1  and  N_7
REMARK    2  A    between atoms: S_1  and  C_21
REMARK    3  A    between atoms: S_2  and  C_32
REMARK    4  A    between atoms: S_2  and  C_34
REMARK    5  A    between atoms: N_9  and  C_31
REMARK    6  A    between atoms: C_17  and  C_22
REMARK    7  A    between atoms: C_33  and  C_35
REMARK                            x       y       z     vdW  Elec       q    Type
REMARK                         _______ _______ _______ _____ _____    ______ ____
ROOT
ATOM      5  O   UNL     1      -2.853   4.527  29.057  0.00  0.00    -0.268 OA
ATOM      7  N   UNL     1      -4.819   2.420  25.029  0.00  0.00    -0.176 NA
ATOM      8  N   UNL     1      -2.734   4.006  26.777  0.00  0.00    -0.311 N 
ATOM     10  C   UNL     1      -4.469   4.885  25.106  0.00  0.00    +0.025 C 
ATOM     11  C   UNL     1      -2.652   3.425  24.332  0.00  0.00    +0.053 C 
ATOM     12  C   UNL     1      -3.339   4.769  24.095  0.00  0.00    +0.017 C 
ATOM     13  C   UNL     1      -5.486   3.748  24.922  0.00  0.00    +0.114 C 
ATOM     14  C   UNL     1      -3.662   2.286  24.096  0.00  0.00    +0.119 C 
ATOM     15  C   UNL     1      -3.866   4.904  26.511  0.00  0.00    +0.130 C 
ATOM     16  C   UNL     1      -2.054   3.339  25.738  0.00  0.00    +0.034 A 
ATOM     17  C   UNL     1      -0.923   2.637  26.013  0.00  0.00    +0.002 A 
ATOM     18  C   UNL     1      -2.305   3.953  28.115  0.00  0.00    +0.252 A 
ATOM     19  C   UNL     1      -0.453   2.556  27.383  0.00  0.00    +0.015 A 
ATOM     20  C   UNL     1      -1.090   3.152  28.390  0.00  0.00    +0.071 A 
ENDROOT
BRANCH  17  22
ATOM     22  C   UNL     1      -0.163   1.937  24.953  0.00  0.00    -0.016 A 
ATOM     25  C   UNL     1      -0.575   0.679  24.525  0.00  0.00    +0.009 A 
ATOM     26  C   UNL     1       0.957   2.543  24.392  0.00  0.00    +0.009 A 
ATOM     29  C   UNL     1       0.142   0.018  23.528  0.00  0.00    +0.015 A 
ATOM     30  C   UNL     1       1.674   1.882  23.395  0.00  0.00    +0.015 A 
ATOM     32  C   UNL     1       1.267   0.620  22.962  0.00  0.00    +0.008 A 
BRANCH  32   2
ATOM      2  S   UNL     1       2.183  -0.223  21.687  0.00  0.00    -0.129 S 
ATOM     34  C   UNL     1       3.877   0.335  22.018  0.00  0.00    +0.090 C 
ENDBRANCH  32   2
ENDBRANCH  17  22
BRANCH   7   1
ATOM      1  S   UNL     1      -5.865   1.069  25.112  0.00  0.00    +0.061 S 
ATOM      3  O   UNL     1      -6.630   0.986  23.885  0.00  0.00    -0.153 OA
ATOM      4  O   UNL     1      -6.523   1.061  26.401  0.00  0.00    -0.153 OA
BRANCH   1  21
ATOM     21  C   UNL     1      -4.681  -0.241  25.098  0.00  0.00    +0.106 A 
ATOM     23  C   UNL     1      -3.842  -0.408  26.188  0.00  0.00    +0.030 A 
ATOM     24  C   UNL     1      -4.609  -1.077  23.996  0.00  0.00    +0.030 A 
ATOM     27  C   UNL     1      -2.906  -1.442  26.176  0.00  0.00    +0.025 A 
ATOM     28  C   UNL     1      -3.673  -2.112  23.986  0.00  0.00    +0.025 A 
ATOM     31  C   UNL     1      -2.822  -2.294  25.075  0.00  0.00    +0.033 A 
BRANCH  31   9
ATOM      6  O   UNL     1       0.136  -2.258  25.634  0.00  0.00    -0.276 OA
ATOM      9  N   UNL     1      -1.886  -3.329  25.064  0.00  0.00    -0.286 N 
ATOM     33  C   UNL     1      -0.513  -3.254  25.333  0.00  0.00    +0.214 C 
ATOM     35  C   UNL     1       0.153  -4.603  25.215  0.00  0.00    +0.109 C 
ATOM     36  H   UNL     1      -2.257  -4.248  24.832  0.00  0.00    +0.155 HD
ENDBRANCH  31   9
ENDBRANCH   1  21
ENDBRANCH   7   1
TORSDOF 5
ENDMDL
MODEL 2
REMARK VINA RESULT:      18.3      3.008      6.188
REMARK  Name = 7144237
REMARK  7 active torsions:
REMARK  status: ('A' for Active; 'I' for Inactive)
REMARK    1  A    between atoms: S_1  and  N_7
REMARK    2  A    between atoms: S_1  and  C_21
REMARK    3  A    between atoms: S_2  and  C_32
REMARK    4  A    between atoms: S_2  and  C_34
REMARK    5  A    between atoms: N_9  and  C_31
REMARK    6  A    between atoms: C_17  and  C_22
REMARK    7  A    between atoms: C_33  and  C_35
REMARK                            x       y       z     vdW  Elec       q    Type
REMARK                         _______ _______ _______ _____ _____    ______ ____
ROOT
ATOM      5  O   UNL     1      -1.502   2.915  21.720  0.00  0.00    -0.268 OA
ATOM      7  N   UNL     1      -1.971  -0.925  24.812  0.00  0.00    -0.176 NA
ATOM      8  N   UNL     1      -0.629   1.560  23.419  0.00  0.00    -0.311 N 
ATOM     10  C   UNL     1      -0.205  -0.943  23.056  0.00  0.00    +0.025 C 
ATOM     11  C   UNL     1       0.266   0.076  25.240  0.00  0.00    +0.053 C 
ATOM     12  C   UNL     1       0.869  -0.766  24.117  0.00  0.00    +0.017 C 
ATOM     13  C   UNL     1      -1.432  -1.663  23.636  0.00  0.00    +0.114 C 
ATOM     14  C   UNL     1      -0.933  -0.674  25.853  0.00  0.00    +0.119 C 
ATOM     15  C   UNL     1      -0.555   0.430  22.482  0.00  0.00    +0.130 C 
ATOM     16  C   UNL     1      -0.156   1.460  24.742  0.00  0.00    +0.034 A 
ATOM     17  C   UNL     1      -0.107   2.569  25.528  0.00  0.00    +0.002 A 
ATOM     18  C   UNL     1      -1.091   2.770  22.872  0.00  0.00    +0.252 A 
ATOM     19  C   UNL     1      -0.580   3.834  24.999  0.00  0.00    +0.015 A 
ATOM     20  C   UNL     1      -1.060   3.954  23.762  0.00  0.00    +0.071 A 
ENDROOT
BRANCH  17  22
ATOM     22  C   UNL     1       0.401   2.518  26.917  0.00  0.00    -0.016 A 
ATOM     25  C   UNL     1       1.752   2.741  27.167  0.00  0.00    +0.009 A 
ATOM     26  C   UNL     1      -0.476   2.247  27.963  0.00  0.00    +0.009 A 
ATOM     29  C   UNL     1       2.231   2.691  28.476  0.00  0.00    +0.015 A 
ATOM     30  C   UNL     1       0.004   2.197  29.272  0.00  0.00    +0.015 A 
ATOM     32  C   UNL     1       1.356   2.420  29.528  0.00  0.00    +0.008 A 
BRANCH  32   2
ATOM      2  S   UNL     1       1.968   2.357  31.201  0.00  0.00    -0.129 S 
ATOM     34  C   UNL     1       0.426   2.336  32.158  0.00  0.00    +0.090 C 
ENDBRANCH  32   2
ENDBRANCH  17  22
BRANCH   7   1
ATOM      1  S   UNL     1      -3.489  -1.462  25.393  0.00  0.00    +0.061 S 
ATOM      3  O   UNL     1      -3.336  -1.928  26.755  0.00  0.00    -0.153 OA
ATOM      4  O   UNL     1      -4.111  -2.295  24.385  0.00  0.00    -0.153 OA
BRANCH   1  21
ATOM     21  C   UNL     1      -4.361   0.073  25.444  0.00  0.00    +0.106 A 
ATOM     23  C   UNL     1      -3.978   1.098  24.594  0.00  0.00    +0.030 A 
ATOM     24  C   UNL     1      -5.410   0.226  26.333  0.00  0.00    +0.030 A 
ATOM     27  C   UNL     1      -4.667   2.311  24.635  0.00  0.00    +0.025 A 
ATOM     28  C   UNL     1      -6.100   1.439  26.373  0.00  0.00    +0.025 A 
ATOM     31  C   UNL     1      -5.727   2.480  25.524  0.00  0.00    +0.033 A 
BRANCH  31   9
ATOM      6  O   UNL     1      -4.720   5.308  25.290  0.00  0.00    -0.276 OA
ATOM      9  N   UNL     1      -6.416   3.694  25.564  0.00  0.00    -0.286 N 
ATOM     33  C   UNL     1      -5.893   4.989  25.451  0.00  0.00    +0.214 C 
ATOM     35  C   UNL     1      -6.973   6.037  25.545  0.00  0.00    +0.109 C 
ATOM     36  H   UNL     1      -7.423   3.618  25.692  0.00  0.00    +0.155 HD
ENDBRANCH  31   9
ENDBRANCH   1  21
ENDBRANCH   7   1
TORSDOF 5
ENDMDL
MODEL 3
REMARK VINA RESULT:      18.6      2.649      4.127
REMARK  Name = 7144237
REMARK  7 active torsions:
REMARK  status: ('A' for Active; 'I' for Inactive)
REMARK    1  A    between atoms: S_1  and  N_7
REMARK    2  A    between atoms: S_1  and  C_21
REMARK    3  A    between atoms: S_2  and  C_32
REMARK    4  A    between atoms: S_2  and  C_34
REMARK    5  A    between atoms: N_9  and  C_31
REMARK    6  A    between atoms: C_17  and  C_22
REMARK    7  A    between atoms: C_33  and  C_35
REMARK                            x       y       z     vdW  Elec       q    Type
REMARK                         _______ _______ _______ _____ _____    ______ ____
ROOT
ATOM      5  O   UNL     1      -5.822   2.855  28.086  0.00  0.00    -0.268 OA
ATOM      7  N   UNL     1      -3.689   0.087  24.575  0.00  0.00    -0.176 NA
ATOM      8  N   UNL     1      -4.818   2.671  25.977  0.00  0.00    -0.311 N 
ATOM     10  C   UNL     1      -5.850   1.239  24.118  0.00  0.00    +0.025 C 
ATOM     11  C   UNL     1      -3.736   2.424  23.721  0.00  0.00    +0.053 C 
ATOM     12  C   UNL     1      -5.149   2.210  23.181  0.00  0.00    +0.017 C 
ATOM     13  C   UNL     1      -5.109  -0.106  24.166  0.00  0.00    +0.114 C 
ATOM     14  C   UNL     1      -2.979   1.082  23.719  0.00  0.00    +0.119 C 
ATOM     15  C   UNL     1      -5.965   1.888  25.497  0.00  0.00    +0.130 C 
ATOM     16  C   UNL     1      -3.756   3.034  25.125  0.00  0.00    +0.034 A 
ATOM     17  C   UNL     1      -2.791   3.882  25.570  0.00  0.00    +0.002 A 
ATOM     18  C   UNL     1      -4.910   3.129  27.303  0.00  0.00    +0.252 A 
ATOM     19  C   UNL     1      -2.852   4.371  26.934  0.00  0.00    +0.015 A 
ATOM     20  C   UNL     1      -3.827   4.023  27.773  0.00  0.00    +0.071 A 
ENDROOT
BRANCH  17  22
ATOM     22  C   UNL     1      -1.669   4.308  24.705  0.00  0.00    -0.016 A 
ATOM     25  C   UNL     1      -0.947   3.356  23.992  0.00  0.00    +0.009 A 
ATOM     26  C   UNL     1      -1.342   5.657  24.613  0.00  0.00    +0.009 A 
ATOM     29  C   UNL     1       0.113   3.757  23.178  0.00  0.00    +0.015 A 
ATOM     30  C   UNL     1      -0.282   6.058  23.800  0.00  0.00    +0.015 A 
ATOM     32  C   UNL     1       0.445   5.109  23.082  0.00  0.00    +0.008 A 
BRANCH  32   2
ATOM      2  S   UNL     1       1.798   5.622  22.042  0.00  0.00    -0.129 S 
ATOM     34  C   UNL     1       0.924   6.385  20.648  0.00  0.00    +0.090 C 
ENDBRANCH  32   2
ENDBRANCH  17  22
BRANCH   7   1
ATOM      1  S   UNL     1      -2.818  -1.342  24.929  0.00  0.00    +0.061 S 
ATOM      3  O   UNL     1      -3.280  -2.405  24.061  0.00  0.00    -0.153 OA
ATOM      4  O   UNL     1      -2.769  -1.521  26.364  0.00  0.00    -0.153 OA
BRANCH   1  21
ATOM     21  C   UNL     1      -1.207  -0.865  24.385  0.00  0.00    +0.106 A 
ATOM     23  C   UNL     1      -0.541   0.152  25.049  0.00  0.00    +0.030 A 
ATOM     24  C   UNL     1      -0.638  -1.515  23.303  0.00  0.00    +0.030 A 
ATOM     27  C   UNL     1       0.731   0.530  24.619  0.00  0.00    +0.025 A 
ATOM     28  C   UNL     1       0.636  -1.137  22.873  0.00  0.00    +0.025 A 
ATOM     31  C   UNL     1       1.319  -0.116  23.531  0.00  0.00    +0.033 A 
BRANCH  31   9
ATOM      6  O   UNL     1       3.976  -1.500  23.833  0.00  0.00    -0.276 OA
ATOM      9  N   UNL     1       2.592   0.263  23.101  0.00  0.00    -0.286 N 
ATOM     33  C   UNL     1       3.801  -0.424  23.271  0.00  0.00    +0.214 C 
ATOM     35  C   UNL     1       4.958   0.322  22.656  0.00  0.00    +0.109 C 
ATOM     36  H   UNL     1       2.636   1.149  22.602  0.00  0.00    +0.155 HD
ENDBRANCH  31   9
ENDBRANCH   1  21
ENDBRANCH   7   1
TORSDOF 5
ENDMDL
MODEL 4
REMARK VINA RESULT:      19.9      2.957      5.601
REMARK  Name = 7144237
REMARK  7 active torsions:
REMARK  status: ('A' for Active; 'I' for Inactive)
REMARK    1  A    between atoms: S_1  and  N_7
REMARK    2  A    between atoms: S_1  and  C_21
REMARK    3  A    between atoms: S_2  and  C_32
REMARK    4  A    between atoms: S_2  and  C_34
REMARK    5  A    between atoms: N_9  and  C_31
REMARK    6  A    between atoms: C_17  and  C_22
REMARK    7  A    between atoms: C_33  and  C_35
REMARK                            x       y       z     vdW  Elec       q    Type
REMARK                         _______ _______ _______ _____ _____    ______ ____
ROOT
ATOM      5  O   UNL     1      -5.850   5.006  25.562  0.00  0.00    -0.268 OA
ATOM      7  N   UNL     1      -1.342   3.246  24.510  0.00  0.00    -0.176 NA
ATOM      8  N   UNL     1      -4.208   3.354  25.810  0.00  0.00    -0.311 N 
ATOM     10  C   UNL     1      -1.922   3.878  26.848  0.00  0.00    +0.025 C 
ATOM     11  C   UNL     1      -2.414   1.609  26.047  0.00  0.00    +0.053 C 
ATOM     12  C   UNL     1      -1.934   2.413  27.255  0.00  0.00    +0.017 C 
ATOM     13  C   UNL     1      -0.969   4.109  25.666  0.00  0.00    +0.114 C 
ATOM     14  C   UNL     1      -1.426   1.803  24.880  0.00  0.00    +0.119 C 
ATOM     15  C   UNL     1      -3.355   4.309  26.532  0.00  0.00    +0.130 C 
ATOM     16  C   UNL     1      -3.832   2.008  25.632  0.00  0.00    +0.034 A 
ATOM     17  C   UNL     1      -4.713   1.126  25.090  0.00  0.00    +0.002 A 
ATOM     18  C   UNL     1      -5.465   3.845  25.417  0.00  0.00    +0.252 A 
ATOM     19  C   UNL     1      -6.018   1.598  24.668  0.00  0.00    +0.015 A 
ATOM     20  C   UNL     1      -6.392   2.870  24.797  0.00  0.00    +0.071 A 
ENDROOT
BRANCH  17  22
ATOM     22  C   UNL     1      -4.371  -0.301  24.901  0.00  0.00    -0.016 A 
ATOM     25  C   UNL     1      -3.645  -0.972  25.880  0.00  0.00    +0.009 A 
ATOM     26  C   UNL     1      -4.778  -0.961  23.745  0.00  0.00    +0.009 A 
ATOM     29  C   UNL     1      -3.321  -2.317  25.701  0.00  0.00    +0.015 A 
ATOM     30  C   UNL     1      -4.454  -2.306  23.567  0.00  0.00    +0.015 A 
ATOM     32  C   UNL     1      -3.726  -2.984  24.545  0.00  0.00    +0.008 A 
BRANCH  32   2
ATOM      2  S   UNL     1      -3.313  -4.703  24.316  0.00  0.00    -0.129 S 
ATOM     34  C   UNL     1      -1.953  -4.600  23.120  0.00  0.00    +0.090 C 
ENDBRANCH  32   2
ENDBRANCH  17  22
BRANCH   7   1
ATOM      1  S   UNL     1      -0.537   3.589  23.039  0.00  0.00    +0.061 S 
ATOM      3  O   UNL     1       0.115   4.877  23.145  0.00  0.00    -0.153 OA
ATOM      4  O   UNL     1      -1.426   3.292  21.936  0.00  0.00    -0.153 OA
BRANCH   1  21
ATOM     21  C   UNL     1       0.717   2.346  23.077  0.00  0.00    +0.106 A 
ATOM     23  C   UNL     1       2.049   2.727  23.060  0.00  0.00    +0.030 A 
ATOM     24  C   UNL     1       0.348   1.012  23.120  0.00  0.00    +0.030 A 
ATOM     27  C   UNL     1       3.040   1.745  23.089  0.00  0.00    +0.025 A 
ATOM     28  C   UNL     1       1.340   0.030  23.150  0.00  0.00    +0.025 A 
ATOM     31  C   UNL     1       2.685   0.398  23.135  0.00  0.00    +0.033 A 
BRANCH  31   9
ATOM      6  O   UNL     1       5.403   0.403  24.428  0.00  0.00    -0.276 OA
ATOM      9  N   UNL     1       3.676  -0.584  23.163  0.00  0.00    -0.286 N 
ATOM     33  C   UNL     1       4.931  -0.527  23.784  0.00  0.00    +0.214 C 
ATOM     35  C   UNL     1       5.712  -1.802  23.582  0.00  0.00    +0.109 C 
ATOM     36  H   UNL     1       3.449  -1.446  22.670  0.00  0.00    +0.155 HD
ENDBRANCH  31   9
ENDBRANCH   1  21
ENDBRANCH   7   1
TORSDOF 5
ENDMDL
