MODEL 1
REMARK VINA RESULT:      -6.8      0.000      0.000
REMARK  Name = 11941637
REMARK  8 active torsions:
REMARK  status: ('A' for Active; 'I' for Inactive)
REMARK    1  A    between atoms: N_4  and  C_11
REMARK    2  A    between atoms: N_5  and  C_12
REMARK    3  A    between atoms: N_7  and  C_24
REMARK    4  A    between atoms: C_17  and  C_18
REMARK    5  A    between atoms: C_17  and  C_20
REMARK    6  A    between atoms: C_17  and  C_21
REMARK    7  A    between atoms: C_17  and  C_22
REMARK    8  A    between atoms: C_24  and  C_25
REMARK                            x       y       z     vdW  Elec       q    Type
REMARK                         _______ _______ _______ _____ _____    ______ ____
ROOT
ATOM      1  O   UNL     1      -2.694  -1.791  23.682  0.00  0.00    -0.370 OA
ATOM      2  O   UNL     1      -1.177  -1.027  26.298  0.00  0.00    -0.370 OA
ATOM      9  C   UNL     1      -2.141  -0.340  25.484  0.00  0.00    +0.171 C 
ATOM     10  C   UNL     1      -1.842  -0.690  24.040  0.00  0.00    +0.171 C 
ATOM     11  C   UNL     1      -3.523  -0.901  25.723  0.00  0.00    +0.130 C 
ATOM     12  C   UNL     1      -0.396  -1.131  24.059  0.00  0.00    +0.131 C 
ATOM     13  C   UNL     1      -3.565  -2.093  24.782  0.00  0.00    +0.185 C 
ATOM     14  C   UNL     1      -0.258  -1.730  25.448  0.00  0.00    +0.185 C 
ENDROOT
BRANCH  11   4
ATOM      4  N   UNL     1      -4.524   0.071  25.344  0.00  0.00    -0.306 N 
ATOM      6  N   UNL     1      -2.944   1.798  25.185  0.00  0.00    -0.219 NA
ATOM      8  N   UNL     1      -5.275   2.208  24.730  0.00  0.00    -0.223 NA
ATOM     15  C   UNL     1      -4.239   1.399  25.079  0.00  0.00    +0.216 A 
ATOM     18  C   UNL     1      -2.702   3.099  24.918  0.00  0.00    +0.052 A 
ATOM     19  C   UNL     1      -3.680   4.002  24.556  0.00  0.00    +0.043 A 
ATOM     23  C   UNL     1      -4.962   3.496  24.479  0.00  0.00    +0.116 A 
ATOM     26  H   UNL     1      -5.484  -0.227  25.211  0.00  0.00    +0.149 HD
BRANCH  18  17
ATOM     17  C   UNL     1      -1.286   3.555  25.030  0.00  0.00    +0.005 C 
ATOM     20  C   UNL     1      -0.578   2.908  26.260  0.00  0.00    +0.017 C 
ATOM     21  C   UNL     1      -1.203   5.103  25.200  0.00  0.00    +0.017 C 
ATOM     22  C   UNL     1      -0.374   3.221  23.803  0.00  0.00    +0.017 C 
ENDBRANCH  18  17
ENDBRANCH  11   4
BRANCH  12   5
ATOM      3  O   UNL     1       2.194  -1.148  22.787  0.00  0.00    -0.253 OA
ATOM      5  N   UNL     1       0.494  -0.008  23.883  0.00  0.00    -0.292 N 
ATOM      7  N   UNL     1       2.384   1.124  23.219  0.00  0.00    -0.300 N 
ATOM     16  C   UNL     1       1.733  -0.107  23.254  0.00  0.00    +0.300 C 
ATOM     27  H   UNL     1       0.176   0.911  24.174  0.00  0.00    +0.151 HD
ATOM     28  H   UNL     1       1.927   1.931  23.631  0.00  0.00    +0.150 HD
BRANCH   7  24
ATOM     24  C   UNL     1       3.687   1.303  22.624  0.00  0.00    +0.102 C 
ATOM     25  C   UNL     1       4.755   0.550  23.388  0.00  0.00    +0.024 C 
ENDBRANCH   7  24
ENDBRANCH  12   5
TORSDOF 4
ENDMDL
