MODEL 1
REMARK VINA RESULT:      -2.1      0.000      0.000
REMARK  Name = 45783491
REMARK  9 active torsions:
REMARK  status: ('A' for Active; 'I' for Inactive)
REMARK    1  A    between atoms: O_3  and  C_26
REMARK    2  A    between atoms: O_3  and  C_27
REMARK    3  A    between atoms: N_4  and  C_13
REMARK    4  A    between atoms: N_8  and  C_24
REMARK    5  A    between atoms: N_8  and  C_25
REMARK    6  A    between atoms: C_9  and  C_14
REMARK    7  A    between atoms: C_13  and  C_15
REMARK    8  A    between atoms: C_16  and  C_19
REMARK    9  A    between atoms: C_25  and  C_26
REMARK                            x       y       z     vdW  Elec       q    Type
REMARK                         _______ _______ _______ _____ _____    ______ ____
ROOT
ATOM      2  O   UNL     1      -2.398   3.687  24.632  0.00  0.00    -0.336 OA
ATOM      5  N   UNL     1      -2.297   1.552  23.962  0.00  0.00    -0.190 NA
ATOM      6  N   UNL     1      -1.042   3.409  24.419  0.00  0.00    -0.056 NA
ATOM     14  C   UNL     1      -3.067   2.541  24.340  0.00  0.00    +0.245 A 
ATOM     16  C   UNL     1      -1.063   2.132  24.027  0.00  0.00    +0.204 A 
ENDROOT
BRANCH  16  19
ATOM      7  N   UNL     1       2.538   1.369  23.504  0.00  0.00    -0.240 NA
ATOM     19  C   UNL     1       0.128   1.407  23.693  0.00  0.00    +0.041 A 
ATOM     21  C   UNL     1       0.066   0.091  23.248  0.00  0.00    +0.016 A 
ATOM     22  C   UNL     1       1.377   1.995  23.803  0.00  0.00    +0.124 A 
ATOM     23  C   UNL     1       1.238  -0.587  22.932  0.00  0.00    +0.044 A 
ATOM     24  C   UNL     1       2.437   0.091  23.076  0.00  0.00    +0.119 A 
BRANCH  24   8
ATOM      8  N   UNL     1       3.623  -0.612  22.750  0.00  0.00    -0.327 N 
ATOM     28  H   UNL     1       3.932  -0.557  21.787  0.00  0.00    +0.148 HD
BRANCH   8  25
ATOM     25  C   UNL     1       4.359  -1.368  23.711  0.00  0.00    +0.131 C 
BRANCH  25  26
ATOM     26  C   UNL     1       5.370  -0.476  24.411  0.00  0.00    +0.178 C 
BRANCH  26   3
ATOM      3  O   UNL     1       6.094   0.271  23.441  0.00  0.00    -0.381 OA
ATOM     27  C   UNL     1       7.151  -0.494  22.878  0.00  0.00    +0.194 C 
ENDBRANCH  26   3
ENDBRANCH  25  26
ENDBRANCH   8  25
ENDBRANCH  24   8
ENDBRANCH  16  19
BRANCH  14   9
ATOM      4  N   UNL     1      -5.110   1.370  25.145  0.00  0.00    -0.287 NA
ATOM      9  C   UNL     1      -4.573   2.581  24.492  0.00  0.00    +0.146 C 
ATOM     10  C   UNL     1      -5.050   3.748  25.378  0.00  0.00    +0.030 C 
ATOM     11  C   UNL     1      -5.897   3.101  26.464  0.00  0.00    +0.017 C 
ATOM     12  C   UNL     1      -6.325   1.784  25.848  0.00  0.00    +0.085 C 
BRANCH   4  13
ATOM     13  C   UNL     1      -5.361   0.278  24.213  0.00  0.00    +0.127 C 
BRANCH  13  15
ATOM      1  S   UNL     1      -3.442  -0.892  25.853  0.00  0.00    -0.100 S 
ATOM     15  C   UNL     1      -4.461  -0.899  24.476  0.00  0.00    +0.004 A 
ATOM     17  C   UNL     1      -4.320  -2.053  23.735  0.00  0.00    +0.012 A 
ATOM     18  C   UNL     1      -3.364  -2.942  24.306  0.00  0.00    +0.008 A 
ATOM     20  C   UNL     1      -2.810  -2.434  25.460  0.00  0.00    +0.045 A 
ENDBRANCH  13  15
ENDBRANCH   4  13
ENDBRANCH  14   9
TORSDOF 8
ENDMDL
MODEL 2
REMARK VINA RESULT:      -2.0      1.090      1.357
REMARK  Name = 45783491
REMARK  9 active torsions:
REMARK  status: ('A' for Active; 'I' for Inactive)
REMARK    1  A    between atoms: O_3  and  C_26
REMARK    2  A    between atoms: O_3  and  C_27
REMARK    3  A    between atoms: N_4  and  C_13
REMARK    4  A    between atoms: N_8  and  C_24
REMARK    5  A    between atoms: N_8  and  C_25
REMARK    6  A    between atoms: C_9  and  C_14
REMARK    7  A    between atoms: C_13  and  C_15
REMARK    8  A    between atoms: C_16  and  C_19
REMARK    9  A    between atoms: C_25  and  C_26
REMARK                            x       y       z     vdW  Elec       q    Type
REMARK                         _______ _______ _______ _____ _____    ______ ____
ROOT
ATOM      2  O   UNL     1      -2.071   2.436  25.633  0.00  0.00    -0.336 OA
ATOM      5  N   UNL     1      -1.829   1.670  23.542  0.00  0.00    -0.190 NA
ATOM      6  N   UNL     1      -0.710   2.143  25.480  0.00  0.00    -0.056 NA
ATOM     14  C   UNL     1      -2.657   2.129  24.446  0.00  0.00    +0.245 A 
ATOM     16  C   UNL     1      -0.647   1.696  24.222  0.00  0.00    +0.204 A 
ENDROOT
BRANCH  16  19
ATOM      7  N   UNL     1       2.899   1.722  23.103  0.00  0.00    -0.240 NA
ATOM     19  C   UNL     1       0.581   1.268  23.616  0.00  0.00    +0.041 A 
ATOM     21  C   UNL     1       0.671   0.039  22.972  0.00  0.00    +0.016 A 
ATOM     22  C   UNL     1       1.712   2.065  23.654  0.00  0.00    +0.124 A 
ATOM     23  C   UNL     1       1.875  -0.349  22.393  0.00  0.00    +0.044 A 
ATOM     24  C   UNL     1       2.948   0.520  22.486  0.00  0.00    +0.119 A 
BRANCH  24   8
ATOM      8  N   UNL     1       4.168   0.111  21.892  0.00  0.00    -0.327 N 
ATOM     28  H   UNL     1       4.110  -0.271  20.956  0.00  0.00    +0.148 HD
BRANCH   8  25
ATOM     25  C   UNL     1       5.424   0.219  22.561  0.00  0.00    +0.131 C 
BRANCH  25  26
ATOM     26  C   UNL     1       5.208   0.322  24.061  0.00  0.00    +0.178 C 
BRANCH  26   3
ATOM      3  O   UNL     1       5.504  -0.930  24.668  0.00  0.00    -0.381 OA
ATOM     27  C   UNL     1       4.819  -1.995  24.026  0.00  0.00    +0.194 C 
ENDBRANCH  26   3
ENDBRANCH  25  26
ENDBRANCH   8  25
ENDBRANCH  24   8
ENDBRANCH  16  19
BRANCH  14   9
ATOM      4  N   UNL     1      -4.923   1.448  25.217  0.00  0.00    -0.287 NA
ATOM      9  C   UNL     1      -4.151   2.361  24.351  0.00  0.00    +0.146 C 
ATOM     10  C   UNL     1      -4.564   3.774  24.805  0.00  0.00    +0.030 C 
ATOM     11  C   UNL     1      -5.614   3.553  25.884  0.00  0.00    +0.017 C 
ATOM     12  C   UNL     1      -6.143   2.164  25.590  0.00  0.00    +0.085 C 
BRANCH   4  13
ATOM     13  C   UNL     1      -5.211   0.165  24.589  0.00  0.00    +0.127 C 
BRANCH  13  15
ATOM      1  S   UNL     1      -3.934  -2.149  23.719  0.00  0.00    -0.100 S 
ATOM     15  C   UNL     1      -4.091  -0.821  24.790  0.00  0.00    +0.004 A 
ATOM     17  C   UNL     1      -3.114  -0.821  25.761  0.00  0.00    +0.012 A 
ATOM     18  C   UNL     1      -2.224  -1.926  25.623  0.00  0.00    +0.008 A 
ATOM     20  C   UNL     1      -2.555  -2.728  24.553  0.00  0.00    +0.045 A 
ENDBRANCH  13  15
ENDBRANCH   4  13
ENDBRANCH  14   9
TORSDOF 8
ENDMDL
MODEL 3
REMARK VINA RESULT:      -0.3      2.141      3.419
REMARK  Name = 45783491
REMARK  9 active torsions:
REMARK  status: ('A' for Active; 'I' for Inactive)
REMARK    1  A    between atoms: O_3  and  C_26
REMARK    2  A    between atoms: O_3  and  C_27
REMARK    3  A    between atoms: N_4  and  C_13
REMARK    4  A    between atoms: N_8  and  C_24
REMARK    5  A    between atoms: N_8  and  C_25
REMARK    6  A    between atoms: C_9  and  C_14
REMARK    7  A    between atoms: C_13  and  C_15
REMARK    8  A    between atoms: C_16  and  C_19
REMARK    9  A    between atoms: C_25  and  C_26
REMARK                            x       y       z     vdW  Elec       q    Type
REMARK                         _______ _______ _______ _____ _____    ______ ____
ROOT
ATOM      2  O   UNL     1      -3.408   1.661  23.095  0.00  0.00    -0.336 OA
ATOM      5  N   UNL     1      -1.871   1.072  24.615  0.00  0.00    -0.190 NA
ATOM      6  N   UNL     1      -2.208   1.495  22.393  0.00  0.00    -0.056 NA
ATOM     14  C   UNL     1      -3.122   1.393  24.396  0.00  0.00    +0.245 A 
ATOM     16  C   UNL     1      -1.350   1.148  23.357  0.00  0.00    +0.204 A 
ENDROOT
BRANCH  16  19
ATOM      7  N   UNL     1       2.357   1.412  23.494  0.00  0.00    -0.240 NA
ATOM     19  C   UNL     1       0.033   0.873  23.096  0.00  0.00    +0.041 A 
ATOM     21  C   UNL     1       0.411  -0.151  22.235  0.00  0.00    +0.016 A 
ATOM     22  C   UNL     1       1.035   1.619  23.695  0.00  0.00    +0.124 A 
ATOM     23  C   UNL     1       1.760  -0.395  22.002  0.00  0.00    +0.044 A 
ATOM     24  C   UNL     1       2.684   0.407  22.650  0.00  0.00    +0.119 A 
BRANCH  24   8
ATOM      8  N   UNL     1       4.055   0.147  22.403  0.00  0.00    -0.327 N 
ATOM     28  H   UNL     1       4.264  -0.549  21.698  0.00  0.00    +0.148 HD
BRANCH   8  25
ATOM     25  C   UNL     1       5.103   0.817  23.102  0.00  0.00    +0.131 C 
BRANCH  25  26
ATOM     26  C   UNL     1       6.050  -0.200  23.718  0.00  0.00    +0.178 C 
BRANCH  26   3
ATOM      3  O   UNL     1       5.333  -1.021  24.632  0.00  0.00    -0.381 OA
ATOM     27  C   UNL     1       4.677  -2.091  23.967  0.00  0.00    +0.194 C 
ENDBRANCH  26   3
ENDBRANCH  25  26
ENDBRANCH   8  25
ENDBRANCH  24   8
ENDBRANCH  16  19
BRANCH  14   9
ATOM      4  N   UNL     1      -4.812   2.874  25.463  0.00  0.00    -0.287 NA
ATOM      9  C   UNL     1      -4.271   1.503  25.376  0.00  0.00    +0.146 C 
ATOM     10  C   UNL     1      -5.477   0.630  24.980  0.00  0.00    +0.030 C 
ATOM     11  C   UNL     1      -6.660   1.587  24.929  0.00  0.00    +0.017 C 
ATOM     12  C   UNL     1      -6.227   2.738  25.813  0.00  0.00    +0.085 C 
BRANCH   4  13
ATOM     13  C   UNL     1      -4.093   3.718  26.408  0.00  0.00    +0.127 C 
BRANCH  13  15
ATOM      1  S   UNL     1      -2.437   5.167  24.706  0.00  0.00    -0.100 S 
ATOM     15  C   UNL     1      -2.691   4.010  25.943  0.00  0.00    +0.004 A 
ATOM     17  C   UNL     1      -1.509   3.457  26.385  0.00  0.00    +0.012 A 
ATOM     18  C   UNL     1      -0.380   3.992  25.699  0.00  0.00    +0.008 A 
ATOM     20  C   UNL     1      -0.742   4.931  24.759  0.00  0.00    +0.045 A 
ENDBRANCH  13  15
ENDBRANCH   4  13
ENDBRANCH  14   9
TORSDOF 8
ENDMDL
