MODEL 1
REMARK VINA RESULT:      14.7      0.000      0.000
REMARK  Name = 9424630
REMARK  4 active torsions:
REMARK  status: ('A' for Active; 'I' for Inactive)
REMARK    1  A    between atoms: N_4  and  C_14
REMARK    2  A    between atoms: N_7  and  C_21
REMARK    3  A    between atoms: N_8  and  C_28
REMARK    4  A    between atoms: C_25  and  C_26
REMARK                            x       y       z     vdW  Elec       q    Type
REMARK                         _______ _______ _______ _____ _____    ______ ____
ROOT
ATOM      1  O   UNL     1      -3.940   5.004  26.909  0.00  0.00    -0.268 OA
ATOM      4  N   UNL     1      -3.618   0.701  24.347  0.00  0.00    -0.298 NA
ATOM      5  N   UNL     1      -3.273   3.805  25.011  0.00  0.00    -0.310 N 
ATOM      9  C   UNL     1      -4.957   2.632  23.475  0.00  0.00    +0.024 C 
ATOM     10  C   UNL     1      -2.563   2.503  22.980  0.00  0.00    +0.052 C 
ATOM     11  C   UNL     1      -3.919   2.891  22.394  0.00  0.00    +0.017 C 
ATOM     12  C   UNL     1      -4.939   1.146  23.887  0.00  0.00    +0.090 C 
ATOM     13  C   UNL     1      -2.575   1.004  23.356  0.00  0.00    +0.094 C 
ATOM     15  C   UNL     1      -4.678   3.576  24.647  0.00  0.00    +0.130 C 
ATOM     16  C   UNL     1      -2.216   3.355  24.199  0.00  0.00    +0.047 A 
ATOM     21  C   UNL     1      -0.940   3.662  24.528  0.00  0.00    +0.055 A 
ATOM     22  C   UNL     1      -3.055   4.571  26.170  0.00  0.00    +0.252 A 
ATOM     23  C   UNL     1      -0.663   4.448  25.706  0.00  0.00    +0.030 A 
ATOM     24  C   UNL     1      -1.642   4.882  26.502  0.00  0.00    +0.072 A 
ENDROOT
BRANCH   4  14
ATOM      2  O   UNL     1      -1.411  -4.913  23.219  0.00  0.00    -0.276 OA
ATOM      6  N   UNL     1      -3.079  -3.473  23.958  0.00  0.00    -0.302 N 
ATOM     14  C   UNL     1      -3.631  -0.723  24.675  0.00  0.00    +0.060 C 
ATOM     17  C   UNL     1      -2.201  -1.280  24.661  0.00  0.00    +0.038 C 
ATOM     18  C   UNL     1      -4.512  -1.485  23.675  0.00  0.00    +0.038 C 
ATOM     19  C   UNL     1      -2.201  -2.787  24.907  0.00  0.00    +0.109 C 
ATOM     20  C   UNL     1      -4.465  -2.990  23.941  0.00  0.00    +0.109 C 
ATOM     25  C   UNL     1      -2.582  -4.524  23.187  0.00  0.00    +0.212 C 
ATOM     26  C   UNL     1      -3.560  -5.209  22.267  0.00  0.00    +0.109 C 
ENDBRANCH   4  14
BRANCH  21   7
ATOM      3  O   UNL     1       0.709   1.428  25.140  0.00  0.00    -0.252 OA
ATOM      7  N   UNL     1       0.150   3.245  23.814  0.00  0.00    -0.268 N 
ATOM      8  N   UNL     1       1.966   1.975  23.235  0.00  0.00    -0.269 N 
ATOM     27  C   UNL     1       0.929   2.136  24.161  0.00  0.00    +0.308 C 
ATOM     34  H   UNL     1       0.274   3.600  22.872  0.00  0.00    +0.156 HD
ATOM     35  H   UNL     1       2.012   2.653  22.479  0.00  0.00    +0.156 HD
BRANCH   8  28
ATOM     28  C   UNL     1       2.972   0.980  23.222  0.00  0.00    +0.035 A 
ATOM     29  C   UNL     1       2.605  -0.355  23.253  0.00  0.00    +0.023 A 
ATOM     30  C   UNL     1       4.304   1.362  23.179  0.00  0.00    +0.023 A 
ATOM     31  C   UNL     1       3.597  -1.336  23.241  0.00  0.00    +0.002 A 
ATOM     32  C   UNL     1       5.295   0.381  23.167  0.00  0.00    +0.002 A 
ATOM     33  C   UNL     1       4.941  -0.968  23.198  0.00  0.00    +0.000 A 
ENDBRANCH   8  28
ENDBRANCH  21   7
TORSDOF 3
ENDMDL
MODEL 2
REMARK VINA RESULT:      16.1      1.921      6.238
REMARK  Name = 9424630
REMARK  4 active torsions:
REMARK  status: ('A' for Active; 'I' for Inactive)
REMARK    1  A    between atoms: N_4  and  C_14
REMARK    2  A    between atoms: N_7  and  C_21
REMARK    3  A    between atoms: N_8  and  C_28
REMARK    4  A    between atoms: C_25  and  C_26
REMARK                            x       y       z     vdW  Elec       q    Type
REMARK                         _______ _______ _______ _____ _____    ______ ____
ROOT
ATOM      1  O   UNL     1      -2.410   6.645  23.730  0.00  0.00    -0.268 OA
ATOM      4  N   UNL     1       0.142   2.349  24.194  0.00  0.00    -0.298 NA
ATOM      5  N   UNL     1      -2.100   4.555  24.741  0.00  0.00    -0.310 N 
ATOM      9  C   UNL     1       0.008   3.988  26.086  0.00  0.00    +0.024 C 
ATOM     10  C   UNL     1      -1.753   2.309  25.818  0.00  0.00    +0.052 C 
ATOM     11  C   UNL     1      -0.918   3.059  26.854  0.00  0.00    +0.017 C 
ATOM     12  C   UNL     1       0.909   3.176  25.133  0.00  0.00    +0.090 C 
ATOM     13  C   UNL     1      -0.819   1.489  24.899  0.00  0.00    +0.094 C 
ATOM     15  C   UNL     1      -0.849   5.024  25.353  0.00  0.00    +0.130 C 
ATOM     16  C   UNL     1      -2.607   3.267  24.990  0.00  0.00    +0.047 A 
ATOM     21  C   UNL     1      -3.805   2.908  24.474  0.00  0.00    +0.055 A 
ATOM     22  C   UNL     1      -2.797   5.500  23.967  0.00  0.00    +0.252 A 
ATOM     23  C   UNL     1      -4.561   3.841  23.675  0.00  0.00    +0.030 A 
ATOM     24  C   UNL     1      -4.105   5.067  23.413  0.00  0.00    +0.072 A 
ENDROOT
BRANCH   4  14
ATOM      2  O   UNL     1       4.293  -2.154  23.799  0.00  0.00    -0.276 OA
ATOM      6  N   UNL     1       3.332  -0.176  23.047  0.00  0.00    -0.302 N 
ATOM     14  C   UNL     1       1.032   1.556  23.348  0.00  0.00    +0.060 C 
ATOM     17  C   UNL     1       0.992   0.083  23.776  0.00  0.00    +0.038 C 
ATOM     18  C   UNL     1       2.464   2.100  23.436  0.00  0.00    +0.038 C 
ATOM     19  C   UNL     1       1.986  -0.747  22.967  0.00  0.00    +0.109 C 
ATOM     20  C   UNL     1       3.430   1.229  22.633  0.00  0.00    +0.109 C 
ATOM     25  C   UNL     1       4.401  -0.973  23.455  0.00  0.00    +0.212 C 
ATOM     26  C   UNL     1       5.762  -0.325  23.468  0.00  0.00    +0.109 C 
ENDBRANCH   4  14
BRANCH  21   7
ATOM      3  O   UNL     1      -2.722   0.445  23.553  0.00  0.00    -0.252 OA
ATOM      7  N   UNL     1      -4.363   1.669  24.640  0.00  0.00    -0.268 N 
ATOM      8  N   UNL     1      -4.599  -0.605  24.494  0.00  0.00    -0.269 N 
ATOM     27  C   UNL     1      -3.787   0.487  24.165  0.00  0.00    +0.308 C 
ATOM     34  H   UNL     1      -5.100   1.561  25.329  0.00  0.00    +0.156 HD
ATOM     35  H   UNL     1      -5.455  -0.399  25.002  0.00  0.00    +0.156 HD
BRANCH   8  28
ATOM     28  C   UNL     1      -4.380  -1.971  24.199  0.00  0.00    +0.035 A 
ATOM     29  C   UNL     1      -5.109  -2.571  23.185  0.00  0.00    +0.023 A 
ATOM     30  C   UNL     1      -3.440  -2.680  24.930  0.00  0.00    +0.023 A 
ATOM     31  C   UNL     1      -4.893  -3.918  22.895  0.00  0.00    +0.002 A 
ATOM     32  C   UNL     1      -3.225  -4.027  24.639  0.00  0.00    +0.002 A 
ATOM     33  C   UNL     1      -3.951  -4.646  23.622  0.00  0.00    +0.000 A 
ENDBRANCH   8  28
ENDBRANCH  21   7
TORSDOF 3
ENDMDL
MODEL 3
REMARK VINA RESULT:      18.7      1.955      6.208
REMARK  Name = 9424630
REMARK  4 active torsions:
REMARK  status: ('A' for Active; 'I' for Inactive)
REMARK    1  A    between atoms: N_4  and  C_14
REMARK    2  A    between atoms: N_7  and  C_21
REMARK    3  A    between atoms: N_8  and  C_28
REMARK    4  A    between atoms: C_25  and  C_26
REMARK                            x       y       z     vdW  Elec       q    Type
REMARK                         _______ _______ _______ _____ _____    ______ ____
ROOT
ATOM      1  O   UNL     1      -5.119  -3.555  23.128  0.00  0.00    -0.268 OA
ATOM      4  N   UNL     1      -3.002   0.771  24.538  0.00  0.00    -0.298 NA
ATOM      5  N   UNL     1      -3.574  -2.368  24.429  0.00  0.00    -0.310 N 
ATOM      9  C   UNL     1      -4.302  -0.626  26.163  0.00  0.00    +0.024 C 
ATOM     10  C   UNL     1      -1.922  -1.079  25.818  0.00  0.00    +0.052 C 
ATOM     11  C   UNL     1      -3.021  -1.026  26.876  0.00  0.00    +0.017 C 
ATOM     12  C   UNL     1      -4.127   0.746  25.480  0.00  0.00    +0.090 C 
ATOM     13  C   UNL     1      -1.758   0.317  25.176  0.00  0.00    +0.094 C 
ATOM     15  C   UNL     1      -4.671  -1.737  25.175  0.00  0.00    +0.130 C 
ATOM     16  C   UNL     1      -2.226  -2.125  24.748  0.00  0.00    +0.047 A 
ATOM     21  C   UNL     1      -1.251  -2.794  24.090  0.00  0.00    +0.055 A 
ATOM     22  C   UNL     1      -3.957  -3.291  23.438  0.00  0.00    +0.252 A 
ATOM     23  C   UNL     1      -1.590  -3.753  23.067  0.00  0.00    +0.030 A 
ATOM     24  C   UNL     1      -2.859  -4.000  22.734  0.00  0.00    +0.072 A 
ENDROOT
BRANCH   4  14
ATOM      2  O   UNL     1      -0.101   6.177  24.665  0.00  0.00    -0.276 OA
ATOM      6  N   UNL     1      -1.940   4.845  24.169  0.00  0.00    -0.302 N 
ATOM     14  C   UNL     1      -2.837   2.101  23.956  0.00  0.00    +0.060 C 
ATOM     17  C   UNL     1      -1.348   2.468  23.895  0.00  0.00    +0.038 C 
ATOM     18  C   UNL     1      -3.610   3.137  24.782  0.00  0.00    +0.038 C 
ATOM     19  C   UNL     1      -1.159   3.893  23.378  0.00  0.00    +0.109 C 
ATOM     20  C   UNL     1      -3.376   4.550  24.248  0.00  0.00    +0.109 C 
ATOM     25  C   UNL     1      -1.311   5.949  24.745  0.00  0.00    +0.212 C 
ATOM     26  C   UNL     1      -2.191   6.908  25.506  0.00  0.00    +0.109 C 
ENDBRANCH   4  14
BRANCH  21   7
ATOM      3  O   UNL     1       0.382  -0.805  22.880  0.00  0.00    -0.252 OA
ATOM      7  N   UNL     1       0.086  -2.602  24.314  0.00  0.00    -0.268 N 
ATOM      8  N   UNL     1       2.171  -1.672  24.129  0.00  0.00    -0.269 N 
ATOM     27  C   UNL     1       0.843  -1.606  23.690  0.00  0.00    +0.308 C 
ATOM     34  H   UNL     1       0.505  -3.037  25.129  0.00  0.00    +0.156 HD
ATOM     35  H   UNL     1       2.392  -2.400  24.803  0.00  0.00    +0.156 HD
BRANCH   8  28
ATOM     28  C   UNL     1       3.255  -0.849  23.744  0.00  0.00    +0.035 A 
ATOM     29  C   UNL     1       4.546  -1.233  24.068  0.00  0.00    +0.023 A 
ATOM     30  C   UNL     1       3.003   0.325  23.052  0.00  0.00    +0.023 A 
ATOM     31  C   UNL     1       5.615  -0.421  23.689  0.00  0.00    +0.002 A 
ATOM     32  C   UNL     1       4.072   1.137  22.674  0.00  0.00    +0.002 A 
ATOM     33  C   UNL     1       5.378   0.764  22.992  0.00  0.00    +0.000 A 
ENDBRANCH   8  28
ENDBRANCH  21   7
TORSDOF 3
ENDMDL
