MODEL 1
REMARK VINA RESULT:       2.4      0.000      0.000
REMARK  Name = 25318005
REMARK  15 active torsions:
REMARK  status: ('A' for Active; 'I' for Inactive)
REMARK    1  A    between atoms: O_1  and  C_14
REMARK    2  A    between atoms: N_3  and  C_10
REMARK    3  A    between atoms: N_3  and  C_21
REMARK    4  A    between atoms: N_4  and  C_26
REMARK    5  A    between atoms: N_5  and  C_29
REMARK    6  A    between atoms: N_5  and  C_33
REMARK    7  A    between atoms: N_5  and  C_34
REMARK    8  A    between atoms: C_7  and  C_15
REMARK    9  A    between atoms: C_9  and  C_17
REMARK   10  A    between atoms: C_9  and  C_18
REMARK   11  A    between atoms: C_14  and  C_20
REMARK   12  A    between atoms: C_15  and  C_19
REMARK   13  A    between atoms: C_19  and  C_22
REMARK   14  A    between atoms: C_21  and  C_23
REMARK   15  A    between atoms: C_26  and  C_30
REMARK                            x       y       z     vdW  Elec       q    Type
REMARK                         _______ _______ _______ _____ _____    ______ ____
ROOT
ATOM      7  C   UNL     1      -1.971   2.180  24.485  0.00  0.00    -0.010 C 
ATOM      8  C   UNL     1      -2.744   3.535  24.600  0.00  0.00    +0.005 C 
ATOM      9  C   UNL     1      -1.835   4.453  25.506  0.00  0.00    -0.030 C 
ATOM     10  C   UNL     1      -1.404   2.054  25.916  0.00  0.00    +0.061 C 
ATOM     11  C   UNL     1      -0.895   3.465  26.247  0.00  0.00    +0.026 C 
ATOM     12  C   UNL     1      -2.856   0.985  24.056  0.00  0.00    +0.011 C 
ATOM     13  C   UNL     1      -4.173   3.369  25.178  0.00  0.00    +0.039 C 
ATOM     14  C   UNL     1      -4.985   2.248  24.526  0.00  0.00    +0.064 C 
ATOM     16  C   UNL     1      -4.237   0.926  24.696  0.00  0.00    +0.035 C 
ATOM     17  C   UNL     1      -1.026   5.438  24.636  0.00  0.00    +0.011 C 
ATOM     18  C   UNL     1      -2.585   5.321  26.537  0.00  0.00    +0.011 C 
ATOM     20  C   UNL     1      -6.380   2.164  25.151  0.00  0.00    +0.041 C 
ENDROOT
BRANCH  14   1
ATOM      1  O   UNL     1      -5.144   2.547  23.139  0.00  0.00    -0.389 OA
ATOM     38  H   UNL     1      -5.202   1.707  22.653  0.00  0.00    +0.210 HD
ENDBRANCH  14   1
BRANCH  10   3
ATOM      3  N   UNL     1      -0.376   1.060  26.073  0.00  0.00    -0.309 NA
ATOM     37  H   UNL     1      -0.061   0.739  25.159  0.00  0.00    +0.123 HD
BRANCH   3  21
ATOM     21  C   UNL     1      -0.868  -0.085  26.828  0.00  0.00    +0.116 C 
BRANCH  21  23
ATOM     23  C   UNL     1      -1.670  -1.020  25.969  0.00  0.00    -0.033 A 
ATOM     24  C   UNL     1      -3.010  -1.267  26.268  0.00  0.00    +0.007 A 
ATOM     25  C   UNL     1      -1.073  -1.644  24.873  0.00  0.00    +0.007 A 
ATOM     27  C   UNL     1      -3.753  -2.138  25.471  0.00  0.00    +0.023 A 
ATOM     28  C   UNL     1      -1.816  -2.514  24.076  0.00  0.00    +0.023 A 
ATOM     29  C   UNL     1      -3.156  -2.761  24.375  0.00  0.00    +0.029 A 
BRANCH  29   5
ATOM      5  N   UNL     1      -3.908  -3.640  23.568  0.00  0.00    -0.336 N 
ATOM     33  C   UNL     1      -3.285  -4.807  22.976  0.00  0.00    +0.129 C 
ATOM     34  C   UNL     1      -5.312  -3.384  23.314  0.00  0.00    +0.129 C 
ENDBRANCH  29   5
ENDBRANCH  21  23
ENDBRANCH   3  21
ENDBRANCH  10   3
BRANCH   7  15
ATOM     15  C   UNL     1      -0.830   2.253  23.437  0.00  0.00    +0.018 C 
BRANCH  15  19
ATOM     19  C   UNL     1      -0.221   0.883  23.223  0.00  0.00    +0.096 C 
BRANCH  19  22
ATOM      2  O   UNL     1       2.030   1.638  23.694  0.00  0.00    -0.276 OA
ATOM      4  N   UNL     1       1.668   0.223  21.890  0.00  0.00    -0.311 N 
ATOM     22  C   UNL     1       1.276   0.974  22.988  0.00  0.00    +0.213 C 
ATOM     39  H   UNL     1       0.969  -0.283  21.352  0.00  0.00    +0.149 HD
BRANCH   4  26
ATOM     26  C   UNL     1       3.044   0.147  21.459  0.00  0.00    +0.141 C 
BRANCH  26  30
ATOM      6  N   UNL     1       4.768  -1.684  24.283  0.00  0.00    -0.263 NA
ATOM     30  C   UNL     1       3.974  -0.138  22.601  0.00  0.00    -0.012 A 
ATOM     31  C   UNL     1       4.879   0.820  23.046  0.00  0.00    +0.008 A 
ATOM     32  C   UNL     1       3.959  -1.364  23.248  0.00  0.00    +0.115 A 
ATOM     35  C   UNL     1       5.728   0.528  24.108  0.00  0.00    +0.020 A 
ATOM     36  C   UNL     1       5.634  -0.727  24.686  0.00  0.00    +0.111 A 
ENDBRANCH  26  30
ENDBRANCH   4  26
ENDBRANCH  19  22
ENDBRANCH  15  19
ENDBRANCH   7  15
TORSDOF 10
ENDMDL
MODEL 2
REMARK VINA RESULT:       3.6      2.052      7.507
REMARK  Name = 25318005
REMARK  15 active torsions:
REMARK  status: ('A' for Active; 'I' for Inactive)
REMARK    1  A    between atoms: O_1  and  C_14
REMARK    2  A    between atoms: N_3  and  C_10
REMARK    3  A    between atoms: N_3  and  C_21
REMARK    4  A    between atoms: N_4  and  C_26
REMARK    5  A    between atoms: N_5  and  C_29
REMARK    6  A    between atoms: N_5  and  C_33
REMARK    7  A    between atoms: N_5  and  C_34
REMARK    8  A    between atoms: C_7  and  C_15
REMARK    9  A    between atoms: C_9  and  C_17
REMARK   10  A    between atoms: C_9  and  C_18
REMARK   11  A    between atoms: C_14  and  C_20
REMARK   12  A    between atoms: C_15  and  C_19
REMARK   13  A    between atoms: C_19  and  C_22
REMARK   14  A    between atoms: C_21  and  C_23
REMARK   15  A    between atoms: C_26  and  C_30
REMARK                            x       y       z     vdW  Elec       q    Type
REMARK                         _______ _______ _______ _____ _____    ______ ____
ROOT
ATOM      7  C   UNL     1      -1.267   0.719  24.430  0.00  0.00    -0.010 C 
ATOM      8  C   UNL     1      -2.828   0.618  24.475  0.00  0.00    +0.005 C 
ATOM      9  C   UNL     1      -3.134  -0.878  24.871  0.00  0.00    -0.030 C 
ATOM     10  C   UNL     1      -0.912  -0.651  23.812  0.00  0.00    +0.061 C 
ATOM     11  C   UNL     1      -1.825  -1.646  24.546  0.00  0.00    +0.026 C 
ATOM     12  C   UNL     1      -0.738   1.926  23.620  0.00  0.00    +0.011 C 
ATOM     13  C   UNL     1      -3.498   1.021  23.136  0.00  0.00    +0.039 C 
ATOM     14  C   UNL     1      -2.980   2.335  22.548  0.00  0.00    +0.064 C 
ATOM     16  C   UNL     1      -1.473   2.219  22.320  0.00  0.00    +0.035 C 
ATOM     17  C   UNL     1      -3.475  -0.979  26.373  0.00  0.00    +0.011 C 
ATOM     18  C   UNL     1      -4.314  -1.535  24.127  0.00  0.00    +0.011 C 
ATOM     20  C   UNL     1      -3.702   2.656  21.236  0.00  0.00    +0.041 C 
ENDROOT
BRANCH  14   1
ATOM      1  O   UNL     1      -3.258   3.389  23.470  0.00  0.00    -0.389 OA
ATOM     38  H   UNL     1      -3.727   4.093  22.992  0.00  0.00    +0.210 HD
ENDBRANCH  14   1
BRANCH  10   3
ATOM      3  N   UNL     1       0.476  -1.017  23.914  0.00  0.00    -0.309 NA
ATOM     37  H   UNL     1       0.916  -0.505  24.676  0.00  0.00    +0.123 HD
BRANCH   3  21
ATOM     21  C   UNL     1       1.185  -0.720  22.677  0.00  0.00    +0.116 C 
BRANCH  21  23
ATOM     23  C   UNL     1       2.636  -0.422  22.921  0.00  0.00    -0.033 A 
ATOM     24  C   UNL     1       3.453  -1.377  23.528  0.00  0.00    +0.007 A 
ATOM     25  C   UNL     1       3.168   0.811  22.542  0.00  0.00    +0.007 A 
ATOM     27  C   UNL     1       4.801  -1.099  23.755  0.00  0.00    +0.023 A 
ATOM     28  C   UNL     1       4.516   1.089  22.770  0.00  0.00    +0.023 A 
ATOM     29  C   UNL     1       5.332   0.134  23.376  0.00  0.00    +0.029 A 
BRANCH  29   5
ATOM      5  N   UNL     1       6.695   0.415  23.605  0.00  0.00    -0.336 N 
ATOM     33  C   UNL     1       7.087   1.600  24.343  0.00  0.00    +0.129 C 
ATOM     34  C   UNL     1       7.722  -0.474  23.100  0.00  0.00    +0.129 C 
ENDBRANCH  29   5
ENDBRANCH  21  23
ENDBRANCH   3  21
ENDBRANCH  10   3
BRANCH   7  15
ATOM     15  C   UNL     1      -0.657   0.866  25.848  0.00  0.00    +0.018 C 
BRANCH  15  19
ATOM     19  C   UNL     1       0.145   2.147  25.948  0.00  0.00    +0.096 C 
BRANCH  19  22
ATOM      2  O   UNL     1      -0.458   4.307  25.036  0.00  0.00    -0.276 OA
ATOM      4  N   UNL     1      -1.890   3.281  26.547  0.00  0.00    -0.311 N 
ATOM     22  C   UNL     1      -0.741   3.368  25.774  0.00  0.00    +0.213 C 
ATOM     39  H   UNL     1      -2.033   2.470  27.144  0.00  0.00    +0.149 HD
BRANCH   4  26
ATOM     26  C   UNL     1      -2.894   4.319  26.557  0.00  0.00    +0.141 C 
BRANCH  26  30
ATOM      6  N   UNL     1      -6.504   4.251  25.435  0.00  0.00    -0.263 NA
ATOM     30  C   UNL     1      -4.245   3.795  26.167  0.00  0.00    -0.012 A 
ATOM     31  C   UNL     1      -4.513   2.431  26.166  0.00  0.00    +0.008 A 
ATOM     32  C   UNL     1      -5.266   4.657  25.796  0.00  0.00    +0.115 A 
ATOM     35  C   UNL     1      -5.775   1.975  25.800  0.00  0.00    +0.020 A 
ATOM     36  C   UNL     1      -6.727   2.918  25.447  0.00  0.00    +0.111 A 
ENDBRANCH  26  30
ENDBRANCH   4  26
ENDBRANCH  19  22
ENDBRANCH  15  19
ENDBRANCH   7  15
TORSDOF 10
ENDMDL
