MODEL 1
REMARK VINA RESULT:      -5.0      0.000      0.000
REMARK  Name = 45783768
REMARK  6 active torsions:
REMARK  status: ('A' for Active; 'I' for Inactive)
REMARK    1  A    between atoms: N_3  and  C_12
REMARK    2  A    between atoms: N_7  and  C_25
REMARK    3  A    between atoms: N_7  and  C_26
REMARK    4  A    between atoms: C_8  and  C_13
REMARK    5  A    between atoms: C_12  and  C_14
REMARK    6  A    between atoms: C_17  and  C_20
REMARK                            x       y       z     vdW  Elec       q    Type
REMARK                         _______ _______ _______ _____ _____    ______ ____
ROOT
ATOM      2  O   UNL     1      -2.056   2.987  25.250  0.00  0.00    -0.336 OA
ATOM      4  N   UNL     1      -1.817   1.484  23.606  0.00  0.00    -0.190 NA
ATOM      5  N   UNL     1      -0.679   2.766  25.121  0.00  0.00    -0.056 NA
ATOM     13  C   UNL     1      -2.652   2.193  24.322  0.00  0.00    +0.245 A 
ATOM     17  C   UNL     1      -0.618   1.868  24.133  0.00  0.00    +0.204 A 
ENDROOT
BRANCH  17  20
ATOM      6  N   UNL     1       2.999   1.618  23.312  0.00  0.00    -0.240 NA
ATOM     20  C   UNL     1       0.623   1.335  23.650  0.00  0.00    +0.041 A 
ATOM     22  C   UNL     1       0.682   0.072  23.070  0.00  0.00    +0.016 A 
ATOM     23  C   UNL     1       1.799   2.061  23.747  0.00  0.00    +0.124 A 
ATOM     24  C   UNL     1       1.900  -0.418  22.611  0.00  0.00    +0.044 A 
ATOM     25  C   UNL     1       3.019   0.386  22.753  0.00  0.00    +0.118 A 
BRANCH  25   7
ATOM      7  N   UNL     1       4.252  -0.127  22.281  0.00  0.00    -0.332 N 
ATOM     26  C   UNL     1       5.463  -0.032  23.028  0.00  0.00    +0.127 C 
ATOM     27  H   UNL     1       4.307  -0.366  21.296  0.00  0.00    +0.147 HD
ENDBRANCH  25   7
ENDBRANCH  17  20
BRANCH  13   8
ATOM      3  N   UNL     1      -4.811   1.382  25.259  0.00  0.00    -0.287 NA
ATOM      8  C   UNL     1      -4.165   2.251  24.256  0.00  0.00    +0.146 C 
ATOM      9  C   UNL     1      -4.717   3.660  24.544  0.00  0.00    +0.030 C 
ATOM     10  C   UNL     1      -5.710   3.472  25.682  0.00  0.00    +0.017 C 
ATOM     11  C   UNL     1      -6.093   2.009  25.584  0.00  0.00    +0.085 C 
BRANCH   3  12
ATOM     12  C   UNL     1      -4.972   0.006  24.808  0.00  0.00    +0.123 C 
BRANCH  12  14
ATOM      1  F   UNL     1      -4.335  -2.233  23.194  0.00  0.00    -0.205 F 
ATOM     14  C   UNL     1      -3.704  -0.789  24.970  0.00  0.00    +0.002 A 
ATOM     15  C   UNL     1      -3.453  -1.882  24.140  0.00  0.00    +0.128 A 
ATOM     16  C   UNL     1      -2.779  -0.431  25.952  0.00  0.00    +0.008 A 
ATOM     18  C   UNL     1      -2.277  -2.617  24.293  0.00  0.00    +0.038 A 
ATOM     19  C   UNL     1      -1.604  -1.167  26.104  0.00  0.00    +0.000 A 
ATOM     21  C   UNL     1      -1.353  -2.259  25.274  0.00  0.00    +0.003 A 
ENDBRANCH  12  14
ENDBRANCH   3  12
ENDBRANCH  13   8
TORSDOF 5
ENDMDL
MODEL 2
REMARK VINA RESULT:      -2.4      1.454      1.911
REMARK  Name = 45783768
REMARK  6 active torsions:
REMARK  status: ('A' for Active; 'I' for Inactive)
REMARK    1  A    between atoms: N_3  and  C_12
REMARK    2  A    between atoms: N_7  and  C_25
REMARK    3  A    between atoms: N_7  and  C_26
REMARK    4  A    between atoms: C_8  and  C_13
REMARK    5  A    between atoms: C_12  and  C_14
REMARK    6  A    between atoms: C_17  and  C_20
REMARK                            x       y       z     vdW  Elec       q    Type
REMARK                         _______ _______ _______ _____ _____    ______ ____
ROOT
ATOM      2  O   UNL     1      -2.780   1.217  22.302  0.00  0.00    -0.336 OA
ATOM      4  N   UNL     1      -1.352   1.859  23.905  0.00  0.00    -0.190 NA
ATOM      5  N   UNL     1      -1.525   0.722  21.927  0.00  0.00    -0.056 NA
ATOM     13  C   UNL     1      -2.589   1.874  23.476  0.00  0.00    +0.245 A 
ATOM     17  C   UNL     1      -0.736   1.141  22.921  0.00  0.00    +0.204 A 
ENDROOT
BRANCH  17  20
ATOM      6  N   UNL     1       2.907   1.591  23.513  0.00  0.00    -0.240 NA
ATOM     20  C   UNL     1       0.670   0.860  22.961  0.00  0.00    +0.041 A 
ATOM     22  C   UNL     1       1.170  -0.358  22.511  0.00  0.00    +0.016 A 
ATOM     23  C   UNL     1       1.572   1.792  23.448  0.00  0.00    +0.124 A 
ATOM     24  C   UNL     1       2.539  -0.601  22.562  0.00  0.00    +0.044 A 
ATOM     25  C   UNL     1       3.357   0.397  23.066  0.00  0.00    +0.118 A 
BRANCH  25   7
ATOM      7  N   UNL     1       4.748   0.133  23.112  0.00  0.00    -0.332 N 
ATOM     26  C   UNL     1       5.368  -0.548  24.201  0.00  0.00    +0.127 C 
ATOM     27  H   UNL     1       5.336   0.640  22.458  0.00  0.00    +0.147 HD
ENDBRANCH  25   7
ENDBRANCH  17  20
BRANCH  13   8
ATOM      3  N   UNL     1      -4.150   1.926  25.414  0.00  0.00    -0.287 NA
ATOM      8  C   UNL     1      -3.814   2.509  24.101  0.00  0.00    +0.146 C 
ATOM      9  C   UNL     1      -3.627   4.013  24.376  0.00  0.00    +0.030 C 
ATOM     10  C   UNL     1      -3.938   4.187  25.857  0.00  0.00    +0.017 C 
ATOM     11  C   UNL     1      -4.803   2.986  26.183  0.00  0.00    +0.085 C 
BRANCH   3  12
ATOM     12  C   UNL     1      -4.977   0.730  25.317  0.00  0.00    +0.123 C 
BRANCH  12  14
ATOM      1  F   UNL     1      -2.415   0.208  26.405  0.00  0.00    -0.205 F 
ATOM     14  C   UNL     1      -4.165  -0.487  24.960  0.00  0.00    +0.002 A 
ATOM     15  C   UNL     1      -2.909  -0.682  25.534  0.00  0.00    +0.128 A 
ATOM     16  C   UNL     1      -4.672  -1.419  24.054  0.00  0.00    +0.008 A 
ATOM     18  C   UNL     1      -2.159  -1.811  25.202  0.00  0.00    +0.038 A 
ATOM     19  C   UNL     1      -3.921  -2.548  23.723  0.00  0.00    +0.000 A 
ATOM     21  C   UNL     1      -2.666  -2.743  24.297  0.00  0.00    +0.003 A 
ENDBRANCH  12  14
ENDBRANCH   3  12
ENDBRANCH  13   8
TORSDOF 5
ENDMDL
MODEL 3
REMARK VINA RESULT:      -2.4      2.339      3.875
REMARK  Name = 45783768
REMARK  6 active torsions:
REMARK  status: ('A' for Active; 'I' for Inactive)
REMARK    1  A    between atoms: N_3  and  C_12
REMARK    2  A    between atoms: N_7  and  C_25
REMARK    3  A    between atoms: N_7  and  C_26
REMARK    4  A    between atoms: C_8  and  C_13
REMARK    5  A    between atoms: C_12  and  C_14
REMARK    6  A    between atoms: C_17  and  C_20
REMARK                            x       y       z     vdW  Elec       q    Type
REMARK                         _______ _______ _______ _____ _____    ______ ____
ROOT
ATOM      2  O   UNL     1      -3.191  -0.832  24.770  0.00  0.00    -0.336 OA
ATOM      4  N   UNL     1      -2.046   1.089  24.635  0.00  0.00    -0.190 NA
ATOM      5  N   UNL     1      -1.951  -1.156  24.203  0.00  0.00    -0.056 NA
ATOM     13  C   UNL     1      -3.163   0.508  24.992  0.00  0.00    +0.245 A 
ATOM     17  C   UNL     1      -1.333   0.028  24.156  0.00  0.00    +0.204 A 
ENDROOT
BRANCH  17  20
ATOM      6  N   UNL     1       2.106   1.359  23.686  0.00  0.00    -0.240 NA
ATOM     20  C   UNL     1      -0.005   0.185  23.636  0.00  0.00    +0.041 A 
ATOM     22  C   UNL     1       0.467  -0.639  22.619  0.00  0.00    +0.016 A 
ATOM     23  C   UNL     1       0.846   1.159  24.131  0.00  0.00    +0.124 A 
ATOM     24  C   UNL     1       1.759  -0.463  22.135  0.00  0.00    +0.044 A 
ATOM     25  C   UNL     1       2.531   0.542  22.696  0.00  0.00    +0.118 A 
BRANCH  25   7
ATOM      7  N   UNL     1       3.845   0.708  22.193  0.00  0.00    -0.332 N 
ATOM     26  C   UNL     1       5.008   0.395  22.956  0.00  0.00    +0.127 C 
ATOM     27  H   UNL     1       3.951   1.270  21.355  0.00  0.00    +0.147 HD
ENDBRANCH  25   7
ENDBRANCH  17  20
BRANCH  13   8
ATOM      3  N   UNL     1      -4.500   2.571  25.385  0.00  0.00    -0.287 NA
ATOM      8  C   UNL     1      -4.405   1.115  25.611  0.00  0.00    +0.146 C 
ATOM      9  C   UNL     1      -5.705   0.541  25.017  0.00  0.00    +0.030 C 
ATOM     10  C   UNL     1      -6.492   1.753  24.537  0.00  0.00    +0.017 C 
ATOM     11  C   UNL     1      -5.927   2.893  25.361  0.00  0.00    +0.085 C 
BRANCH   3  12
ATOM     12  C   UNL     1      -3.778   3.354  26.379  0.00  0.00    +0.123 C 
BRANCH  12  14
ATOM      1  F   UNL     1      -1.118   2.417  26.637  0.00  0.00    -0.205 F 
ATOM     14  C   UNL     1      -2.594   4.066  25.780  0.00  0.00    +0.002 A 
ATOM     15  C   UNL     1      -1.309   3.548  25.946  0.00  0.00    +0.128 A 
ATOM     16  C   UNL     1      -2.784   5.245  25.057  0.00  0.00    +0.008 A 
ATOM     18  C   UNL     1      -0.214   4.210  25.390  0.00  0.00    +0.038 A 
ATOM     19  C   UNL     1      -1.687   5.906  24.502  0.00  0.00    +0.000 A 
ATOM     21  C   UNL     1      -0.404   5.388  24.668  0.00  0.00    +0.003 A 
ENDBRANCH  12  14
ENDBRANCH   3  12
ENDBRANCH  13   8
TORSDOF 5
ENDMDL
MODEL 4
REMARK VINA RESULT:      -1.7      2.115      4.061
REMARK  Name = 45783768
REMARK  6 active torsions:
REMARK  status: ('A' for Active; 'I' for Inactive)
REMARK    1  A    between atoms: N_3  and  C_12
REMARK    2  A    between atoms: N_7  and  C_25
REMARK    3  A    between atoms: N_7  and  C_26
REMARK    4  A    between atoms: C_8  and  C_13
REMARK    5  A    between atoms: C_12  and  C_14
REMARK    6  A    between atoms: C_17  and  C_20
REMARK                            x       y       z     vdW  Elec       q    Type
REMARK                         _______ _______ _______ _____ _____    ______ ____
ROOT
ATOM      2  O   UNL     1      -0.734  -0.127  22.508  0.00  0.00    -0.336 OA
ATOM      4  N   UNL     1       0.510   0.002  24.366  0.00  0.00    -0.190 NA
ATOM      5  N   UNL     1       0.601  -0.178  22.086  0.00  0.00    -0.056 NA
ATOM     13  C   UNL     1      -0.698  -0.020  23.862  0.00  0.00    +0.245 A 
ATOM     17  C   UNL     1       1.274  -0.096  23.238  0.00  0.00    +0.204 A 
ENDROOT
BRANCH  17  20
ATOM      6  N   UNL     1       4.741  -1.302  23.825  0.00  0.00    -0.240 NA
ATOM     20  C   UNL     1       2.707  -0.109  23.297  0.00  0.00    +0.041 A 
ATOM     22  C   UNL     1       3.449   1.000  22.905  0.00  0.00    +0.016 A 
ATOM     23  C   UNL     1       3.394  -1.225  23.745  0.00  0.00    +0.124 A 
ATOM     24  C   UNL     1       4.838   0.959  22.973  0.00  0.00    +0.044 A 
ATOM     25  C   UNL     1       5.430  -0.205  23.437  0.00  0.00    +0.118 A 
BRANCH  25   7
ATOM      7  N   UNL     1       6.845  -0.232  23.499  0.00  0.00    -0.332 N 
ATOM     26  C   UNL     1       7.647  -0.905  22.531  0.00  0.00    +0.127 C 
ATOM     27  H   UNL     1       7.274   0.045  24.376  0.00  0.00    +0.147 HD
ENDBRANCH  25   7
ENDBRANCH  17  20
BRANCH  13   8
ATOM      3  N   UNL     1      -3.174   0.072  23.631  0.00  0.00    -0.287 NA
ATOM      8  C   UNL     1      -2.035   0.051  24.570  0.00  0.00    +0.146 C 
ATOM      9  C   UNL     1      -2.293  -1.169  25.474  0.00  0.00    +0.030 C 
ATOM     10  C   UNL     1      -3.629  -1.732  25.007  0.00  0.00    +0.017 C 
ATOM     11  C   UNL     1      -4.297  -0.552  24.332  0.00  0.00    +0.085 C 
BRANCH   3  12
ATOM     12  C   UNL     1      -3.500   1.409  23.154  0.00  0.00    +0.123 C 
BRANCH  12  14
ATOM      1  F   UNL     1      -5.698   2.275  24.716  0.00  0.00    -0.205 F 
ATOM     14  C   UNL     1      -3.378   2.440  24.245  0.00  0.00    +0.002 A 
ATOM     15  C   UNL     1      -4.503   2.821  24.976  0.00  0.00    +0.128 A 
ATOM     16  C   UNL     1      -2.136   3.013  24.523  0.00  0.00    +0.008 A 
ATOM     18  C   UNL     1      -4.386   3.776  25.986  0.00  0.00    +0.038 A 
ATOM     19  C   UNL     1      -2.021   3.969  25.533  0.00  0.00    +0.000 A 
ATOM     21  C   UNL     1      -3.145   4.349  26.265  0.00  0.00    +0.003 A 
ENDBRANCH  12  14
ENDBRANCH   3  12
ENDBRANCH  13   8
TORSDOF 5
ENDMDL
MODEL 5
REMARK VINA RESULT:      -1.7      1.690      2.497
REMARK  Name = 45783768
REMARK  6 active torsions:
REMARK  status: ('A' for Active; 'I' for Inactive)
REMARK    1  A    between atoms: N_3  and  C_12
REMARK    2  A    between atoms: N_7  and  C_25
REMARK    3  A    between atoms: N_7  and  C_26
REMARK    4  A    between atoms: C_8  and  C_13
REMARK    5  A    between atoms: C_12  and  C_14
REMARK    6  A    between atoms: C_17  and  C_20
REMARK                            x       y       z     vdW  Elec       q    Type
REMARK                         _______ _______ _______ _____ _____    ______ ____
ROOT
ATOM      2  O   UNL     1      -1.069   0.838  22.623  0.00  0.00    -0.336 OA
ATOM      4  N   UNL     1       0.497   1.737  23.948  0.00  0.00    -0.190 NA
ATOM      5  N   UNL     1       0.107   0.118  22.379  0.00  0.00    -0.056 NA
ATOM     13  C   UNL     1      -0.752   1.772  23.557  0.00  0.00    +0.245 A 
ATOM     17  C   UNL     1       0.985   0.707  23.197  0.00  0.00    +0.204 A 
ENDROOT
BRANCH  17  20
ATOM      6  N   UNL     1       3.956  -1.449  23.785  0.00  0.00    -0.240 NA
ATOM     20  C   UNL     1       2.354   0.292  23.287  0.00  0.00    +0.041 A 
ATOM     22  C   UNL     1       3.390   1.169  22.982  0.00  0.00    +0.016 A 
ATOM     23  C   UNL     1       2.687  -0.994  23.679  0.00  0.00    +0.124 A 
ATOM     24  C   UNL     1       4.709   0.738  23.079  0.00  0.00    +0.044 A 
ATOM     25  C   UNL     1       4.937  -0.568  23.481  0.00  0.00    +0.118 A 
BRANCH  25   7
ATOM      7  N   UNL     1       6.285  -0.993  23.574  0.00  0.00    -0.332 N 
ATOM     26  C   UNL     1       7.366  -0.256  23.007  0.00  0.00    +0.127 C 
ATOM     27  H   UNL     1       6.448  -1.954  23.857  0.00  0.00    +0.147 HD
ENDBRANCH  25   7
ENDBRANCH  17  20
BRANCH  13   8
ATOM      3  N   UNL     1      -2.563   2.204  25.210  0.00  0.00    -0.287 NA
ATOM      8  C   UNL     1      -1.871   2.692  24.000  0.00  0.00    +0.146 C 
ATOM      9  C   UNL     1      -1.370   4.099  24.376  0.00  0.00    +0.030 C 
ATOM     10  C   UNL     1      -1.879   4.337  25.791  0.00  0.00    +0.017 C 
ATOM     11  C   UNL     1      -3.057   3.390  25.910  0.00  0.00    +0.085 C 
BRANCH   3  12
ATOM     12  C   UNL     1      -3.630   1.256  24.918  0.00  0.00    +0.123 C 
BRANCH  12  14
ATOM      1  F   UNL     1      -5.137  -0.912  23.893  0.00  0.00    -0.205 F 
ATOM     14  C   UNL     1      -3.134  -0.166  24.925  0.00  0.00    +0.002 A 
ATOM     15  C   UNL     1      -3.929  -1.187  24.404  0.00  0.00    +0.128 A 
ATOM     16  C   UNL     1      -1.877  -0.461  25.455  0.00  0.00    +0.008 A 
ATOM     18  C   UNL     1      -3.467  -2.503  24.412  0.00  0.00    +0.038 A 
ATOM     19  C   UNL     1      -1.416  -1.779  25.463  0.00  0.00    +0.000 A 
ATOM     21  C   UNL     1      -2.211  -2.798  24.941  0.00  0.00    +0.003 A 
ENDBRANCH  12  14
ENDBRANCH   3  12
ENDBRANCH  13   8
TORSDOF 5
ENDMDL
