MODEL 1
REMARK VINA RESULT:      -2.6      0.000      0.000
REMARK  Name = 11913351
REMARK  6 active torsions:
REMARK  status: ('A' for Active; 'I' for Inactive)
REMARK    1  A    between atoms: O_5  and  C_18
REMARK    2  A    between atoms: O_5  and  C_23
REMARK    3  A    between atoms: N_6  and  C_13
REMARK    4  A    between atoms: N_7  and  C_12
REMARK    5  A    between atoms: C_16  and  C_18
REMARK    6  A    between atoms: C_19  and  C_22
REMARK                            x       y       z     vdW  Elec       q    Type
REMARK                         _______ _______ _______ _____ _____    ______ ____
ROOT
ATOM      7  N   UNL     1      -4.721  -0.811  25.419  0.00  0.00    -0.306 N 
ATOM      8  N   UNL     1      -3.471   1.172  25.298  0.00  0.00    -0.214 NA
ATOM      9  N   UNL     1      -5.805   1.143  24.700  0.00  0.00    -0.223 NA
ATOM     17  C   UNL     1      -4.663   0.542  25.130  0.00  0.00    +0.216 A 
ATOM     19  C   UNL     1      -3.451   2.490  25.008  0.00  0.00    +0.076 A 
ATOM     20  C   UNL     1      -5.714   2.461  24.429  0.00  0.00    +0.116 A 
ATOM     21  C   UNL     1      -4.552   3.194  24.565  0.00  0.00    +0.048 A 
ATOM     29  H   UNL     1      -5.600  -1.280  25.240  0.00  0.00    +0.149 HD
ENDROOT
BRANCH   7  12
ATOM      2  O   UNL     1      -2.582  -2.490  23.929  0.00  0.00    -0.370 OA
ATOM      3  O   UNL     1      -1.255  -1.299  26.466  0.00  0.00    -0.370 OA
ATOM     10  C   UNL     1      -2.305  -0.825  25.605  0.00  0.00    +0.171 C 
ATOM     11  C   UNL     1      -1.936  -1.230  24.192  0.00  0.00    +0.171 C 
ATOM     12  C   UNL     1      -3.585  -1.577  25.882  0.00  0.00    +0.130 C 
ATOM     13  C   UNL     1      -0.434  -1.409  24.237  0.00  0.00    +0.130 C 
ATOM     14  C   UNL     1      -3.421  -2.832  25.042  0.00  0.00    +0.185 C 
ATOM     15  C   UNL     1      -0.220  -1.888  25.664  0.00  0.00    +0.185 C 
BRANCH  13   6
ATOM      4  O   UNL     1       1.276  -0.629  22.016  0.00  0.00    -0.273 OA
ATOM      6  N   UNL     1       0.240  -0.128  24.039  0.00  0.00    -0.306 N 
ATOM     16  C   UNL     1       1.041   0.148  22.938  0.00  0.00    +0.239 C 
ATOM     30  H   UNL     1       0.072   0.608  24.719  0.00  0.00    +0.149 HD
BRANCH  16  18
ATOM     18  C   UNL     1       1.609   1.549  22.994  0.00  0.00    +0.255 C 
BRANCH  18   5
ATOM      5  O   UNL     1       2.948   1.525  23.443  0.00  0.00    -0.374 OA
ATOM     23  C   UNL     1       3.797   0.822  22.540  0.00  0.00    +0.194 C 
ENDBRANCH  18   5
ENDBRANCH  16  18
ENDBRANCH  13   6
ENDBRANCH   7  12
BRANCH  19  22
ATOM      1  F   UNL     1       1.089   2.457  26.653  0.00  0.00    -0.205 F 
ATOM     22  C   UNL     1      -2.175   3.139  25.192  0.00  0.00    +0.003 A 
ATOM     24  C   UNL     1      -1.137   2.472  25.846  0.00  0.00    +0.048 A 
ATOM     25  C   UNL     1      -1.974   4.436  24.715  0.00  0.00    +0.010 A 
ATOM     26  C   UNL     1       0.096   3.099  26.024  0.00  0.00    +0.124 A 
ATOM     27  C   UNL     1      -0.740   5.063  24.893  0.00  0.00    +0.003 A 
ATOM     28  C   UNL     1       0.294   4.395  25.547  0.00  0.00    +0.038 A 
ENDBRANCH  19  22
TORSDOF 5
ENDMDL
MODEL 2
REMARK VINA RESULT:      -2.6     17.702     20.321
REMARK  Name = 11913351
REMARK  6 active torsions:
REMARK  status: ('A' for Active; 'I' for Inactive)
REMARK    1  A    between atoms: O_5  and  C_18
REMARK    2  A    between atoms: O_5  and  C_23
REMARK    3  A    between atoms: N_6  and  C_13
REMARK    4  A    between atoms: N_7  and  C_12
REMARK    5  A    between atoms: C_16  and  C_18
REMARK    6  A    between atoms: C_19  and  C_22
REMARK                            x       y       z     vdW  Elec       q    Type
REMARK                         _______ _______ _______ _____ _____    ______ ____
ROOT
ATOM      7  N   UNL     1      16.947  -5.034  28.016  0.00  0.00    -0.306 N 
ATOM      8  N   UNL     1      16.338  -7.103  28.940  0.00  0.00    -0.214 NA
ATOM      9  N   UNL     1      16.025  -6.657  26.592  0.00  0.00    -0.223 NA
ATOM     17  C   UNL     1      16.421  -6.303  27.844  0.00  0.00    +0.216 A 
ATOM     19  C   UNL     1      15.821  -8.333  28.736  0.00  0.00    +0.076 A 
ATOM     20  C   UNL     1      15.518  -7.899  26.461  0.00  0.00    +0.116 A 
ATOM     21  C   UNL     1      15.390  -8.790  27.507  0.00  0.00    +0.048 A 
ATOM     29  H   UNL     1      16.955  -4.428  27.204  0.00  0.00    +0.149 HD
ENDROOT
BRANCH   7  12
ATOM      2  O   UNL     1      15.740  -2.984  30.005  0.00  0.00    -0.370 OA
ATOM      3  O   UNL     1      17.352  -5.063  31.647  0.00  0.00    -0.370 OA
ATOM     10  C   UNL     1      16.617  -5.157  30.413  0.00  0.00    +0.171 C 
ATOM     11  C   UNL     1      15.398  -4.269  30.555  0.00  0.00    +0.171 C 
ATOM     12  C   UNL     1      17.404  -4.524  29.289  0.00  0.00    +0.130 C 
ATOM     13  C   UNL     1      15.188  -4.161  32.050  0.00  0.00    +0.130 C 
ATOM     14  C   UNL     1      17.051  -3.053  29.424  0.00  0.00    +0.185 C 
ATOM     15  C   UNL     1      16.615  -4.250  32.571  0.00  0.00    +0.185 C 
BRANCH  13   6
ATOM      4  O   UNL     1      12.406  -4.790  31.476  0.00  0.00    -0.273 OA
ATOM      6  N   UNL     1      14.412  -5.297  32.542  0.00  0.00    -0.306 N 
ATOM     16  C   UNL     1      13.081  -5.510  32.209  0.00  0.00    +0.239 C 
ATOM     30  H   UNL     1      14.889  -5.986  33.116  0.00  0.00    +0.149 HD
BRANCH  16  18
ATOM     18  C   UNL     1      12.532  -6.761  32.860  0.00  0.00    +0.255 C 
BRANCH  18   5
ATOM      5  O   UNL     1      11.131  -6.833  32.695  0.00  0.00    -0.374 OA
ATOM     23  C   UNL     1      10.707  -8.144  32.330  0.00  0.00    +0.194 C 
ENDBRANCH  18   5
ENDBRANCH  16  18
ENDBRANCH  13   6
ENDBRANCH   7  12
BRANCH  19  22
ATOM      1  F   UNL     1      13.275 -10.289  32.344  0.00  0.00    -0.205 F 
ATOM     22  C   UNL     1      15.742  -9.167  29.912  0.00  0.00    +0.003 A 
ATOM     24  C   UNL     1      14.523  -9.330  30.574  0.00  0.00    +0.048 A 
ATOM     25  C   UNL     1      16.882  -9.815  30.390  0.00  0.00    +0.010 A 
ATOM     26  C   UNL     1      14.446 -10.136  31.710  0.00  0.00    +0.124 A 
ATOM     27  C   UNL     1      16.805 -10.621  31.526  0.00  0.00    +0.003 A 
ATOM     28  C   UNL     1      15.586 -10.781  32.186  0.00  0.00    +0.038 A 
ENDBRANCH  19  22
TORSDOF 5
ENDMDL
MODEL 3
REMARK VINA RESULT:      -2.1      2.918      6.685
REMARK  Name = 11913351
REMARK  6 active torsions:
REMARK  status: ('A' for Active; 'I' for Inactive)
REMARK    1  A    between atoms: O_5  and  C_18
REMARK    2  A    between atoms: O_5  and  C_23
REMARK    3  A    between atoms: N_6  and  C_13
REMARK    4  A    between atoms: N_7  and  C_12
REMARK    5  A    between atoms: C_16  and  C_18
REMARK    6  A    between atoms: C_19  and  C_22
REMARK                            x       y       z     vdW  Elec       q    Type
REMARK                         _______ _______ _______ _____ _____    ______ ____
ROOT
ATOM      7  N   UNL     1       0.685   3.162  24.514  0.00  0.00    -0.306 N 
ATOM      8  N   UNL     1      -0.366   1.069  24.652  0.00  0.00    -0.214 NA
ATOM      9  N   UNL     1       1.527   1.409  23.200  0.00  0.00    -0.223 NA
ATOM     17  C   UNL     1       0.613   1.840  24.110  0.00  0.00    +0.216 A 
ATOM     19  C   UNL     1      -0.407  -0.215  24.236  0.00  0.00    +0.076 A 
ATOM     20  C   UNL     1       1.428   0.116  22.828  0.00  0.00    +0.116 A 
ATOM     21  C   UNL     1       0.472  -0.751  23.317  0.00  0.00    +0.048 A 
ATOM     29  H   UNL     1       1.385   3.741  24.065  0.00  0.00    +0.149 HD
ENDROOT
BRANCH   7  12
ATOM      2  O   UNL     1      -1.646   5.184  24.214  0.00  0.00    -0.370 OA
ATOM      3  O   UNL     1      -2.320   3.305  26.587  0.00  0.00    -0.370 OA
ATOM     10  C   UNL     1      -1.581   3.106  25.368  0.00  0.00    +0.171 C 
ATOM     11  C   UNL     1      -2.288   3.898  24.287  0.00  0.00    +0.171 C 
ATOM     12  C   UNL     1      -0.221   3.755  25.472  0.00  0.00    +0.130 C 
ATOM     13  C   UNL     1      -3.704   4.046  24.800  0.00  0.00    +0.130 C 
ATOM     14  C   UNL     1      -0.513   5.198  25.096  0.00  0.00    +0.185 C 
ATOM     15  C   UNL     1      -3.487   4.092  26.305  0.00  0.00    +0.185 C 
BRANCH  13   6
ATOM      4  O   UNL     1      -5.827   2.816  26.364  0.00  0.00    -0.273 OA
ATOM      6  N   UNL     1      -4.500   2.872  24.453  0.00  0.00    -0.306 N 
ATOM     16  C   UNL     1      -5.498   2.359  25.272  0.00  0.00    +0.239 C 
ATOM     30  H   UNL     1      -4.346   2.444  23.544  0.00  0.00    +0.149 HD
BRANCH  16  18
ATOM     18  C   UNL     1      -6.157   1.142  24.661  0.00  0.00    +0.255 C 
BRANCH  18   5
ATOM      5  O   UNL     1      -5.234   0.079  24.550  0.00  0.00    -0.374 OA
ATOM     23  C   UNL     1      -4.178   0.386  23.644  0.00  0.00    +0.194 C 
ENDBRANCH  18   5
ENDBRANCH  16  18
ENDBRANCH  13   6
ENDBRANCH   7  12
BRANCH  19  22
ATOM      1  F   UNL     1      -3.529  -3.891  23.995  0.00  0.00    -0.205 F 
ATOM     22  C   UNL     1      -1.453  -1.016  24.823  0.00  0.00    +0.003 A 
ATOM     24  C   UNL     1      -1.996  -2.089  24.112  0.00  0.00    +0.048 A 
ATOM     25  C   UNL     1      -1.926  -0.724  26.104  0.00  0.00    +0.010 A 
ATOM     26  C   UNL     1      -3.008  -2.864  24.680  0.00  0.00    +0.124 A 
ATOM     27  C   UNL     1      -2.938  -1.499  26.671  0.00  0.00    +0.003 A 
ATOM     28  C   UNL     1      -3.479  -2.569  25.959  0.00  0.00    +0.038 A 
ENDBRANCH  19  22
TORSDOF 5
ENDMDL
MODEL 4
REMARK VINA RESULT:      -1.9      2.316      4.951
REMARK  Name = 11913351
REMARK  6 active torsions:
REMARK  status: ('A' for Active; 'I' for Inactive)
REMARK    1  A    between atoms: O_5  and  C_18
REMARK    2  A    between atoms: O_5  and  C_23
REMARK    3  A    between atoms: N_6  and  C_13
REMARK    4  A    between atoms: N_7  and  C_12
REMARK    5  A    between atoms: C_16  and  C_18
REMARK    6  A    between atoms: C_19  and  C_22
REMARK                            x       y       z     vdW  Elec       q    Type
REMARK                         _______ _______ _______ _____ _____    ______ ____
ROOT
ATOM      7  N   UNL     1      -3.504   4.536  25.023  0.00  0.00    -0.306 N 
ATOM      8  N   UNL     1      -3.952   2.234  24.959  0.00  0.00    -0.214 NA
ATOM      9  N   UNL     1      -5.490   3.765  26.008  0.00  0.00    -0.223 NA
ATOM     17  C   UNL     1      -4.340   3.479  25.340  0.00  0.00    +0.216 A 
ATOM     19  C   UNL     1      -4.791   1.228  25.283  0.00  0.00    +0.076 A 
ATOM     20  C   UNL     1      -6.281   2.712  26.300  0.00  0.00    +0.116 A 
ATOM     21  C   UNL     1      -5.980   1.409  25.960  0.00  0.00    +0.048 A 
ATOM     29  H   UNL     1      -3.777   5.453  25.357  0.00  0.00    +0.149 HD
ENDROOT
BRANCH   7  12
ATOM      2  O   UNL     1      -0.615   3.963  25.992  0.00  0.00    -0.370 OA
ATOM      3  O   UNL     1      -0.943   2.692  23.182  0.00  0.00    -0.370 OA
ATOM     10  C   UNL     1      -1.869   2.920  24.260  0.00  0.00    +0.171 C 
ATOM     11  C   UNL     1      -1.110   2.685  25.551  0.00  0.00    +0.171 C 
ATOM     12  C   UNL     1      -2.251   4.380  24.318  0.00  0.00    +0.130 C 
ATOM     13  C   UNL     1       0.038   1.786  25.150  0.00  0.00    +0.130 C 
ATOM     14  C   UNL     1      -1.116   4.989  25.122  0.00  0.00    +0.185 C 
ATOM     15  C   UNL     1       0.308   2.242  23.724  0.00  0.00    +0.185 C 
BRANCH  13   6
ATOM      4  O   UNL     1       0.491  -0.201  23.073  0.00  0.00    -0.273 OA
ATOM      6  N   UNL     1      -0.382   0.387  25.149  0.00  0.00    -0.306 N 
ATOM     16  C   UNL     1      -0.116  -0.487  24.103  0.00  0.00    +0.239 C 
ATOM     30  H   UNL     1      -0.848   0.030  25.978  0.00  0.00    +0.149 HD
BRANCH  16  18
ATOM     18  C   UNL     1      -0.667  -1.870  24.372  0.00  0.00    +0.255 C 
BRANCH  18   5
ATOM      5  O   UNL     1      -0.323  -2.298  25.673  0.00  0.00    -0.374 OA
ATOM     23  C   UNL     1       0.908  -3.017  25.687  0.00  0.00    +0.194 C 
ENDBRANCH  18   5
ENDBRANCH  16  18
ENDBRANCH  13   6
ENDBRANCH   7  12
BRANCH  19  22
ATOM      1  F   UNL     1      -3.202  -3.207  26.347  0.00  0.00    -0.205 F 
ATOM     22  C   UNL     1      -4.360  -0.087  24.871  0.00  0.00    +0.003 A 
ATOM     24  C   UNL     1      -3.982  -1.032  25.827  0.00  0.00    +0.048 A 
ATOM     25  C   UNL     1      -4.322  -0.418  23.515  0.00  0.00    +0.010 A 
ATOM     26  C   UNL     1      -3.566  -2.302  25.428  0.00  0.00    +0.124 A 
ATOM     27  C   UNL     1      -3.906  -1.689  23.117  0.00  0.00    +0.003 A 
ATOM     28  C   UNL     1      -3.528  -2.631  24.074  0.00  0.00    +0.038 A 
ENDBRANCH  19  22
TORSDOF 5
ENDMDL
MODEL 5
REMARK VINA RESULT:      -0.7      2.602      4.854
REMARK  Name = 11913351
REMARK  6 active torsions:
REMARK  status: ('A' for Active; 'I' for Inactive)
REMARK    1  A    between atoms: O_5  and  C_18
REMARK    2  A    between atoms: O_5  and  C_23
REMARK    3  A    between atoms: N_6  and  C_13
REMARK    4  A    between atoms: N_7  and  C_12
REMARK    5  A    between atoms: C_16  and  C_18
REMARK    6  A    between atoms: C_19  and  C_22
REMARK                            x       y       z     vdW  Elec       q    Type
REMARK                         _______ _______ _______ _____ _____    ______ ____
ROOT
ATOM      7  N   UNL     1      -5.199  -0.239  24.431  0.00  0.00    -0.306 N 
ATOM      8  N   UNL     1      -2.867  -0.284  24.174  0.00  0.00    -0.214 NA
ATOM      9  N   UNL     1      -4.073  -2.252  24.867  0.00  0.00    -0.223 NA
ATOM     17  C   UNL     1      -4.010  -0.946  24.492  0.00  0.00    +0.216 A 
ATOM     19  C   UNL     1      -1.727  -1.003  24.244  0.00  0.00    +0.076 A 
ATOM     20  C   UNL     1      -2.897  -2.910  24.916  0.00  0.00    +0.116 A 
ATOM     21  C   UNL     1      -1.681  -2.333  24.613  0.00  0.00    +0.048 A 
ATOM     29  H   UNL     1      -6.038  -0.727  24.721  0.00  0.00    +0.149 HD
ENDROOT
BRANCH   7  12
ATOM      2  O   UNL     1      -5.595   2.359  26.077  0.00  0.00    -0.370 OA
ATOM      3  O   UNL     1      -3.857   3.058  23.606  0.00  0.00    -0.370 OA
ATOM     10  C   UNL     1      -3.991   1.861  24.394  0.00  0.00    +0.171 C 
ATOM     11  C   UNL     1      -4.179   2.297  25.833  0.00  0.00    +0.171 C 
ATOM     12  C   UNL     1      -5.281   1.154  24.051  0.00  0.00    +0.130 C 
ATOM     13  C   UNL     1      -3.575   3.683  25.883  0.00  0.00    +0.130 C 
ATOM     14  C   UNL     1      -6.296   1.877  24.920  0.00  0.00    +0.185 C 
ATOM     15  C   UNL     1      -3.857   4.197  24.480  0.00  0.00    +0.185 C 
BRANCH  13   6
ATOM      4  O   UNL     1      -1.505   5.298  24.630  0.00  0.00    -0.273 OA
ATOM      6  N   UNL     1      -2.133   3.607  26.101  0.00  0.00    -0.306 N 
ATOM     16  C   UNL     1      -1.221   4.427  25.449  0.00  0.00    +0.239 C 
ATOM     30  H   UNL     1      -1.790   2.954  26.800  0.00  0.00    +0.149 HD
BRANCH  16  18
ATOM     18  C   UNL     1       0.203   4.129  25.868  0.00  0.00    +0.255 C 
BRANCH  18   5
ATOM      5  O   UNL     1       0.328   2.784  26.279  0.00  0.00    -0.374 OA
ATOM     23  C   UNL     1       0.840   2.681  27.605  0.00  0.00    +0.194 C 
ENDBRANCH  18   5
ENDBRANCH  16  18
ENDBRANCH  13   6
ENDBRANCH   7  12
BRANCH  19  22
ATOM      1  F   UNL     1       2.921  -0.951  22.934  0.00  0.00    -0.205 F 
ATOM     22  C   UNL     1      -0.525  -0.282  23.903  0.00  0.00    +0.003 A 
ATOM     24  C   UNL     1       0.641  -0.978  23.576  0.00  0.00    +0.048 A 
ATOM     25  C   UNL     1      -0.523   1.115  23.897  0.00  0.00    +0.010 A 
ATOM     26  C   UNL     1       1.803  -0.280  23.246  0.00  0.00    +0.124 A 
ATOM     27  C   UNL     1       0.640   1.812  23.567  0.00  0.00    +0.003 A 
ATOM     28  C   UNL     1       1.802   1.114  23.241  0.00  0.00    +0.038 A 
ENDBRANCH  19  22
TORSDOF 5
ENDMDL
MODEL 6
REMARK VINA RESULT:      -0.0      2.595      4.846
REMARK  Name = 11913351
REMARK  6 active torsions:
REMARK  status: ('A' for Active; 'I' for Inactive)
REMARK    1  A    between atoms: O_5  and  C_18
REMARK    2  A    between atoms: O_5  and  C_23
REMARK    3  A    between atoms: N_6  and  C_13
REMARK    4  A    between atoms: N_7  and  C_12
REMARK    5  A    between atoms: C_16  and  C_18
REMARK    6  A    between atoms: C_19  and  C_22
REMARK                            x       y       z     vdW  Elec       q    Type
REMARK                         _______ _______ _______ _____ _____    ______ ____
ROOT
ATOM      7  N   UNL     1      -0.952  -2.047  24.517  0.00  0.00    -0.306 N 
ATOM      8  N   UNL     1      -2.879  -0.726  24.742  0.00  0.00    -0.214 NA
ATOM      9  N   UNL     1      -3.002  -2.944  23.807  0.00  0.00    -0.223 NA
ATOM     17  C   UNL     1      -2.319  -1.901  24.350  0.00  0.00    +0.216 A 
ATOM     19  C   UNL     1      -4.213  -0.618  24.565  0.00  0.00    +0.076 A 
ATOM     20  C   UNL     1      -4.331  -2.768  23.659  0.00  0.00    +0.116 A 
ATOM     21  C   UNL     1      -4.998  -1.615  24.023  0.00  0.00    +0.048 A 
ATOM     29  H   UNL     1      -0.538  -2.905  24.174  0.00  0.00    +0.149 HD
ENDROOT
BRANCH   7  12
ATOM      2  O   UNL     1       0.627   0.295  23.237  0.00  0.00    -0.370 OA
ATOM      3  O   UNL     1      -0.236   1.176  26.082  0.00  0.00    -0.370 OA
ATOM     10  C   UNL     1      -0.836   0.299  25.112  0.00  0.00    +0.171 C 
ATOM     11  C   UNL     1      -0.574   0.902  23.747  0.00  0.00    +0.171 C 
ATOM     12  C   UNL     1      -0.102  -1.021  25.079  0.00  0.00    +0.130 C 
ATOM     13  C   UNL     1      -0.341   2.371  24.028  0.00  0.00    +0.130 C 
ATOM     14  C   UNL     1       1.059  -0.731  24.144  0.00  0.00    +0.185 C 
ATOM     15  C   UNL     1       0.297   2.326  25.408  0.00  0.00    +0.185 C 
BRANCH  13   6
ATOM      4  O   UNL     1      -0.783   5.122  24.864  0.00  0.00    -0.273 OA
ATOM      6  N   UNL     1      -1.612   3.088  24.094  0.00  0.00    -0.306 N 
ATOM     16  C   UNL     1      -1.719   4.409  24.510  0.00  0.00    +0.239 C 
ATOM     30  H   UNL     1      -2.447   2.607  23.773  0.00  0.00    +0.149 HD
BRANCH  16  18
ATOM     18  C   UNL     1      -3.152   4.894  24.478  0.00  0.00    +0.255 C 
BRANCH  18   5
ATOM      5  O   UNL     1      -3.675   4.815  23.169  0.00  0.00    -0.374 OA
ATOM     23  C   UNL     1      -3.962   3.470  22.793  0.00  0.00    +0.194 C 
ENDBRANCH  18   5
ENDBRANCH  16  18
ENDBRANCH  13   6
ENDBRANCH   7  12
BRANCH  19  22
ATOM      1  F   UNL     1      -3.852   3.616  26.860  0.00  0.00    -0.205 F 
ATOM     22  C   UNL     1      -4.787   0.637  24.987  0.00  0.00    +0.003 A 
ATOM     24  C   UNL     1      -4.028   1.540  25.734  0.00  0.00    +0.048 A 
ATOM     25  C   UNL     1      -6.104   0.954  24.648  0.00  0.00    +0.010 A 
ATOM     26  C   UNL     1      -4.583   2.753  26.142  0.00  0.00    +0.124 A 
ATOM     27  C   UNL     1      -6.659   2.168  25.055  0.00  0.00    +0.003 A 
ATOM     28  C   UNL     1      -5.898   3.067  25.802  0.00  0.00    +0.038 A 
ENDBRANCH  19  22
TORSDOF 5
ENDMDL
MODEL 7
REMARK VINA RESULT:       0.4      2.256      4.497
REMARK  Name = 11913351
REMARK  6 active torsions:
REMARK  status: ('A' for Active; 'I' for Inactive)
REMARK    1  A    between atoms: O_5  and  C_18
REMARK    2  A    between atoms: O_5  and  C_23
REMARK    3  A    between atoms: N_6  and  C_13
REMARK    4  A    between atoms: N_7  and  C_12
REMARK    5  A    between atoms: C_16  and  C_18
REMARK    6  A    between atoms: C_19  and  C_22
REMARK                            x       y       z     vdW  Elec       q    Type
REMARK                         _______ _______ _______ _____ _____    ______ ____
ROOT
ATOM      7  N   UNL     1      -4.348   4.030  24.746  0.00  0.00    -0.306 N 
ATOM      8  N   UNL     1      -3.685   1.786  24.923  0.00  0.00    -0.214 NA
ATOM      9  N   UNL     1      -6.018   2.380  24.811  0.00  0.00    -0.223 NA
ATOM     17  C   UNL     1      -4.694   2.691  24.829  0.00  0.00    +0.216 A 
ATOM     19  C   UNL     1      -4.057   0.491  25.002  0.00  0.00    +0.076 A 
ATOM     20  C   UNL     1      -6.318   1.068  24.894  0.00  0.00    +0.116 A 
ATOM     21  C   UNL     1      -5.371   0.069  24.993  0.00  0.00    +0.048 A 
ATOM     29  H   UNL     1      -5.109   4.698  24.729  0.00  0.00    +0.149 HD
ENDROOT
BRANCH   7  12
ATOM      2  O   UNL     1      -1.916   3.363  26.549  0.00  0.00    -0.370 OA
ATOM      3  O   UNL     1      -0.841   4.059  23.725  0.00  0.00    -0.370 OA
ATOM     10  C   UNL     1      -2.065   3.454  24.177  0.00  0.00    +0.171 C 
ATOM     11  C   UNL     1      -1.714   2.576  25.361  0.00  0.00    +0.171 C 
ATOM     12  C   UNL     1      -2.983   4.504  24.757  0.00  0.00    +0.130 C 
ATOM     13  C   UNL     1      -0.243   2.272  25.175  0.00  0.00    +0.130 C 
ATOM     14  C   UNL     1      -2.481   4.631  26.185  0.00  0.00    +0.185 C 
ATOM     15  C   UNL     1       0.253   3.538  24.495  0.00  0.00    +0.185 C 
BRANCH  13   6
ATOM      4  O   UNL     1       2.140   1.554  23.668  0.00  0.00    -0.273 OA
ATOM      6  N   UNL     1      -0.065   1.129  24.283  0.00  0.00    -0.306 N 
ATOM     16  C   UNL     1       1.120   0.872  23.604  0.00  0.00    +0.239 C 
ATOM     30  H   UNL     1      -0.831   0.468  24.197  0.00  0.00    +0.149 HD
BRANCH  16  18
ATOM     18  C   UNL     1       1.020  -0.376  22.753  0.00  0.00    +0.255 C 
BRANCH  18   5
ATOM      5  O   UNL     1       1.770  -0.228  21.566  0.00  0.00    -0.374 OA
ATOM     23  C   UNL     1       3.148   0.015  21.835  0.00  0.00    +0.194 C 
ENDBRANCH  18   5
ENDBRANCH  16  18
ENDBRANCH  13   6
ENDBRANCH   7  12
BRANCH  19  22
ATOM      1  F   UNL     1      -1.663  -3.359  23.339  0.00  0.00    -0.205 F 
ATOM     22  C   UNL     1      -2.971  -0.454  25.102  0.00  0.00    +0.003 A 
ATOM     24  C   UNL     1      -2.837  -1.470  24.154  0.00  0.00    +0.048 A 
ATOM     25  C   UNL     1      -2.049  -0.355  26.146  0.00  0.00    +0.010 A 
ATOM     26  C   UNL     1      -1.788  -2.384  24.250  0.00  0.00    +0.124 A 
ATOM     27  C   UNL     1      -1.000  -1.269  26.243  0.00  0.00    +0.003 A 
ATOM     28  C   UNL     1      -0.869  -2.283  25.294  0.00  0.00    +0.038 A 
ENDBRANCH  19  22
TORSDOF 5
ENDMDL
MODEL 8
REMARK VINA RESULT:       0.8      2.847      5.657
REMARK  Name = 11913351
REMARK  6 active torsions:
REMARK  status: ('A' for Active; 'I' for Inactive)
REMARK    1  A    between atoms: O_5  and  C_18
REMARK    2  A    between atoms: O_5  and  C_23
REMARK    3  A    between atoms: N_6  and  C_13
REMARK    4  A    between atoms: N_7  and  C_12
REMARK    5  A    between atoms: C_16  and  C_18
REMARK    6  A    between atoms: C_19  and  C_22
REMARK                            x       y       z     vdW  Elec       q    Type
REMARK                         _______ _______ _______ _____ _____    ______ ____
ROOT
ATOM      7  N   UNL     1      -3.886   3.959  24.450  0.00  0.00    -0.306 N 
ATOM      8  N   UNL     1      -3.941   1.620  24.639  0.00  0.00    -0.214 NA
ATOM      9  N   UNL     1      -5.806   2.965  25.364  0.00  0.00    -0.223 NA
ATOM     17  C   UNL     1      -4.564   2.813  24.829  0.00  0.00    +0.216 A 
ATOM     19  C   UNL     1      -4.631   0.525  25.019  0.00  0.00    +0.076 A 
ATOM     20  C   UNL     1      -6.438   1.828  25.721  0.00  0.00    +0.116 A 
ATOM     21  C   UNL     1      -5.895   0.568  25.572  0.00  0.00    +0.048 A 
ATOM     29  H   UNL     1      -4.338   4.844  24.644  0.00  0.00    +0.149 HD
ENDROOT
BRANCH   7  12
ATOM      2  O   UNL     1      -1.267   5.447  25.187  0.00  0.00    -0.370 OA
ATOM      3  O   UNL     1      -0.488   2.705  23.968  0.00  0.00    -0.370 OA
ATOM     10  C   UNL     1      -1.624   3.139  24.737  0.00  0.00    +0.171 C 
ATOM     11  C   UNL     1      -1.112   4.136  25.758  0.00  0.00    +0.171 C 
ATOM     12  C   UNL     1      -2.561   3.948  23.871  0.00  0.00    +0.130 C 
ATOM     13  C   UNL     1       0.355   3.797  25.905  0.00  0.00    +0.130 C 
ATOM     14  C   UNL     1      -1.950   5.337  23.929  0.00  0.00    +0.185 C 
ATOM     15  C   UNL     1       0.701   3.298  24.511  0.00  0.00    +0.185 C 
BRANCH  13   6
ATOM      4  O   UNL     1       2.304   3.661  28.061  0.00  0.00    -0.273 OA
ATOM      6  N   UNL     1       0.537   2.719  26.874  0.00  0.00    -0.306 N 
ATOM     16  C   UNL     1       1.503   2.749  27.872  0.00  0.00    +0.239 C 
ATOM     30  H   UNL     1      -0.108   1.935  26.842  0.00  0.00    +0.149 HD
BRANCH  16  18
ATOM     18  C   UNL     1       1.464   1.502  28.730  0.00  0.00    +0.255 C 
BRANCH  18   5
ATOM      5  O   UNL     1       1.854   1.797  30.054  0.00  0.00    -0.374 OA
ATOM     23  C   UNL     1       0.896   2.616  30.719  0.00  0.00    +0.194 C 
ENDBRANCH  18   5
ENDBRANCH  16  18
ENDBRANCH  13   6
ENDBRANCH   7  12
BRANCH  19  22
ATOM      1  F   UNL     1      -0.727  -2.278  25.492  0.00  0.00    -0.205 F 
ATOM     22  C   UNL     1      -3.952  -0.731  24.809  0.00  0.00    +0.003 A 
ATOM     24  C   UNL     1      -2.642  -0.903  25.261  0.00  0.00    +0.048 A 
ATOM     25  C   UNL     1      -4.603  -1.779  24.155  0.00  0.00    +0.010 A 
ATOM     26  C   UNL     1      -1.985  -2.117  25.058  0.00  0.00    +0.124 A 
ATOM     27  C   UNL     1      -3.945  -2.993  23.953  0.00  0.00    +0.003 A 
ATOM     28  C   UNL     1      -2.637  -3.162  24.405  0.00  0.00    +0.038 A 
ENDBRANCH  19  22
TORSDOF 5
ENDMDL
