MODEL 1
REMARK VINA RESULT:      -3.9      0.000      0.000
REMARK  Name = 25389057
REMARK  6 active torsions:
REMARK  status: ('A' for Active; 'I' for Inactive)
REMARK    1  A    between atoms: N_4  and  C_23
REMARK    2  A    between atoms: N_5  and  C_15
REMARK    3  A    between atoms: C_8  and  C_14
REMARK    4  A    between atoms: C_9  and  C_15
REMARK    5  A    between atoms: C_17  and  C_18
REMARK    6  A    between atoms: C_24  and  C_25
REMARK                            x       y       z     vdW  Elec       q    Type
REMARK                         _______ _______ _______ _____ _____    ______ ____
ROOT
ATOM      3  N   UNL     1      12.066  -6.137  31.852  0.00  0.00    -0.297 NA
ATOM      7  C   UNL     1      14.610  -5.585  31.911  0.00  0.00    +0.002 C 
ATOM      8  C   UNL     1      14.145  -5.846  30.452  0.00  0.00    +0.055 C 
ATOM      9  C   UNL     1      12.745  -6.977  32.873  0.00  0.00    +0.074 C 
ATOM     10  C   UNL     1      14.277  -6.815  32.782  0.00  0.00    +0.024 C 
ATOM     11  C   UNL     1      12.679  -6.363  30.519  0.00  0.00    +0.094 C 
ATOM     12  C   UNL     1      13.763  -4.409  32.444  0.00  0.00    +0.019 C 
ATOM     13  C   UNL     1      12.272  -4.717  32.222  0.00  0.00    +0.085 C 
ENDROOT
BRANCH   8  14
ATOM      4  N   UNL     1      16.232  -6.304  29.081  0.00  0.00    -0.271 N 
ATOM      6  N   UNL     1      16.851  -7.218  28.315  0.00  0.00    -0.176 NA
ATOM     14  C   UNL     1      15.024  -6.715  29.562  0.00  0.00    +0.044 A 
ATOM     16  C   UNL     1      14.838  -7.986  29.076  0.00  0.00    +0.048 A 
ATOM     18  C   UNL     1      15.994  -8.243  28.315  0.00  0.00    +0.066 A 
ATOM     23  C   UNL     1      16.871  -5.030  29.314  0.00  0.00    +0.172 C 
BRANCH  18  17
ATOM     17  C   UNL     1      16.330  -9.502  27.548  0.00  0.00    +0.040 C 
ATOM     19  C   UNL     1      15.079 -10.205  26.992  0.00  0.00    +0.010 C 
ATOM     20  C   UNL     1      17.259  -9.284  26.336  0.00  0.00    +0.010 C 
ATOM     21  C   UNL     1      15.520 -10.781  25.655  0.00  0.00    +0.001 C 
ATOM     22  C   UNL     1      16.455  -9.715  25.114  0.00  0.00    +0.001 C 
ENDBRANCH  18  17
ENDBRANCH   8  14
BRANCH   9  15
ATOM     15  C   UNL     1      12.321  -8.446  32.797  0.00  0.00    +0.123 C 
BRANCH  15   5
ATOM      1  O   UNL     1      11.016 -10.611  31.437  0.00  0.00    -0.267 OA
ATOM      5  N   UNL     1      10.924  -8.560  32.517  0.00  0.00    -0.307 N 
ATOM     24  C   UNL     1      10.371  -9.651  31.849  0.00  0.00    +0.279 C 
ATOM     29  H   UNL     1      10.312  -7.805  32.814  0.00  0.00    +0.149 HD
BRANCH  24  25
ATOM      2  O   UNL     1       8.307 -10.724  31.121  0.00  0.00    -0.458 OA
ATOM     25  C   UNL     1       8.904  -9.607  31.612  0.00  0.00    +0.189 A 
ATOM     26  C   UNL     1       7.979  -8.607  31.802  0.00  0.00    +0.054 A 
ATOM     27  C   UNL     1       6.733  -9.145  31.402  0.00  0.00    +0.042 A 
ATOM     28  C   UNL     1       6.985 -10.434  30.996  0.00  0.00    +0.196 A 
ENDBRANCH  24  25
ENDBRANCH  15   5
ENDBRANCH   9  15
TORSDOF 5
ENDMDL
MODEL 2
REMARK VINA RESULT:      -1.7     15.682     19.419
REMARK  Name = 25389057
REMARK  6 active torsions:
REMARK  status: ('A' for Active; 'I' for Inactive)
REMARK    1  A    between atoms: N_4  and  C_23
REMARK    2  A    between atoms: N_5  and  C_15
REMARK    3  A    between atoms: C_8  and  C_14
REMARK    4  A    between atoms: C_9  and  C_15
REMARK    5  A    between atoms: C_17  and  C_18
REMARK    6  A    between atoms: C_24  and  C_25
REMARK                            x       y       z     vdW  Elec       q    Type
REMARK                         _______ _______ _______ _____ _____    ______ ____
ROOT
ATOM      3  N   UNL     1      -2.640  -1.989  23.647  0.00  0.00    -0.297 NA
ATOM      7  C   UNL     1      -2.691  -1.016  26.062  0.00  0.00    +0.002 C 
ATOM      8  C   UNL     1      -3.744  -0.306  25.168  0.00  0.00    +0.055 C 
ATOM      9  C   UNL     1      -1.264  -1.635  24.082  0.00  0.00    +0.074 C 
ATOM     10  C   UNL     1      -1.295  -0.869  25.421  0.00  0.00    +0.024 C 
ATOM     11  C   UNL     1      -3.517  -0.793  23.708  0.00  0.00    +0.094 C 
ATOM     12  C   UNL     1      -3.040  -2.520  26.051  0.00  0.00    +0.019 C 
ATOM     13  C   UNL     1      -3.170  -2.999  24.595  0.00  0.00    +0.085 C 
ENDROOT
BRANCH   8  14
ATOM      4  N   UNL     1      -5.054   1.858  25.386  0.00  0.00    -0.271 N 
ATOM      6  N   UNL     1      -4.941   3.195  25.452  0.00  0.00    -0.176 NA
ATOM     14  C   UNL     1      -3.861   1.209  25.260  0.00  0.00    +0.044 A 
ATOM     16  C   UNL     1      -2.900   2.191  25.241  0.00  0.00    +0.048 A 
ATOM     18  C   UNL     1      -3.624   3.393  25.362  0.00  0.00    +0.066 A 
ATOM     23  C   UNL     1      -6.366   1.257  25.451  0.00  0.00    +0.172 C 
BRANCH  18  17
ATOM     17  C   UNL     1      -3.071   4.800  25.399  0.00  0.00    +0.040 C 
ATOM     19  C   UNL     1      -1.570   4.835  25.739  0.00  0.00    +0.010 C 
ATOM     20  C   UNL     1      -3.218   5.580  24.076  0.00  0.00    +0.010 C 
ATOM     21  C   UNL     1      -1.015   5.989  24.917  0.00  0.00    +0.001 C 
ATOM     22  C   UNL     1      -1.797   5.893  23.620  0.00  0.00    +0.001 C 
ENDBRANCH  18  17
ENDBRANCH   8  14
BRANCH   9  15
ATOM     15  C   UNL     1      -0.491  -0.869  23.005  0.00  0.00    +0.123 C 
BRANCH  15   5
ATOM      1  O   UNL     1       1.715  -0.277  21.266  0.00  0.00    -0.267 OA
ATOM      5  N   UNL     1       0.873  -0.685  23.390  0.00  0.00    -0.307 N 
ATOM     24  C   UNL     1       1.886  -0.399  22.476  0.00  0.00    +0.279 C 
ATOM     29  H   UNL     1       1.112  -0.777  24.373  0.00  0.00    +0.149 HD
BRANCH  24  25
ATOM      2  O   UNL     1       3.793  -1.335  23.673  0.00  0.00    -0.458 OA
ATOM     25  C   UNL     1       3.258  -0.263  23.032  0.00  0.00    +0.189 A 
ATOM     26  C   UNL     1       4.144   0.788  23.026  0.00  0.00    +0.054 A 
ATOM     27  C   UNL     1       5.299   0.333  23.707  0.00  0.00    +0.042 A 
ATOM     28  C   UNL     1       5.035  -0.964  24.081  0.00  0.00    +0.196 A 
ENDBRANCH  24  25
ENDBRANCH  15   5
ENDBRANCH   9  15
TORSDOF 5
ENDMDL
MODEL 3
REMARK VINA RESULT:      -0.6     16.153     19.600
REMARK  Name = 25389057
REMARK  6 active torsions:
REMARK  status: ('A' for Active; 'I' for Inactive)
REMARK    1  A    between atoms: N_4  and  C_23
REMARK    2  A    between atoms: N_5  and  C_15
REMARK    3  A    between atoms: C_8  and  C_14
REMARK    4  A    between atoms: C_9  and  C_15
REMARK    5  A    between atoms: C_17  and  C_18
REMARK    6  A    between atoms: C_24  and  C_25
REMARK                            x       y       z     vdW  Elec       q    Type
REMARK                         _______ _______ _______ _____ _____    ______ ____
ROOT
ATOM      3  N   UNL     1      -1.930   4.711  25.938  0.00  0.00    -0.297 NA
ATOM      7  C   UNL     1      -3.097   3.867  23.768  0.00  0.00    +0.002 C 
ATOM      8  C   UNL     1      -3.793   3.275  25.025  0.00  0.00    +0.055 C 
ATOM      9  C   UNL     1      -0.916   4.184  24.987  0.00  0.00    +0.074 C 
ATOM     10  C   UNL     1      -1.600   3.492  23.789  0.00  0.00    +0.024 C 
ATOM     11  C   UNL     1      -2.925   3.656  26.258  0.00  0.00    +0.094 C 
ATOM     12  C   UNL     1      -3.183   5.403  23.896  0.00  0.00    +0.019 C 
ATOM     13  C   UNL     1      -2.640   5.829  25.271  0.00  0.00    +0.085 C 
ENDROOT
BRANCH   8  14
ATOM      4  N   UNL     1      -5.450   1.352  24.956  0.00  0.00    -0.271 N 
ATOM      6  N   UNL     1      -5.562   0.013  24.956  0.00  0.00    -0.176 NA
ATOM     14  C   UNL     1      -4.161   1.797  25.014  0.00  0.00    +0.044 A 
ATOM     16  C   UNL     1      -3.376   0.671  25.054  0.00  0.00    +0.048 A 
ATOM     18  C   UNL     1      -4.292  -0.397  25.015  0.00  0.00    +0.066 A 
ATOM     23  C   UNL     1      -6.645   2.160  24.901  0.00  0.00    +0.172 C 
BRANCH  18  17
ATOM     17  C   UNL     1      -3.981  -1.877  25.033  0.00  0.00    +0.040 C 
ATOM     19  C   UNL     1      -4.075  -2.517  23.637  0.00  0.00    +0.010 C 
ATOM     20  C   UNL     1      -2.574  -2.229  25.559  0.00  0.00    +0.010 C 
ATOM     21  C   UNL     1      -2.978  -3.570  23.619  0.00  0.00    +0.001 C 
ATOM     22  C   UNL     1      -1.856  -2.909  24.399  0.00  0.00    +0.001 C 
ENDBRANCH  18  17
ENDBRANCH   8  14
BRANCH   9  15
ATOM     15  C   UNL     1       0.101   3.267  25.670  0.00  0.00    +0.123 C 
BRANCH  15   5
ATOM      1  O   UNL     1      -0.181   0.575  24.712  0.00  0.00    -0.267 OA
ATOM      5  N   UNL     1       0.928   2.614  24.704  0.00  0.00    -0.307 N 
ATOM     24  C   UNL     1       0.720   1.298  24.293  0.00  0.00    +0.279 C 
ATOM     29  H   UNL     1       1.707   3.133  24.308  0.00  0.00    +0.149 HD
BRANCH  24  25
ATOM      2  O   UNL     1       2.952   1.243  23.314  0.00  0.00    -0.458 OA
ATOM     25  C   UNL     1       1.684   0.755  23.300  0.00  0.00    +0.189 A 
ATOM     26  C   UNL     1       1.542  -0.195  22.317  0.00  0.00    +0.054 A 
ATOM     27  C   UNL     1       2.805  -0.299  21.686  0.00  0.00    +0.042 A 
ATOM     28  C   UNL     1       3.627   0.596  22.328  0.00  0.00    +0.196 A 
ENDBRANCH  24  25
ENDBRANCH  15   5
ENDBRANCH   9  15
TORSDOF 5
ENDMDL
MODEL 4
REMARK VINA RESULT:      -0.5     16.144     19.008
REMARK  Name = 25389057
REMARK  6 active torsions:
REMARK  status: ('A' for Active; 'I' for Inactive)
REMARK    1  A    between atoms: N_4  and  C_23
REMARK    2  A    between atoms: N_5  and  C_15
REMARK    3  A    between atoms: C_8  and  C_14
REMARK    4  A    between atoms: C_9  and  C_15
REMARK    5  A    between atoms: C_17  and  C_18
REMARK    6  A    between atoms: C_24  and  C_25
REMARK                            x       y       z     vdW  Elec       q    Type
REMARK                         _______ _______ _______ _____ _____    ______ ____
ROOT
ATOM      3  N   UNL     1      -5.613   2.929  24.428  0.00  0.00    -0.297 NA
ATOM      7  C   UNL     1      -3.731   3.838  25.983  0.00  0.00    +0.002 C 
ATOM      8  C   UNL     1      -3.195   3.644  24.538  0.00  0.00    +0.055 C 
ATOM      9  C   UNL     1      -5.535   2.109  25.666  0.00  0.00    +0.074 C 
ATOM     10  C   UNL     1      -4.298   2.500  26.502  0.00  0.00    +0.024 C 
ATOM     11  C   UNL     1      -4.305   2.916  23.726  0.00  0.00    +0.094 C 
ATOM     12  C   UNL     1      -4.915   4.826  25.889  0.00  0.00    +0.019 C 
ATOM     13  C   UNL     1      -5.909   4.326  24.827  0.00  0.00    +0.085 C 
ENDROOT
BRANCH   8  14
ATOM      4  N   UNL     1      -0.657   3.675  24.517  0.00  0.00    -0.271 N 
ATOM      6  N   UNL     1       0.438   2.923  24.315  0.00  0.00    -0.176 NA
ATOM     14  C   UNL     1      -1.829   2.996  24.358  0.00  0.00    +0.044 A 
ATOM     16  C   UNL     1      -1.477   1.710  24.029  0.00  0.00    +0.048 A 
ATOM     18  C   UNL     1      -0.069   1.723  24.017  0.00  0.00    +0.066 A 
ATOM     23  C   UNL     1      -0.501   5.068  24.865  0.00  0.00    +0.172 C 
BRANCH  18  17
ATOM     17  C   UNL     1       0.860   0.568  23.716  0.00  0.00    +0.040 C 
ATOM     19  C   UNL     1       0.470  -0.182  22.431  0.00  0.00    +0.010 C 
ATOM     20  C   UNL     1       2.338   0.968  23.534  0.00  0.00    +0.010 C 
ATOM     21  C   UNL     1       1.794  -0.601  21.811  0.00  0.00    +0.001 C 
ATOM     22  C   UNL     1       2.699   0.582  22.104  0.00  0.00    +0.001 C 
ENDBRANCH  18  17
ENDBRANCH   8  14
BRANCH   9  15
ATOM     15  C   UNL     1      -5.574   0.607  25.373  0.00  0.00    +0.123 C 
BRANCH  15   5
ATOM      1  O   UNL     1      -4.540  -1.590  23.842  0.00  0.00    -0.267 OA
ATOM      5  N   UNL     1      -4.270   0.032  25.479  0.00  0.00    -0.307 N 
ATOM     24  C   UNL     1      -3.847  -1.039  24.693  0.00  0.00    +0.279 C 
ATOM     29  H   UNL     1      -3.629   0.419  26.166  0.00  0.00    +0.149 HD
BRANCH  24  25
ATOM      2  O   UNL     1      -2.055  -2.630  24.247  0.00  0.00    -0.458 OA
ATOM     25  C   UNL     1      -2.470  -1.539  24.943  0.00  0.00    +0.189 A 
ATOM     26  C   UNL     1      -1.477  -1.095  25.783  0.00  0.00    +0.054 A 
ATOM     27  C   UNL     1      -0.380  -1.968  25.591  0.00  0.00    +0.042 A 
ATOM     28  C   UNL     1      -0.782  -2.884  24.647  0.00  0.00    +0.196 A 
ENDBRANCH  24  25
ENDBRANCH  15   5
ENDBRANCH   9  15
TORSDOF 5
ENDMDL
