MODEL 1
REMARK VINA RESULT:      -7.2      0.000      0.000
REMARK  Name = 75367065
REMARK  6 active torsions:
REMARK  status: ('A' for Active; 'I' for Inactive)
REMARK    1  A    between atoms: O_2  and  C_8
REMARK    2  A    between atoms: N_4  and  C_6
REMARK    3  A    between atoms: N_4  and  C_7
REMARK    4  A    between atoms: N_5  and  C_18
REMARK    5  A    between atoms: C_9  and  C_18
REMARK    6  A    between atoms: C_10  and  C_20
REMARK                            x       y       z     vdW  Elec       q    Type
REMARK                         _______ _______ _______ _____ _____    ______ ____
ROOT
ATOM      1  O   UNL     1      -0.209   3.650  25.748  0.00  0.00    -0.371 OA
ATOM      6  C   UNL     1      -0.459   1.336  25.273  0.00  0.00    +0.111 C 
ATOM      8  C   UNL     1      -1.584   2.103  24.605  0.00  0.00    +0.164 C 
ATOM      9  C   UNL     1      -0.993   3.506  24.553  0.00  0.00    +0.165 C 
ATOM     15  C   UNL     1       0.020   2.344  26.305  0.00  0.00    +0.181 C 
ENDROOT
BRANCH   8   2
ATOM      2  O   UNL     1      -1.889   1.612  23.313  0.00  0.00    -0.388 OA
ATOM     23  H   UNL     1      -1.269   2.012  22.680  0.00  0.00    +0.210 HD
ENDBRANCH   8   2
BRANCH   6   4
ATOM      4  N   UNL     1      -0.882   0.077  25.864  0.00  0.00    -0.306 NA
ATOM     21  H   UNL     1      -1.367   0.247  26.744  0.00  0.00    +0.123 HD
BRANCH   4   7
ATOM      7  C   UNL     1      -1.755  -0.656  24.949  0.00  0.00    +0.054 C 
ATOM     11  C   UNL     1      -1.232  -2.085  24.764  0.00  0.00    +0.019 C 
ATOM     12  C   UNL     1      -3.189  -0.657  25.487  0.00  0.00    +0.019 C 
ATOM     16  C   UNL     1      -2.162  -2.908  23.874  0.00  0.00    +0.002 C 
ATOM     17  C   UNL     1      -4.117  -1.480  24.595  0.00  0.00    +0.002 C 
ATOM     19  C   UNL     1      -3.595  -2.901  24.399  0.00  0.00    +0.000 C 
ENDBRANCH   4   7
ENDBRANCH   6   4
BRANCH   9  18
ATOM     18  C   UNL     1      -2.046   4.600  24.495  0.00  0.00    +0.138 C 
BRANCH  18   5
ATOM      3  O   UNL     1      -3.756   4.058  26.782  0.00  0.00    -0.276 OA
ATOM      5  N   UNL     1      -3.370   4.048  24.485  0.00  0.00    -0.313 N 
ATOM     20  C   UNL     1      -4.115   3.824  25.634  0.00  0.00    +0.216 C 
ATOM     22  H   UNL     1      -3.783   3.827  23.584  0.00  0.00    +0.149 HD
BRANCH  20  10
ATOM     10  C   UNL     1      -5.468   3.246  25.388  0.00  0.00    +0.075 C 
ATOM     13  C   UNL     1      -5.845   1.989  26.098  0.00  0.00    +0.013 C 
ATOM     14  C   UNL     1      -5.570   1.969  24.624  0.00  0.00    +0.013 C 
ENDBRANCH  20  10
ENDBRANCH  18   5
ENDBRANCH   9  18
TORSDOF 6
ENDMDL
MODEL 2
REMARK VINA RESULT:      -4.8      1.943      4.716
REMARK  Name = 75367065
REMARK  6 active torsions:
REMARK  status: ('A' for Active; 'I' for Inactive)
REMARK    1  A    between atoms: O_2  and  C_8
REMARK    2  A    between atoms: N_4  and  C_6
REMARK    3  A    between atoms: N_4  and  C_7
REMARK    4  A    between atoms: N_5  and  C_18
REMARK    5  A    between atoms: C_9  and  C_18
REMARK    6  A    between atoms: C_10  and  C_20
REMARK                            x       y       z     vdW  Elec       q    Type
REMARK                         _______ _______ _______ _____ _____    ______ ____
ROOT
ATOM      1  O   UNL     1      -5.299   3.197  26.380  0.00  0.00    -0.371 OA
ATOM      6  C   UNL     1      -3.656   4.261  25.035  0.00  0.00    +0.111 C 
ATOM      8  C   UNL     1      -4.228   3.078  24.276  0.00  0.00    +0.164 C 
ATOM      9  C   UNL     1      -5.550   2.874  25.003  0.00  0.00    +0.165 C 
ATOM     15  C   UNL     1      -4.063   3.927  26.461  0.00  0.00    +0.181 C 
ENDROOT
BRANCH   8   2
ATOM      2  O   UNL     1      -4.419   3.352  22.901  0.00  0.00    -0.388 OA
ATOM     23  H   UNL     1      -4.594   2.512  22.444  0.00  0.00    +0.210 HD
ENDBRANCH   8   2
BRANCH   6   4
ATOM      4  N   UNL     1      -2.219   4.415  24.878  0.00  0.00    -0.306 NA
ATOM     21  H   UNL     1      -1.851   5.036  25.596  0.00  0.00    +0.123 HD
BRANCH   4   7
ATOM      7  C   UNL     1      -1.549   3.117  24.951  0.00  0.00    +0.054 C 
ATOM     11  C   UNL     1      -1.323   2.567  23.539  0.00  0.00    +0.019 C 
ATOM     12  C   UNL     1      -0.224   3.258  25.708  0.00  0.00    +0.019 C 
ATOM     16  C   UNL     1      -0.555   1.247  23.571  0.00  0.00    +0.002 C 
ATOM     17  C   UNL     1       0.542   1.937  25.739  0.00  0.00    +0.002 C 
ATOM     19  C   UNL     1       0.759   1.379  24.335  0.00  0.00    +0.000 C 
ENDBRANCH   4   7
ENDBRANCH   6   4
BRANCH   9  18
ATOM     18  C   UNL     1      -6.082   1.456  24.897  0.00  0.00    +0.138 C 
BRANCH  18   5
ATOM      3  O   UNL     1      -4.069  -0.160  23.559  0.00  0.00    -0.276 OA
ATOM      5  N   UNL     1      -5.179   0.515  25.494  0.00  0.00    -0.313 N 
ATOM     20  C   UNL     1      -4.245  -0.215  24.771  0.00  0.00    +0.216 C 
ATOM     22  H   UNL     1      -5.221   0.393  26.501  0.00  0.00    +0.149 HD
BRANCH  20  10
ATOM     10  C   UNL     1      -3.408  -1.133  25.596  0.00  0.00    +0.075 C 
ATOM     13  C   UNL     1      -2.152  -1.678  25.002  0.00  0.00    +0.013 C 
ATOM     14  C   UNL     1      -3.337  -2.574  25.210  0.00  0.00    +0.013 C 
ENDBRANCH  20  10
ENDBRANCH  18   5
ENDBRANCH   9  18
TORSDOF 6
ENDMDL
MODEL 3
REMARK VINA RESULT:      -4.8     14.820     16.433
REMARK  Name = 75367065
REMARK  6 active torsions:
REMARK  status: ('A' for Active; 'I' for Inactive)
REMARK    1  A    between atoms: O_2  and  C_8
REMARK    2  A    between atoms: N_4  and  C_6
REMARK    3  A    between atoms: N_4  and  C_7
REMARK    4  A    between atoms: N_5  and  C_18
REMARK    5  A    between atoms: C_9  and  C_18
REMARK    6  A    between atoms: C_10  and  C_20
REMARK                            x       y       z     vdW  Elec       q    Type
REMARK                         _______ _______ _______ _____ _____    ______ ____
ROOT
ATOM      1  O   UNL     1      -3.958 -10.550  16.439  0.00  0.00    -0.371 OA
ATOM      6  C   UNL     1      -4.608 -10.154  14.189  0.00  0.00    +0.111 C 
ATOM      8  C   UNL     1      -5.850 -10.387  15.030  0.00  0.00    +0.164 C 
ATOM      9  C   UNL     1      -5.319 -10.089  16.426  0.00  0.00    +0.165 C 
ATOM     15  C   UNL     1      -3.527 -10.743  15.080  0.00  0.00    +0.181 C 
ENDROOT
BRANCH   8   2
ATOM      2  O   UNL     1      -6.917  -9.528  14.677  0.00  0.00    -0.388 OA
ATOM     23  H   UNL     1      -6.842  -9.319  13.731  0.00  0.00    +0.210 HD
ENDBRANCH   8   2
BRANCH   6   4
ATOM      4  N   UNL     1      -4.666 -10.781  12.879  0.00  0.00    -0.306 NA
ATOM     21  H   UNL     1      -5.435 -11.448  12.842  0.00  0.00    +0.123 HD
BRANCH   4   7
ATOM      7  C   UNL     1      -4.829  -9.775  11.830  0.00  0.00    +0.054 C 
ATOM     11  C   UNL     1      -3.720  -9.929  10.784  0.00  0.00    +0.019 C 
ATOM     12  C   UNL     1      -6.214  -9.910  11.191  0.00  0.00    +0.019 C 
ATOM     16  C   UNL     1      -3.901  -8.943   9.631  0.00  0.00    +0.002 C 
ATOM     17  C   UNL     1      -6.394  -8.924  10.039  0.00  0.00    +0.002 C 
ATOM     19  C   UNL     1      -5.285  -9.065   8.999  0.00  0.00    +0.000 C 
ENDBRANCH   4   7
ENDBRANCH   6   4
BRANCH   9  18
ATOM     18  C   UNL     1      -6.105 -10.778  17.527  0.00  0.00    +0.138 C 
BRANCH  18   5
ATOM      3  O   UNL     1      -8.188 -10.773  19.556  0.00  0.00    -0.276 OA
ATOM      5  N   UNL     1      -7.518 -10.631  17.329  0.00  0.00    -0.313 N 
ATOM     20  C   UNL     1      -8.442 -10.640  18.365  0.00  0.00    +0.216 C 
ATOM     22  H   UNL     1      -7.851 -10.499  16.379  0.00  0.00    +0.149 HD
BRANCH  20  10
ATOM     10  C   UNL     1      -9.859 -10.469  17.929  0.00  0.00    +0.075 C 
ATOM     13  C   UNL     1     -10.247  -9.194  17.257  0.00  0.00    +0.013 C 
ATOM     14  C   UNL     1     -10.713  -9.482  18.653  0.00  0.00    +0.013 C 
ENDBRANCH  20  10
ENDBRANCH  18   5
ENDBRANCH   9  18
TORSDOF 6
ENDMDL
MODEL 4
REMARK VINA RESULT:      -4.3     15.709     18.369
REMARK  Name = 75367065
REMARK  6 active torsions:
REMARK  status: ('A' for Active; 'I' for Inactive)
REMARK    1  A    between atoms: O_2  and  C_8
REMARK    2  A    between atoms: N_4  and  C_6
REMARK    3  A    between atoms: N_4  and  C_7
REMARK    4  A    between atoms: N_5  and  C_18
REMARK    5  A    between atoms: C_9  and  C_18
REMARK    6  A    between atoms: C_10  and  C_20
REMARK                            x       y       z     vdW  Elec       q    Type
REMARK                         _______ _______ _______ _____ _____    ______ ____
ROOT
ATOM      1  O   UNL     1      -3.942  -9.288  10.906  0.00  0.00    -0.371 OA
ATOM      6  C   UNL     1      -6.008  -9.152   9.742  0.00  0.00    +0.111 C 
ATOM      8  C   UNL     1      -6.169 -10.081  10.931  0.00  0.00    +0.164 C 
ATOM      9  C   UNL     1      -5.004  -9.642  11.807  0.00  0.00    +0.165 C 
ATOM     15  C   UNL     1      -4.496  -9.120   9.590  0.00  0.00    +0.181 C 
ENDROOT
BRANCH   8   2
ATOM      2  O   UNL     1      -7.412  -9.919  11.587  0.00  0.00    -0.388 OA
ATOM     23  H   UNL     1      -7.958  -9.310  11.061  0.00  0.00    +0.210 HD
ENDBRANCH   8   2
BRANCH   6   4
ATOM      4  N   UNL     1      -6.688  -9.616   8.544  0.00  0.00    -0.306 NA
ATOM     21  H   UNL     1      -7.116 -10.525   8.712  0.00  0.00    +0.123 HD
BRANCH   4   7
ATOM      7  C   UNL     1      -7.708  -8.656   8.124  0.00  0.00    +0.054 C 
ATOM     11  C   UNL     1      -9.054  -9.015   8.761  0.00  0.00    +0.019 C 
ATOM     12  C   UNL     1      -7.275  -7.237   8.507  0.00  0.00    +0.019 C 
ATOM     16  C   UNL     1     -10.129  -7.989   8.406  0.00  0.00    +0.002 C 
ATOM     17  C   UNL     1      -8.352  -6.213   8.152  0.00  0.00    +0.002 C 
ATOM     19  C   UNL     1      -9.698  -6.573   8.775  0.00  0.00    +0.000 C 
ENDBRANCH   4   7
ENDBRANCH   6   4
BRANCH   9  18
ATOM     18  C   UNL     1      -4.528 -10.723  12.762  0.00  0.00    +0.138 C 
BRANCH  18   5
ATOM      3  O   UNL     1      -6.835 -10.419  14.506  0.00  0.00    -0.276 OA
ATOM      5  N   UNL     1      -4.542 -10.262  14.120  0.00  0.00    -0.313 N 
ATOM     20  C   UNL     1      -5.699 -10.149  14.879  0.00  0.00    +0.216 C 
ATOM     22  H   UNL     1      -3.653 -10.020  14.546  0.00  0.00    +0.149 HD
BRANCH  20  10
ATOM     10  C   UNL     1      -5.479  -9.651  16.268  0.00  0.00    +0.075 C 
ATOM     13  C   UNL     1      -4.553 -10.410  17.159  0.00  0.00    +0.013 C 
ATOM     14  C   UNL     1      -6.033 -10.443  17.405  0.00  0.00    +0.013 C 
ENDBRANCH  20  10
ENDBRANCH  18   5
ENDBRANCH   9  18
TORSDOF 6
ENDMDL
MODEL 5
REMARK VINA RESULT:      -3.3      1.972      5.211
REMARK  Name = 75367065
REMARK  6 active torsions:
REMARK  status: ('A' for Active; 'I' for Inactive)
REMARK    1  A    between atoms: O_2  and  C_8
REMARK    2  A    between atoms: N_4  and  C_6
REMARK    3  A    between atoms: N_4  and  C_7
REMARK    4  A    between atoms: N_5  and  C_18
REMARK    5  A    between atoms: C_9  and  C_18
REMARK    6  A    between atoms: C_10  and  C_20
REMARK                            x       y       z     vdW  Elec       q    Type
REMARK                         _______ _______ _______ _____ _____    ______ ____
ROOT
ATOM      1  O   UNL     1      -2.587  -1.952  25.582  0.00  0.00    -0.371 OA
ATOM      6  C   UNL     1      -4.195  -0.449  24.689  0.00  0.00    +0.111 C 
ATOM      8  C   UNL     1      -2.831  -0.113  24.116  0.00  0.00    +0.164 C 
ATOM      9  C   UNL     1      -2.086  -1.422  24.344  0.00  0.00    +0.165 C 
ATOM     15  C   UNL     1      -3.814  -1.275  25.907  0.00  0.00    +0.181 C 
ENDROOT
BRANCH   8   2
ATOM      2  O   UNL     1      -2.884   0.230  22.744  0.00  0.00    -0.388 OA
ATOM     23  H   UNL     1      -2.693  -0.567  22.222  0.00  0.00    +0.210 HD
ENDBRANCH   8   2
BRANCH   6   4
ATOM      4  N   UNL     1      -4.990   0.721  25.025  0.00  0.00    -0.306 NA
ATOM     21  H   UNL     1      -5.379   0.624  25.962  0.00  0.00    +0.123 HD
BRANCH   4   7
ATOM      7  C   UNL     1      -4.181   1.936  24.944  0.00  0.00    +0.054 C 
ATOM     11  C   UNL     1      -4.645   2.792  23.761  0.00  0.00    +0.019 C 
ATOM     12  C   UNL     1      -4.279   2.714  26.261  0.00  0.00    +0.019 C 
ATOM     16  C   UNL     1      -3.873   4.109  23.690  0.00  0.00    +0.002 C 
ATOM     17  C   UNL     1      -3.508   4.030  26.188  0.00  0.00    +0.002 C 
ATOM     19  C   UNL     1      -3.957   4.881  25.003  0.00  0.00    +0.000 C 
ENDBRANCH   4   7
ENDBRANCH   6   4
BRANCH   9  18
ATOM     18  C   UNL     1      -0.580  -1.249  24.432  0.00  0.00    +0.138 C 
BRANCH  18   5
ATOM      3  O   UNL     1      -0.548   1.009  26.264  0.00  0.00    -0.276 OA
ATOM      5  N   UNL     1      -0.193   0.103  24.147  0.00  0.00    -0.313 N 
ATOM     20  C   UNL     1      -0.210   1.120  25.091  0.00  0.00    +0.216 C 
ATOM     22  H   UNL     1       0.123   0.316  23.205  0.00  0.00    +0.149 HD
BRANCH  20  10
ATOM     10  C   UNL     1       0.235   2.448  24.576  0.00  0.00    +0.075 C 
ATOM     13  C   UNL     1      -0.332   3.679  25.200  0.00  0.00    +0.013 C 
ATOM     14  C   UNL     1      -0.742   3.280  23.814  0.00  0.00    +0.013 C 
ENDBRANCH  20  10
ENDBRANCH  18   5
ENDBRANCH   9  18
TORSDOF 6
ENDMDL
