MODEL 1
REMARK VINA RESULT:      -3.0      0.000      0.000
REMARK  Name = 45784354
REMARK  8 active torsions:
REMARK  status: ('A' for Active; 'I' for Inactive)
REMARK    1  A    between atoms: O_2  and  C_20
REMARK    2  A    between atoms: O_2  and  C_26
REMARK    3  A    between atoms: O_3  and  C_25
REMARK    4  A    between atoms: O_3  and  C_27
REMARK    5  A    between atoms: N_5  and  C_11
REMARK    6  A    between atoms: C_7  and  C_12
REMARK    7  A    between atoms: C_11  and  C_13
REMARK    8  A    between atoms: C_18  and  C_25
REMARK                            x       y       z     vdW  Elec       q    Type
REMARK                         _______ _______ _______ _____ _____    ______ ____
ROOT
ATOM      5  N   UNL     1      -4.836   3.949  25.444  0.00  0.00    -0.297 NA
ATOM      7  C   UNL     1      -5.260   1.825  24.546  0.00  0.00    +0.090 C 
ATOM      8  C   UNL     1      -6.125   2.034  25.802  0.00  0.00    +0.029 C 
ATOM      9  C   UNL     1      -4.191   2.923  24.623  0.00  0.00    +0.097 C 
ATOM     10  C   UNL     1      -5.486   3.211  26.528  0.00  0.00    +0.085 C 
ENDROOT
BRANCH   7  12
ATOM      1  O   UNL     1      -3.365   0.307  24.764  0.00  0.00    -0.439 OA
ATOM      6  N   UNL     1      -5.260  -0.658  23.980  0.00  0.00    -0.213 NA
ATOM     12  C   UNL     1      -4.672   0.440  24.404  0.00  0.00    +0.201 A 
ATOM     14  C   UNL     1      -3.103  -1.014  24.542  0.00  0.00    +0.169 A 
ATOM     15  C   UNL     1      -4.264  -1.601  24.062  0.00  0.00    +0.110 A 
ATOM     18  C   UNL     1      -1.903  -1.683  24.747  0.00  0.00    +0.103 A 
ATOM     19  C   UNL     1      -4.254  -2.969  23.754  0.00  0.00    +0.031 A 
ATOM     22  C   UNL     1      -1.909  -3.047  24.435  0.00  0.00    +0.019 A 
ATOM     23  C   UNL     1      -3.060  -3.680  23.948  0.00  0.00    +0.003 A 
BRANCH  18  25
ATOM      4  O   UNL     1      -0.566  -0.645  26.425  0.00  0.00    -0.245 OA
ATOM     25  C   UNL     1      -0.719  -1.018  25.252  0.00  0.00    +0.343 C 
BRANCH  25   3
ATOM      3  O   UNL     1       0.223  -0.844  24.272  0.00  0.00    -0.464 OA
ATOM     27  C   UNL     1       0.172   0.380  23.530  0.00  0.00    +0.280 C 
ENDBRANCH  25   3
ENDBRANCH  18  25
ENDBRANCH   7  12
BRANCH   5  11
ATOM     11  C   UNL     1      -3.892   4.941  25.936  0.00  0.00    +0.119 C 
BRANCH  11  13
ATOM     13  C   UNL     1      -2.470   4.578  25.600  0.00  0.00    -0.030 A 
ATOM     16  C   UNL     1      -1.847   3.518  26.257  0.00  0.00    +0.050 A 
ATOM     17  C   UNL     1      -1.776   5.304  24.631  0.00  0.00    +0.005 A 
ATOM     20  C   UNL     1      -0.530   3.183  25.946  0.00  0.00    +0.120 A 
ATOM     21  C   UNL     1      -0.459   4.968  24.320  0.00  0.00    +0.004 A 
ATOM     24  C   UNL     1       0.164   3.908  24.977  0.00  0.00    +0.045 A 
BRANCH  20   2
ATOM      2  O   UNL     1       0.078   2.148  26.588  0.00  0.00    -0.495 OA
ATOM     26  C   UNL     1       0.761   2.451  27.805  0.00  0.00    +0.277 C 
ENDBRANCH  20   2
ENDBRANCH  11  13
ENDBRANCH   5  11
TORSDOF 6
ENDMDL
MODEL 2
REMARK VINA RESULT:      -2.2      1.848      5.511
REMARK  Name = 45784354
REMARK  8 active torsions:
REMARK  status: ('A' for Active; 'I' for Inactive)
REMARK    1  A    between atoms: O_2  and  C_20
REMARK    2  A    between atoms: O_2  and  C_26
REMARK    3  A    between atoms: O_3  and  C_25
REMARK    4  A    between atoms: O_3  and  C_27
REMARK    5  A    between atoms: N_5  and  C_11
REMARK    6  A    between atoms: C_7  and  C_12
REMARK    7  A    between atoms: C_11  and  C_13
REMARK    8  A    between atoms: C_18  and  C_25
REMARK                            x       y       z     vdW  Elec       q    Type
REMARK                         _______ _______ _______ _____ _____    ______ ____
ROOT
ATOM      5  N   UNL     1      -2.281  -2.242  24.867  0.00  0.00    -0.297 NA
ATOM      7  C   UNL     1      -4.137  -0.887  25.331  0.00  0.00    +0.090 C 
ATOM      8  C   UNL     1      -4.332  -1.576  23.970  0.00  0.00    +0.029 C 
ATOM      9  C   UNL     1      -2.644  -1.054  25.642  0.00  0.00    +0.097 C 
ATOM     10  C   UNL     1      -2.945  -2.066  23.575  0.00  0.00    +0.085 C 
ENDROOT
BRANCH   7  12
ATOM      1  O   UNL     1      -3.606   1.485  25.512  0.00  0.00    -0.439 OA
ATOM      6  N   UNL     1      -5.817   1.027  25.320  0.00  0.00    -0.213 NA
ATOM     12  C   UNL     1      -4.591   0.554  25.385  0.00  0.00    +0.201 A 
ATOM     14  C   UNL     1      -4.284   2.670  25.531  0.00  0.00    +0.169 A 
ATOM     15  C   UNL     1      -5.636   2.386  25.414  0.00  0.00    +0.110 A 
ATOM     18  C   UNL     1      -3.749   3.948  25.646  0.00  0.00    +0.103 A 
ATOM     19  C   UNL     1      -6.553   3.447  25.408  0.00  0.00    +0.031 A 
ATOM     22  C   UNL     1      -4.678   4.995  25.639  0.00  0.00    +0.019 A 
ATOM     23  C   UNL     1      -6.052   4.752  25.522  0.00  0.00    +0.003 A 
BRANCH  18  25
ATOM      4  O   UNL     1      -1.559   3.525  26.484  0.00  0.00    -0.245 OA
ATOM     25  C   UNL     1      -2.325   4.186  25.767  0.00  0.00    +0.343 C 
BRANCH  25   3
ATOM      3  O   UNL     1      -1.919   5.237  24.988  0.00  0.00    -0.464 OA
ATOM     27  C   UNL     1      -0.552   5.239  24.560  0.00  0.00    +0.280 C 
ENDBRANCH  25   3
ENDBRANCH  18  25
ENDBRANCH   7  12
BRANCH   5  11
ATOM     11  C   UNL     1      -0.841  -2.400  24.733  0.00  0.00    +0.119 C 
BRANCH  11  13
ATOM     13  C   UNL     1      -0.165  -1.103  24.374  0.00  0.00    -0.030 A 
ATOM     16  C   UNL     1       0.849  -1.087  23.416  0.00  0.00    +0.050 A 
ATOM     17  C   UNL     1      -0.553   0.082  24.999  0.00  0.00    +0.005 A 
ATOM     20  C   UNL     1       1.475   0.114  23.084  0.00  0.00    +0.120 A 
ATOM     21  C   UNL     1       0.073   1.283  24.667  0.00  0.00    +0.004 A 
ATOM     24  C   UNL     1       1.087   1.299  23.710  0.00  0.00    +0.045 A 
BRANCH  20   2
ATOM      2  O   UNL     1       2.465   0.129  22.150  0.00  0.00    -0.495 OA
ATOM     26  C   UNL     1       3.721   0.681  22.545  0.00  0.00    +0.277 C 
ENDBRANCH  20   2
ENDBRANCH  11  13
ENDBRANCH   5  11
TORSDOF 6
ENDMDL
MODEL 3
REMARK VINA RESULT:      -1.6      1.979      4.709
REMARK  Name = 45784354
REMARK  8 active torsions:
REMARK  status: ('A' for Active; 'I' for Inactive)
REMARK    1  A    between atoms: O_2  and  C_20
REMARK    2  A    between atoms: O_2  and  C_26
REMARK    3  A    between atoms: O_3  and  C_25
REMARK    4  A    between atoms: O_3  and  C_27
REMARK    5  A    between atoms: N_5  and  C_11
REMARK    6  A    between atoms: C_7  and  C_12
REMARK    7  A    between atoms: C_11  and  C_13
REMARK    8  A    between atoms: C_18  and  C_25
REMARK                            x       y       z     vdW  Elec       q    Type
REMARK                         _______ _______ _______ _____ _____    ______ ____
ROOT
ATOM      5  N   UNL     1      -2.770   4.697  26.226  0.00  0.00    -0.297 NA
ATOM      7  C   UNL     1      -0.685   3.751  25.720  0.00  0.00    +0.090 C 
ATOM      8  C   UNL     1      -0.860   5.060  24.932  0.00  0.00    +0.029 C 
ATOM      9  C   UNL     1      -2.097   3.396  26.204  0.00  0.00    +0.097 C 
ATOM     10  C   UNL     1      -2.352   5.357  24.988  0.00  0.00    +0.085 C 
ENDROOT
BRANCH   7  12
ATOM      1  O   UNL     1      -0.644   1.416  25.021  0.00  0.00    -0.439 OA
ATOM      6  N   UNL     1       1.062   2.670  24.215  0.00  0.00    -0.213 NA
ATOM     12  C   UNL     1      -0.028   2.628  24.950  0.00  0.00    +0.201 A 
ATOM     14  C   UNL     1       0.142   0.609  24.250  0.00  0.00    +0.169 A 
ATOM     15  C   UNL     1       1.186   1.380  23.759  0.00  0.00    +0.110 A 
ATOM     18  C   UNL     1      -0.038  -0.742  23.983  0.00  0.00    +0.103 A 
ATOM     19  C   UNL     1       2.142   0.776  22.930  0.00  0.00    +0.031 A 
ATOM     22  C   UNL     1       0.925  -1.330  23.155  0.00  0.00    +0.019 A 
ATOM     23  C   UNL     1       1.994  -0.588  22.637  0.00  0.00    +0.003 A 
BRANCH  18  25
ATOM      4  O   UNL     1      -1.606  -2.537  24.022  0.00  0.00    -0.245 OA
ATOM     25  C   UNL     1      -1.149  -1.499  24.525  0.00  0.00    +0.343 C 
BRANCH  25   3
ATOM      3  O   UNL     1      -1.641  -0.930  25.670  0.00  0.00    -0.464 OA
ATOM     27  C   UNL     1      -2.982  -1.270  26.041  0.00  0.00    +0.280 C 
ENDBRANCH  25   3
ENDBRANCH  18  25
ENDBRANCH   7  12
BRANCH   5  11
ATOM     11  C   UNL     1      -4.216   4.572  26.327  0.00  0.00    +0.119 C 
BRANCH  11  13
ATOM     13  C   UNL     1      -4.711   3.280  25.733  0.00  0.00    -0.030 A 
ATOM     16  C   UNL     1      -3.950   2.619  24.769  0.00  0.00    +0.050 A 
ATOM     17  C   UNL     1      -5.932   2.746  26.146  0.00  0.00    +0.005 A 
ATOM     20  C   UNL     1      -4.409   1.423  24.219  0.00  0.00    +0.120 A 
ATOM     21  C   UNL     1      -6.390   1.549  25.595  0.00  0.00    +0.004 A 
ATOM     24  C   UNL     1      -5.630   0.888  24.632  0.00  0.00    +0.045 A 
BRANCH  20   2
ATOM      2  O   UNL     1      -3.666   0.778  23.278  0.00  0.00    -0.495 OA
ATOM     26  C   UNL     1      -2.781   1.576  22.492  0.00  0.00    +0.277 C 
ENDBRANCH  20   2
ENDBRANCH  11  13
ENDBRANCH   5  11
TORSDOF 6
ENDMDL
MODEL 4
REMARK VINA RESULT:      -0.6      2.551      5.105
REMARK  Name = 45784354
REMARK  8 active torsions:
REMARK  status: ('A' for Active; 'I' for Inactive)
REMARK    1  A    between atoms: O_2  and  C_20
REMARK    2  A    between atoms: O_2  and  C_26
REMARK    3  A    between atoms: O_3  and  C_25
REMARK    4  A    between atoms: O_3  and  C_27
REMARK    5  A    between atoms: N_5  and  C_11
REMARK    6  A    between atoms: C_7  and  C_12
REMARK    7  A    between atoms: C_11  and  C_13
REMARK    8  A    between atoms: C_18  and  C_25
REMARK                            x       y       z     vdW  Elec       q    Type
REMARK                         _______ _______ _______ _____ _____    ______ ____
ROOT
ATOM      5  N   UNL     1      -2.336   4.265  26.190  0.00  0.00    -0.297 NA
ATOM      7  C   UNL     1      -0.444   3.081  25.468  0.00  0.00    +0.090 C 
ATOM      8  C   UNL     1      -0.370   4.530  24.956  0.00  0.00    +0.029 C 
ATOM      9  C   UNL     1      -1.904   2.895  25.900  0.00  0.00    +0.097 C 
ATOM     10  C   UNL     1      -1.787   5.070  25.097  0.00  0.00    +0.085 C 
ENDROOT
BRANCH   7  12
ATOM      1  O   UNL     1       1.351   2.008  24.217  0.00  0.00    -0.439 OA
ATOM      6  N   UNL     1      -0.708   1.139  23.842  0.00  0.00    -0.213 NA
ATOM     12  C   UNL     1       0.015   2.033  24.480  0.00  0.00    +0.201 A 
ATOM     14  C   UNL     1       1.482   0.989  23.317  0.00  0.00    +0.169 A 
ATOM     15  C   UNL     1       0.220   0.460  23.090  0.00  0.00    +0.110 A 
ATOM     18  C   UNL     1       2.650   0.537  22.716  0.00  0.00    +0.103 A 
ATOM     19  C   UNL     1       0.085  -0.610  22.194  0.00  0.00    +0.031 A 
ATOM     22  C   UNL     1       2.498  -0.530  21.825  0.00  0.00    +0.019 A 
ATOM     23  C   UNL     1       1.243  -1.095  21.567  0.00  0.00    +0.003 A 
BRANCH  18  25
ATOM      4  O   UNL     1       4.418   2.101  22.382  0.00  0.00    -0.245 OA
ATOM     25  C   UNL     1       3.944   1.129  22.991  0.00  0.00    +0.343 C 
BRANCH  25   3
ATOM      3  O   UNL     1       4.591   0.485  24.012  0.00  0.00    -0.464 OA
ATOM     27  C   UNL     1       5.728  -0.312  23.662  0.00  0.00    +0.280 C 
ENDBRANCH  25   3
ENDBRANCH  18  25
ENDBRANCH   7  12
BRANCH   5  11
ATOM     11  C   UNL     1      -3.782   4.382  26.292  0.00  0.00    +0.119 C 
BRANCH  11  13
ATOM     13  C   UNL     1      -4.483   3.158  25.766  0.00  0.00    -0.030 A 
ATOM     16  C   UNL     1      -3.798   2.260  24.946  0.00  0.00    +0.050 A 
ATOM     17  C   UNL     1      -5.818   2.922  26.097  0.00  0.00    +0.005 A 
ATOM     20  C   UNL     1      -4.448   1.127  24.459  0.00  0.00    +0.120 A 
ATOM     21  C   UNL     1      -6.467   1.789  25.609  0.00  0.00    +0.004 A 
ATOM     24  C   UNL     1      -5.783   0.892  24.790  0.00  0.00    +0.045 A 
BRANCH  20   2
ATOM      2  O   UNL     1      -3.780   0.252  23.658  0.00  0.00    -0.495 OA
ATOM     26  C   UNL     1      -3.806  -1.124  24.038  0.00  0.00    +0.277 C 
ENDBRANCH  20   2
ENDBRANCH  11  13
ENDBRANCH   5  11
TORSDOF 6
ENDMDL
MODEL 5
REMARK VINA RESULT:      -0.3      2.013      4.942
REMARK  Name = 45784354
REMARK  8 active torsions:
REMARK  status: ('A' for Active; 'I' for Inactive)
REMARK    1  A    between atoms: O_2  and  C_20
REMARK    2  A    between atoms: O_2  and  C_26
REMARK    3  A    between atoms: O_3  and  C_25
REMARK    4  A    between atoms: O_3  and  C_27
REMARK    5  A    between atoms: N_5  and  C_11
REMARK    6  A    between atoms: C_7  and  C_12
REMARK    7  A    between atoms: C_11  and  C_13
REMARK    8  A    between atoms: C_18  and  C_25
REMARK                            x       y       z     vdW  Elec       q    Type
REMARK                         _______ _______ _______ _____ _____    ______ ____
ROOT
ATOM      5  N   UNL     1      -4.615  -0.979  24.925  0.00  0.00    -0.297 NA
ATOM      7  C   UNL     1      -2.439  -1.554  24.269  0.00  0.00    +0.090 C 
ATOM      8  C   UNL     1      -2.616  -1.842  25.770  0.00  0.00    +0.029 C 
ATOM      9  C   UNL     1      -3.619  -0.644  23.906  0.00  0.00    +0.097 C 
ATOM     10  C   UNL     1      -3.859  -1.062  26.176  0.00  0.00    +0.085 C 
ENDROOT
BRANCH   7  12
ATOM      1  O   UNL     1      -0.917   0.349  24.206  0.00  0.00    -0.439 OA
ATOM      6  N   UNL     1      -0.086  -1.552  23.294  0.00  0.00    -0.213 NA
ATOM     12  C   UNL     1      -1.101  -0.963  23.889  0.00  0.00    +0.201 A 
ATOM     14  C   UNL     1       0.346   0.614  23.762  0.00  0.00    +0.169 A 
ATOM     15  C   UNL     1       0.852  -0.551  23.205  0.00  0.00    +0.110 A 
ATOM     18  C   UNL     1       1.034   1.819  23.838  0.00  0.00    +0.103 A 
ATOM     19  C   UNL     1       2.148  -0.540  22.672  0.00  0.00    +0.031 A 
ATOM     22  C   UNL     1       2.326   1.813  23.301  0.00  0.00    +0.019 A 
ATOM     23  C   UNL     1       2.875   0.659  22.729  0.00  0.00    +0.003 A 
BRANCH  18  25
ATOM      4  O   UNL     1       0.110   4.015  23.799  0.00  0.00    -0.245 OA
ATOM     25  C   UNL     1       0.455   3.007  24.433  0.00  0.00    +0.343 C 
BRANCH  25   3
ATOM      3  O   UNL     1       0.333   2.886  25.792  0.00  0.00    -0.464 OA
ATOM     27  C   UNL     1      -0.992   2.936  26.333  0.00  0.00    +0.280 C 
ENDBRANCH  25   3
ENDBRANCH  18  25
ENDBRANCH   7  12
BRANCH   5  11
ATOM     11  C   UNL     1      -5.692  -0.002  24.992  0.00  0.00    +0.119 C 
BRANCH  11  13
ATOM     13  C   UNL     1      -5.176   1.409  24.896  0.00  0.00    -0.030 A 
ATOM     16  C   UNL     1      -4.225   1.739  23.930  0.00  0.00    +0.050 A 
ATOM     17  C   UNL     1      -5.648   2.386  25.772  0.00  0.00    +0.005 A 
ATOM     20  C   UNL     1      -3.747   3.046  23.841  0.00  0.00    +0.120 A 
ATOM     21  C   UNL     1      -5.170   3.693  25.683  0.00  0.00    +0.004 A 
ATOM     24  C   UNL     1      -4.220   4.023  24.718  0.00  0.00    +0.045 A 
BRANCH  20   2
ATOM      2  O   UNL     1      -2.819   3.368  22.899  0.00  0.00    -0.495 OA
ATOM     26  C   UNL     1      -2.487   2.360  21.944  0.00  0.00    +0.277 C 
ENDBRANCH  20   2
ENDBRANCH  11  13
ENDBRANCH   5  11
TORSDOF 6
ENDMDL
MODEL 6
REMARK VINA RESULT:       0.2      3.090      6.058
REMARK  Name = 45784354
REMARK  8 active torsions:
REMARK  status: ('A' for Active; 'I' for Inactive)
REMARK    1  A    between atoms: O_2  and  C_20
REMARK    2  A    between atoms: O_2  and  C_26
REMARK    3  A    between atoms: O_3  and  C_25
REMARK    4  A    between atoms: O_3  and  C_27
REMARK    5  A    between atoms: N_5  and  C_11
REMARK    6  A    between atoms: C_7  and  C_12
REMARK    7  A    between atoms: C_11  and  C_13
REMARK    8  A    between atoms: C_18  and  C_25
REMARK                            x       y       z     vdW  Elec       q    Type
REMARK                         _______ _______ _______ _____ _____    ______ ____
ROOT
ATOM      5  N   UNL     1       0.315  -1.132  23.697  0.00  0.00    -0.297 NA
ATOM      7  C   UNL     1      -1.409  -0.486  25.150  0.00  0.00    +0.090 C 
ATOM      8  C   UNL     1      -1.607  -1.955  24.739  0.00  0.00    +0.029 C 
ATOM      9  C   UNL     1      -0.399   0.069  24.136  0.00  0.00    +0.097 C 
ATOM     10  C   UNL     1      -0.728  -2.141  23.509  0.00  0.00    +0.085 C 
ENDROOT
BRANCH   7  12
ATOM      1  O   UNL     1      -2.517   1.671  25.399  0.00  0.00    -0.439 OA
ATOM      6  N   UNL     1      -3.924  -0.085  25.131  0.00  0.00    -0.213 NA
ATOM     12  C   UNL     1      -2.679   0.331  25.221  0.00  0.00    +0.201 A 
ATOM     14  C   UNL     1      -3.795   2.149  25.424  0.00  0.00    +0.169 A 
ATOM     15  C   UNL     1      -4.654   1.073  25.261  0.00  0.00    +0.110 A 
ATOM     18  C   UNL     1      -4.201   3.469  25.584  0.00  0.00    +0.103 A 
ATOM     19  C   UNL     1      -6.036   1.303  25.250  0.00  0.00    +0.031 A 
ATOM     22  C   UNL     1      -5.584   3.682  25.572  0.00  0.00    +0.019 A 
ATOM     23  C   UNL     1      -6.486   2.623  25.409  0.00  0.00    +0.003 A 
BRANCH  18  25
ATOM      4  O   UNL     1      -3.222   5.311  26.735  0.00  0.00    -0.245 OA
ATOM     25  C   UNL     1      -3.258   4.556  25.752  0.00  0.00    +0.343 C 
BRANCH  25   3
ATOM      3  O   UNL     1      -2.403   4.656  24.687  0.00  0.00    -0.464 OA
ATOM     27  C   UNL     1      -1.017   4.867  24.983  0.00  0.00    +0.280 C 
ENDBRANCH  25   3
ENDBRANCH  18  25
ENDBRANCH   7  12
BRANCH   5  11
ATOM     11  C   UNL     1       1.092  -0.905  22.488  0.00  0.00    +0.119 C 
BRANCH  11  13
ATOM     13  C   UNL     1       2.436  -0.298  22.790  0.00  0.00    -0.030 A 
ATOM     16  C   UNL     1       3.419  -1.061  23.421  0.00  0.00    +0.050 A 
ATOM     17  C   UNL     1       2.698   1.026  22.440  0.00  0.00    +0.005 A 
ATOM     20  C   UNL     1       4.664  -0.498  23.701  0.00  0.00    +0.120 A 
ATOM     21  C   UNL     1       3.943   1.588  22.720  0.00  0.00    +0.004 A 
ATOM     24  C   UNL     1       4.926   0.826  23.351  0.00  0.00    +0.045 A 
BRANCH  20   2
ATOM      2  O   UNL     1       5.623  -1.243  24.316  0.00  0.00    -0.495 OA
ATOM     26  C   UNL     1       6.983  -0.924  24.019  0.00  0.00    +0.277 C 
ENDBRANCH  20   2
ENDBRANCH  11  13
ENDBRANCH   5  11
TORSDOF 6
ENDMDL
