MODEL 1
REMARK VINA RESULT:      -3.3      0.000      0.000
REMARK  Name = 28962329
REMARK  10 active torsions:
REMARK  status: ('A' for Active; 'I' for Inactive)
REMARK    1  A    between atoms: O_3  and  C_11
REMARK    2  A    between atoms: O_4  and  C_14
REMARK    3  A    between atoms: N_6  and  C_9
REMARK    4  A    between atoms: N_6  and  C_15
REMARK    5  A    between atoms: N_6  and  C_16
REMARK    6  A    between atoms: N_7  and  C_13
REMARK    7  A    between atoms: N_8  and  C_24
REMARK    8  A    between atoms: C_10  and  C_13
REMARK    9  A    between atoms: C_12  and  C_14
REMARK   10  A    between atoms: C_15  and  C_17
REMARK                            x       y       z     vdW  Elec       q    Type
REMARK                         _______ _______ _______ _____ _____    ______ ____
ROOT
ATOM      2  O   UNL     1      -1.216   2.867  24.967  0.00  0.00    -0.365 OA
ATOM      9  C   UNL     1      -3.528   2.607  24.534  0.00  0.00    +0.118 C 
ATOM     10  C   UNL     1      -2.170   1.922  24.448  0.00  0.00    +0.155 C 
ATOM     11  C   UNL     1      -3.372   3.399  25.818  0.00  0.00    +0.165 C 
ATOM     12  C   UNL     1      -1.920   3.869  25.728  0.00  0.00    +0.174 C 
ENDROOT
BRANCH  11   3
ATOM      3  O   UNL     1      -4.303   4.456  25.902  0.00  0.00    -0.388 OA
ATOM     30  H   UNL     1      -5.104   4.107  26.331  0.00  0.00    +0.210 HD
ENDBRANCH  11   3
BRANCH   9   6
ATOM      6  N   UNL     1      -4.637   1.668  24.578  0.00  0.00    -0.293 NA
ATOM     16  C   UNL     1      -5.913   2.378  24.684  0.00  0.00    +0.105 C 
BRANCH   6  15
ATOM     15  C   UNL     1      -4.482   0.737  25.699  0.00  0.00    +0.119 C 
BRANCH  15  17
ATOM     17  C   UNL     1      -4.098  -0.643  25.233  0.00  0.00    -0.033 A 
ATOM     19  C   UNL     1      -4.512  -1.096  23.981  0.00  0.00    +0.005 A 
ATOM     20  C   UNL     1      -3.328  -1.466  26.054  0.00  0.00    +0.005 A 
ATOM     21  C   UNL     1      -4.157  -2.374  23.549  0.00  0.00    +0.000 A 
ATOM     22  C   UNL     1      -2.972  -2.744  25.622  0.00  0.00    +0.000 A 
ATOM     23  C   UNL     1      -3.386  -3.198  24.370  0.00  0.00    +0.000 A 
ENDBRANCH  15  17
ENDBRANCH   6  15
ENDBRANCH   9   6
BRANCH  10  13
ATOM     13  C   UNL     1      -1.773   1.513  23.040  0.00  0.00    +0.139 C 
BRANCH  13   7
ATOM      5  O   UNL     1       0.151  -0.422  23.914  0.00  0.00    -0.253 OA
ATOM      7  N   UNL     1      -0.351   1.574  22.859  0.00  0.00    -0.297 N 
ATOM      8  N   UNL     1       1.851   0.913  22.998  0.00  0.00    -0.269 N 
ATOM     18  C   UNL     1       0.532   0.583  23.318  0.00  0.00    +0.304 C 
ATOM     31  H   UNL     1       0.034   2.372  22.361  0.00  0.00    +0.150 HD
ATOM     33  H   UNL     1       1.994   1.786  22.498  0.00  0.00    +0.156 HD
BRANCH   8  24
ATOM      1 CL   UNL     1       6.940   0.889  23.686  0.00  0.00    -0.083 Cl
ATOM     24  C   UNL     1       3.024   0.176  23.286  0.00  0.00    +0.036 A 
ATOM     25  C   UNL     1       4.259   0.821  23.338  0.00  0.00    +0.043 A 
ATOM     26  C   UNL     1       2.944  -1.197  23.519  0.00  0.00    +0.023 A 
ATOM     27  C   UNL     1       5.415   0.094  23.623  0.00  0.00    +0.043 A 
ATOM     28  C   UNL     1       4.099  -1.925  23.804  0.00  0.00    +0.003 A 
ATOM     29  C   UNL     1       5.335  -1.279  23.856  0.00  0.00    +0.020 A 
ENDBRANCH   8  24
ENDBRANCH  13   7
ENDBRANCH  10  13
BRANCH  12  14
ATOM     14  C   UNL     1      -1.716   5.212  25.038  0.00  0.00    +0.190 C 
BRANCH  14   4
ATOM      4  O   UNL     1      -0.352   5.332  24.673  0.00  0.00    -0.392 OA
ATOM     32  H   UNL     1      -0.019   4.434  24.511  0.00  0.00    +0.210 HD
ENDBRANCH  14   4
ENDBRANCH  12  14
TORSDOF 9
ENDMDL
MODEL 2
REMARK VINA RESULT:      -2.2      3.301      7.056
REMARK  Name = 28962329
REMARK  10 active torsions:
REMARK  status: ('A' for Active; 'I' for Inactive)
REMARK    1  A    between atoms: O_3  and  C_11
REMARK    2  A    between atoms: O_4  and  C_14
REMARK    3  A    between atoms: N_6  and  C_9
REMARK    4  A    between atoms: N_6  and  C_15
REMARK    5  A    between atoms: N_6  and  C_16
REMARK    6  A    between atoms: N_7  and  C_13
REMARK    7  A    between atoms: N_8  and  C_24
REMARK    8  A    between atoms: C_10  and  C_13
REMARK    9  A    between atoms: C_12  and  C_14
REMARK   10  A    between atoms: C_15  and  C_17
REMARK                            x       y       z     vdW  Elec       q    Type
REMARK                         _______ _______ _______ _____ _____    ______ ____
ROOT
ATOM      2  O   UNL     1       3.262   1.579  22.752  0.00  0.00    -0.365 OA
ATOM      9  C   UNL     1       2.023  -0.149  23.791  0.00  0.00    +0.118 C 
ATOM     10  C   UNL     1       1.914   1.195  23.080  0.00  0.00    +0.155 C 
ATOM     11  C   UNL     1       3.181  -0.779  23.041  0.00  0.00    +0.165 C 
ATOM     12  C   UNL     1       4.110   0.416  22.825  0.00  0.00    +0.174 C 
ENDROOT
BRANCH  11   3
ATOM      3  O   UNL     1       3.773  -1.830  23.774  0.00  0.00    -0.388 OA
ATOM     30  H   UNL     1       3.179  -2.041  24.515  0.00  0.00    +0.210 HD
ENDBRANCH  11   3
BRANCH   9   6
ATOM      6  N   UNL     1       0.801  -0.934  23.712  0.00  0.00    -0.293 NA
ATOM     16  C   UNL     1      -0.065  -0.437  22.641  0.00  0.00    +0.105 C 
BRANCH   6  15
ATOM     15  C   UNL     1       0.088  -0.910  24.991  0.00  0.00    +0.119 C 
BRANCH  15  17
ATOM     17  C   UNL     1      -1.274  -1.545  24.885  0.00  0.00    -0.033 A 
ATOM     19  C   UNL     1      -1.465  -2.651  24.058  0.00  0.00    +0.005 A 
ATOM     20  C   UNL     1      -2.343  -1.027  25.615  0.00  0.00    +0.005 A 
ATOM     21  C   UNL     1      -2.726  -3.240  23.960  0.00  0.00    +0.000 A 
ATOM     22  C   UNL     1      -3.604  -1.614  25.517  0.00  0.00    +0.000 A 
ATOM     23  C   UNL     1      -3.796  -2.721  24.689  0.00  0.00    +0.000 A 
ENDBRANCH  15  17
ENDBRANCH   6  15
ENDBRANCH   9   6
BRANCH  10  13
ATOM     13  C   UNL     1       1.258   2.283  23.912  0.00  0.00    +0.139 C 
BRANCH  13   7
ATOM      5  O   UNL     1      -0.998   2.177  25.673  0.00  0.00    -0.253 OA
ATOM      7  N   UNL     1      -0.119   2.457  23.552  0.00  0.00    -0.297 N 
ATOM      8  N   UNL     1      -2.401   2.598  23.839  0.00  0.00    -0.269 N 
ATOM     18  C   UNL     1      -1.175   2.390  24.476  0.00  0.00    +0.304 C 
ATOM     31  H   UNL     1      -0.340   2.651  22.580  0.00  0.00    +0.150 HD
ATOM     33  H   UNL     1      -2.371   2.764  22.836  0.00  0.00    +0.156 HD
BRANCH   8  24
ATOM      1 CL   UNL     1      -6.292   5.318  25.797  0.00  0.00    -0.083 Cl
ATOM     24  C   UNL     1      -3.691   2.608  24.419  0.00  0.00    +0.036 A 
ATOM     25  C   UNL     1      -4.285   3.818  24.780  0.00  0.00    +0.043 A 
ATOM     26  C   UNL     1      -4.369   1.408  24.630  0.00  0.00    +0.023 A 
ATOM     27  C   UNL     1      -5.558   3.826  25.351  0.00  0.00    +0.043 A 
ATOM     28  C   UNL     1      -5.642   1.416  25.200  0.00  0.00    +0.003 A 
ATOM     29  C   UNL     1      -6.236   2.626  25.561  0.00  0.00    +0.020 A 
ENDBRANCH   8  24
ENDBRANCH  13   7
ENDBRANCH  10  13
BRANCH  12  14
ATOM     14  C   UNL     1       5.132   0.649  23.931  0.00  0.00    +0.190 C 
BRANCH  14   4
ATOM      4  O   UNL     1       6.113  -0.372  23.864  0.00  0.00    -0.392 OA
ATOM     32  H   UNL     1       6.388  -0.566  24.775  0.00  0.00    +0.210 HD
ENDBRANCH  14   4
ENDBRANCH  12  14
TORSDOF 9
ENDMDL
MODEL 3
REMARK VINA RESULT:      -1.1      1.879      4.180
REMARK  Name = 28962329
REMARK  10 active torsions:
REMARK  status: ('A' for Active; 'I' for Inactive)
REMARK    1  A    between atoms: O_3  and  C_11
REMARK    2  A    between atoms: O_4  and  C_14
REMARK    3  A    between atoms: N_6  and  C_9
REMARK    4  A    between atoms: N_6  and  C_15
REMARK    5  A    between atoms: N_6  and  C_16
REMARK    6  A    between atoms: N_7  and  C_13
REMARK    7  A    between atoms: N_8  and  C_24
REMARK    8  A    between atoms: C_10  and  C_13
REMARK    9  A    between atoms: C_12  and  C_14
REMARK   10  A    between atoms: C_15  and  C_17
REMARK                            x       y       z     vdW  Elec       q    Type
REMARK                         _______ _______ _______ _____ _____    ______ ____
ROOT
ATOM      2  O   UNL     1      -2.247  -0.754  23.481  0.00  0.00    -0.365 OA
ATOM      9  C   UNL     1      -3.359   0.633  25.043  0.00  0.00    +0.118 C 
ATOM     10  C   UNL     1      -2.960   0.492  23.579  0.00  0.00    +0.155 C 
ATOM     11  C   UNL     1      -3.643  -0.813  25.404  0.00  0.00    +0.165 C 
ATOM     12  C   UNL     1      -2.544  -1.554  24.642  0.00  0.00    +0.174 C 
ENDROOT
BRANCH  11   3
ATOM      3  O   UNL     1      -3.605  -1.024  26.799  0.00  0.00    -0.388 OA
ATOM     30  H   UNL     1      -4.417  -0.644  27.176  0.00  0.00    +0.210 HD
ENDBRANCH  11   3
BRANCH   9   6
ATOM      6  N   UNL     1      -4.509   1.502  25.238  0.00  0.00    -0.293 NA
ATOM     16  C   UNL     1      -4.931   2.094  23.967  0.00  0.00    +0.105 C 
BRANCH   6  15
ATOM     15  C   UNL     1      -4.201   2.555  26.209  0.00  0.00    +0.119 C 
BRANCH  15  17
ATOM     17  C   UNL     1      -3.032   3.397  25.771  0.00  0.00    -0.033 A 
ATOM     19  C   UNL     1      -3.245   4.542  25.004  0.00  0.00    +0.005 A 
ATOM     20  C   UNL     1      -1.736   3.032  26.135  0.00  0.00    +0.005 A 
ATOM     21  C   UNL     1      -2.162   5.322  24.598  0.00  0.00    +0.000 A 
ATOM     22  C   UNL     1      -0.652   3.812  25.729  0.00  0.00    +0.000 A 
ATOM     23  C   UNL     1      -0.865   4.957  24.962  0.00  0.00    +0.000 A 
ENDBRANCH  15  17
ENDBRANCH   6  15
ENDBRANCH   9   6
BRANCH  10  13
ATOM     13  C   UNL     1      -2.087   1.624  23.066  0.00  0.00    +0.139 C 
BRANCH  13   7
ATOM      5  O   UNL     1       0.418   1.394  24.434  0.00  0.00    -0.253 OA
ATOM      7  N   UNL     1      -0.856   1.130  22.522  0.00  0.00    -0.297 N 
ATOM      8  N   UNL     1       1.367   0.529  22.469  0.00  0.00    -0.269 N 
ATOM     18  C   UNL     1       0.338   1.047  23.258  0.00  0.00    +0.304 C 
ATOM     31  H   UNL     1      -0.852   0.811  21.557  0.00  0.00    +0.150 HD
ATOM     33  H   UNL     1       1.131   0.288  21.510  0.00  0.00    +0.156 HD
BRANCH   8  24
ATOM      1 CL   UNL     1       4.916  -2.772  24.167  0.00  0.00    -0.083 Cl
ATOM     24  C   UNL     1       2.712   0.292  22.842  0.00  0.00    +0.036 A 
ATOM     25  C   UNL     1       3.105  -0.976  23.271  0.00  0.00    +0.043 A 
ATOM     26  C   UNL     1       3.645   1.327  22.778  0.00  0.00    +0.023 A 
ATOM     27  C   UNL     1       4.431  -1.209  23.636  0.00  0.00    +0.043 A 
ATOM     28  C   UNL     1       4.970   1.094  23.143  0.00  0.00    +0.003 A 
ATOM     29  C   UNL     1       5.363  -0.174  23.572  0.00  0.00    +0.020 A 
ENDBRANCH   8  24
ENDBRANCH  13   7
ENDBRANCH  10  13
BRANCH  12  14
ATOM     14  C   UNL     1      -1.247  -1.760  25.415  0.00  0.00    +0.190 C 
BRANCH  14   4
ATOM      4  O   UNL     1      -0.951  -0.572  26.128  0.00  0.00    -0.392 OA
ATOM     32  H   UNL     1      -0.811  -0.822  27.057  0.00  0.00    +0.210 HD
ENDBRANCH  14   4
ENDBRANCH  12  14
TORSDOF 9
ENDMDL
MODEL 4
REMARK VINA RESULT:      -0.6     14.538     16.696
REMARK  Name = 28962329
REMARK  10 active torsions:
REMARK  status: ('A' for Active; 'I' for Inactive)
REMARK    1  A    between atoms: O_3  and  C_11
REMARK    2  A    between atoms: O_4  and  C_14
REMARK    3  A    between atoms: N_6  and  C_9
REMARK    4  A    between atoms: N_6  and  C_15
REMARK    5  A    between atoms: N_6  and  C_16
REMARK    6  A    between atoms: N_7  and  C_13
REMARK    7  A    between atoms: N_8  and  C_24
REMARK    8  A    between atoms: C_10  and  C_13
REMARK    9  A    between atoms: C_12  and  C_14
REMARK   10  A    between atoms: C_15  and  C_17
REMARK                            x       y       z     vdW  Elec       q    Type
REMARK                         _______ _______ _______ _____ _____    ______ ____
ROOT
ATOM      2  O   UNL     1      -7.161  -8.825   9.917  0.00  0.00    -0.365 OA
ATOM      9  C   UNL     1      -8.864  -9.610  11.361  0.00  0.00    +0.118 C 
ATOM     10  C   UNL     1      -7.356  -9.464  11.191  0.00  0.00    +0.155 C 
ATOM     11  C   UNL     1      -9.353  -8.336  10.697  0.00  0.00    +0.165 C 
ATOM     12  C   UNL     1      -8.399  -8.208   9.510  0.00  0.00    +0.174 C 
ENDROOT
BRANCH  11   3
ATOM      3  O   UNL     1     -10.711  -8.426  10.324  0.00  0.00    -0.388 OA
ATOM     30  H   UNL     1     -10.913  -9.365  10.175  0.00  0.00    +0.210 HD
ENDBRANCH  11   3
BRANCH   9   6
ATOM      6  N   UNL     1      -9.272  -9.718  12.752  0.00  0.00    -0.293 NA
ATOM     16  C   UNL     1     -10.716  -9.510  12.885  0.00  0.00    +0.105 C 
BRANCH   6  15
ATOM     15  C   UNL     1      -8.544  -8.753  13.581  0.00  0.00    +0.119 C 
BRANCH  15  17
ATOM     17  C   UNL     1      -8.844  -8.934  15.046  0.00  0.00    -0.033 A 
ATOM     19  C   UNL     1      -9.600  -7.980  15.726  0.00  0.00    +0.005 A 
ATOM     20  C   UNL     1      -8.366 -10.057  15.721  0.00  0.00    +0.005 A 
ATOM     21  C   UNL     1      -9.879  -8.148  17.082  0.00  0.00    +0.000 A 
ATOM     22  C   UNL     1      -8.644 -10.225  17.078  0.00  0.00    +0.000 A 
ATOM     23  C   UNL     1      -9.400  -9.271  17.759  0.00  0.00    +0.000 A 
ENDBRANCH  15  17
ENDBRANCH   6  15
ENDBRANCH   9   6
BRANCH  10  13
ATOM     13  C   UNL     1      -6.601 -10.781  11.226  0.00  0.00    +0.139 C 
BRANCH  13   7
ATOM      5  O   UNL     1      -5.455 -10.471  13.832  0.00  0.00    -0.253 OA
ATOM      7  N   UNL     1      -5.215 -10.581  11.535  0.00  0.00    -0.297 N 
ATOM      8  N   UNL     1      -3.341 -10.256  12.835  0.00  0.00    -0.269 N 
ATOM     18  C   UNL     1      -4.726 -10.436  12.844  0.00  0.00    +0.304 C 
ATOM     31  H   UNL     1      -4.551 -10.555  10.766  0.00  0.00    +0.150 HD
ATOM     33  H   UNL     1      -2.887 -10.254  11.925  0.00  0.00    +0.156 HD
BRANCH   8  24
ATOM      1 CL   UNL     1      -2.549 -10.780  17.882  0.00  0.00    -0.083 Cl
ATOM     24  C   UNL     1      -2.481 -10.075  13.945  0.00  0.00    +0.036 A 
ATOM     25  C   UNL     1      -2.892 -10.471  15.218  0.00  0.00    +0.043 A 
ATOM     26  C   UNL     1      -1.222  -9.503  13.764  0.00  0.00    +0.023 A 
ATOM     27  C   UNL     1      -2.043 -10.294  16.311  0.00  0.00    +0.043 A 
ATOM     28  C   UNL     1      -0.374  -9.326  14.856  0.00  0.00    +0.003 A 
ATOM     29  C   UNL     1      -0.784  -9.722  16.130  0.00  0.00    +0.020 A 
ENDBRANCH   8  24
ENDBRANCH  13   7
ENDBRANCH  10  13
BRANCH  12  14
ATOM     14  C   UNL     1      -8.864  -8.890   8.229  0.00  0.00    +0.190 C 
BRANCH  14   4
ATOM      4  O   UNL     1      -8.914 -10.288   8.453  0.00  0.00    -0.392 OA
ATOM     32  H   UNL     1      -8.082 -10.662   8.117  0.00  0.00    +0.210 HD
ENDBRANCH  14   4
ENDBRANCH  12  14
TORSDOF 9
ENDMDL
MODEL 5
REMARK VINA RESULT:      -0.1     14.621     16.832
REMARK  Name = 28962329
REMARK  10 active torsions:
REMARK  status: ('A' for Active; 'I' for Inactive)
REMARK    1  A    between atoms: O_3  and  C_11
REMARK    2  A    between atoms: O_4  and  C_14
REMARK    3  A    between atoms: N_6  and  C_9
REMARK    4  A    between atoms: N_6  and  C_15
REMARK    5  A    between atoms: N_6  and  C_16
REMARK    6  A    between atoms: N_7  and  C_13
REMARK    7  A    between atoms: N_8  and  C_24
REMARK    8  A    between atoms: C_10  and  C_13
REMARK    9  A    between atoms: C_12  and  C_14
REMARK   10  A    between atoms: C_15  and  C_17
REMARK                            x       y       z     vdW  Elec       q    Type
REMARK                         _______ _______ _______ _____ _____    ______ ____
ROOT
ATOM      2  O   UNL     1      -7.130  -8.694   9.954  0.00  0.00    -0.365 OA
ATOM      9  C   UNL     1      -8.900  -9.734  11.132  0.00  0.00    +0.118 C 
ATOM     10  C   UNL     1      -7.394  -9.499  11.117  0.00  0.00    +0.155 C 
ATOM     11  C   UNL     1      -9.404  -8.410  10.588  0.00  0.00    +0.165 C 
ATOM     12  C   UNL     1      -8.363  -8.089   9.516  0.00  0.00    +0.174 C 
ENDROOT
BRANCH  11   3
ATOM      3  O   UNL     1     -10.719  -8.514  10.086  0.00  0.00    -0.388 OA
ATOM     30  H   UNL     1     -10.655  -8.750   9.145  0.00  0.00    +0.210 HD
ENDBRANCH  11   3
BRANCH   9   6
ATOM      6  N   UNL     1      -9.416 -10.037  12.457  0.00  0.00    -0.293 NA
ATOM     16  C   UNL     1     -10.674 -10.781  12.365  0.00  0.00    +0.105 C 
BRANCH   6  15
ATOM     15  C   UNL     1      -9.611  -8.807  13.229  0.00  0.00    +0.119 C 
BRANCH  15  17
ATOM     17  C   UNL     1      -9.261  -8.996  14.682  0.00  0.00    -0.033 A 
ATOM     19  C   UNL     1      -8.234  -9.868  15.044  0.00  0.00    +0.005 A 
ATOM     20  C   UNL     1      -9.962  -8.297  15.664  0.00  0.00    +0.005 A 
ATOM     21  C   UNL     1      -7.909 -10.042  16.389  0.00  0.00    +0.000 A 
ATOM     22  C   UNL     1      -9.638  -8.472  17.010  0.00  0.00    +0.000 A 
ATOM     23  C   UNL     1      -8.611  -9.344  17.373  0.00  0.00    +0.000 A 
ENDBRANCH  15  17
ENDBRANCH   6  15
ENDBRANCH   9   6
BRANCH  10  13
ATOM     13  C   UNL     1      -6.571 -10.774  11.058  0.00  0.00    +0.139 C 
BRANCH  13   7
ATOM      5  O   UNL     1      -4.955 -10.008  13.295  0.00  0.00    -0.253 OA
ATOM      7  N   UNL     1      -5.165 -10.488  11.043  0.00  0.00    -0.297 N 
ATOM      8  N   UNL     1      -3.095  -9.903  11.867  0.00  0.00    -0.269 N 
ATOM     18  C   UNL     1      -4.438 -10.117  12.186  0.00  0.00    +0.304 C 
ATOM     31  H   UNL     1      -4.669 -10.572  10.161  0.00  0.00    +0.150 HD
ATOM     33  H   UNL     1      -2.830 -10.039  10.895  0.00  0.00    +0.156 HD
BRANCH   8  24
ATOM      1 CL   UNL     1       1.158  -7.128  12.628  0.00  0.00    -0.083 Cl
ATOM     24  C   UNL     1      -2.047  -9.519  12.737  0.00  0.00    +0.036 A 
ATOM     25  C   UNL     1      -1.075  -8.618  12.303  0.00  0.00    +0.043 A 
ATOM     26  C   UNL     1      -1.988 -10.042  14.029  0.00  0.00    +0.023 A 
ATOM     27  C   UNL     1      -0.043  -8.239  13.162  0.00  0.00    +0.043 A 
ATOM     28  C   UNL     1      -0.956  -9.663  14.887  0.00  0.00    +0.003 A 
ATOM     29  C   UNL     1       0.017  -8.761  14.454  0.00  0.00    +0.020 A 
ENDBRANCH   8  24
ENDBRANCH  13   7
ENDBRANCH  10  13
BRANCH  12  14
ATOM     14  C   UNL     1      -8.680  -8.623   8.125  0.00  0.00    +0.190 C 
BRANCH  14   4
ATOM      4  O   UNL     1      -8.605 -10.037   8.154  0.00  0.00    -0.392 OA
ATOM     32  H   UNL     1      -9.418 -10.376   7.744  0.00  0.00    +0.210 HD
ENDBRANCH  14   4
ENDBRANCH  12  14
TORSDOF 9
ENDMDL
MODEL 6
REMARK VINA RESULT:       0.3     14.071     15.949
REMARK  Name = 28962329
REMARK  10 active torsions:
REMARK  status: ('A' for Active; 'I' for Inactive)
REMARK    1  A    between atoms: O_3  and  C_11
REMARK    2  A    between atoms: O_4  and  C_14
REMARK    3  A    between atoms: N_6  and  C_9
REMARK    4  A    between atoms: N_6  and  C_15
REMARK    5  A    between atoms: N_6  and  C_16
REMARK    6  A    between atoms: N_7  and  C_13
REMARK    7  A    between atoms: N_8  and  C_24
REMARK    8  A    between atoms: C_10  and  C_13
REMARK    9  A    between atoms: C_12  and  C_14
REMARK   10  A    between atoms: C_15  and  C_17
REMARK                            x       y       z     vdW  Elec       q    Type
REMARK                         _______ _______ _______ _____ _____    ______ ____
ROOT
ATOM      2  O   UNL     1      -3.489  -8.678  10.525  0.00  0.00    -0.365 OA
ATOM      9  C   UNL     1      -4.847  -9.914  12.017  0.00  0.00    +0.118 C 
ATOM     10  C   UNL     1      -3.480  -9.263  11.840  0.00  0.00    +0.155 C 
ATOM     11  C   UNL     1      -5.732  -8.935  11.269  0.00  0.00    +0.165 C 
ATOM     12  C   UNL     1      -4.853  -8.558  10.076  0.00  0.00    +0.174 C 
ENDROOT
BRANCH  11   3
ATOM      3  O   UNL     1      -6.965  -9.515  10.901  0.00  0.00    -0.388 OA
ATOM     30  H   UNL     1      -7.502  -8.821  10.482  0.00  0.00    +0.210 HD
ENDBRANCH  11   3
BRANCH   9   6
ATOM      6  N   UNL     1      -5.226 -10.069  13.412  0.00  0.00    -0.293 NA
ATOM     16  C   UNL     1      -4.183 -10.779  14.156  0.00  0.00    +0.105 C 
BRANCH   6  15
ATOM     15  C   UNL     1      -6.502 -10.781  13.526  0.00  0.00    +0.119 C 
BRANCH  15  17
ATOM     17  C   UNL     1      -7.402 -10.157  14.559  0.00  0.00    -0.033 A 
ATOM     19  C   UNL     1      -8.733  -9.878  14.247  0.00  0.00    +0.005 A 
ATOM     20  C   UNL     1      -6.905  -9.858  15.827  0.00  0.00    +0.005 A 
ATOM     21  C   UNL     1      -9.567  -9.300  15.204  0.00  0.00    +0.000 A 
ATOM     22  C   UNL     1      -7.739  -9.279  16.784  0.00  0.00    +0.000 A 
ATOM     23  C   UNL     1      -9.070  -9.000  16.473  0.00  0.00    +0.000 A 
ENDBRANCH  15  17
ENDBRANCH   6  15
ENDBRANCH   9   6
BRANCH  10  13
ATOM     13  C   UNL     1      -2.316 -10.230  11.964  0.00  0.00    +0.139 C 
BRANCH  13   7
ATOM      5  O   UNL     1      -0.595  -8.345  13.264  0.00  0.00    -0.253 OA
ATOM      7  N   UNL     1      -1.108  -9.664  11.435  0.00  0.00    -0.297 N 
ATOM      8  N   UNL     1       0.795  -8.368  11.373  0.00  0.00    -0.269 N 
ATOM     18  C   UNL     1      -0.314  -8.742  12.136  0.00  0.00    +0.304 C 
ATOM     31  H   UNL     1      -0.807  -9.958  10.511  0.00  0.00    +0.150 HD
ATOM     33  H   UNL     1       0.880  -8.793  10.453  0.00  0.00    +0.156 HD
BRANCH   8  24
ATOM      1 CL   UNL     1       5.781  -7.573  12.310  0.00  0.00    -0.083 Cl
ATOM     24  C   UNL     1       1.826  -7.464  11.724  0.00  0.00    +0.036 A 
ATOM     25  C   UNL     1       3.142  -7.913  11.831  0.00  0.00    +0.043 A 
ATOM     26  C   UNL     1       1.524  -6.123  11.960  0.00  0.00    +0.023 A 
ATOM     27  C   UNL     1       4.157  -7.020  12.176  0.00  0.00    +0.043 A 
ATOM     28  C   UNL     1       2.539  -5.230  12.304  0.00  0.00    +0.003 A 
ATOM     29  C   UNL     1       3.856  -5.679  12.412  0.00  0.00    +0.020 A 
ENDBRANCH   8  24
ENDBRANCH  13   7
ENDBRANCH  10  13
BRANCH  12  14
ATOM     14  C   UNL     1      -5.021  -9.439   8.844  0.00  0.00    +0.190 C 
BRANCH  14   4
ATOM      4  O   UNL     1      -6.189  -9.033   8.153  0.00  0.00    -0.392 OA
ATOM     32  H   UNL     1      -5.902  -8.629   7.317  0.00  0.00    +0.210 HD
ENDBRANCH  14   4
ENDBRANCH  12  14
TORSDOF 9
ENDMDL
