MODEL 1
REMARK VINA RESULT:      -5.2      0.000      0.000
REMARK  Name = 11912809
REMARK  7 active torsions:
REMARK  status: ('A' for Active; 'I' for Inactive)
REMARK    1  A    between atoms: O_3  and  C_12
REMARK    2  A    between atoms: O_3  and  C_16
REMARK    3  A    between atoms: O_4  and  C_17
REMARK    4  A    between atoms: O_4  and  C_24
REMARK    5  A    between atoms: N_6  and  C_11
REMARK    6  A    between atoms: C_16  and  C_17
REMARK    7  A    between atoms: C_18  and  C_21
REMARK                            x       y       z     vdW  Elec       q    Type
REMARK                         _______ _______ _______ _____ _____    ______ ____
ROOT
ATOM      6  N   UNL     1      -3.630   4.191  24.576  0.00  0.00    -0.306 N 
ATOM      7  N   UNL     1      -3.978   1.879  24.788  0.00  0.00    -0.214 NA
ATOM      8  N   UNL     1      -5.690   3.453  25.422  0.00  0.00    -0.223 NA
ATOM     15  C   UNL     1      -4.457   3.143  24.939  0.00  0.00    +0.216 A 
ATOM     18  C   UNL     1      -4.811   0.883  25.152  0.00  0.00    +0.076 A 
ATOM     19  C   UNL     1      -6.471   2.408  25.766  0.00  0.00    +0.116 A 
ATOM     20  C   UNL     1      -6.081   1.088  25.652  0.00  0.00    +0.048 A 
ATOM     28  H   UNL     1      -3.977   5.128  24.742  0.00  0.00    +0.149 HD
ENDROOT
BRANCH   6  11
ATOM      1  O   UNL     1      -0.809   4.446  25.859  0.00  0.00    -0.369 OA
ATOM      2  O   UNL     1      -0.624   2.300  23.674  0.00  0.00    -0.369 OA
ATOM      9  C   UNL     1      -1.713   2.702  24.531  0.00  0.00    +0.172 C 
ATOM     10  C   UNL     1      -1.109   3.041  25.879  0.00  0.00    +0.180 C 
ATOM     11  C   UNL     1      -2.293   4.011  24.051  0.00  0.00    +0.130 C 
ATOM     12  C   UNL     1       0.147   2.202  25.896  0.00  0.00    +0.176 C 
ATOM     13  C   UNL     1      -1.345   5.029  24.661  0.00  0.00    +0.185 C 
ATOM     14  C   UNL     1       0.584   2.253  24.450  0.00  0.00    +0.194 C 
BRANCH  12   3
ATOM      3  O   UNL     1       1.140   2.692  26.768  0.00  0.00    -0.360 OA
BRANCH   3  16
ATOM     16  C   UNL     1       0.859   2.372  28.129  0.00  0.00    +0.280 C 
BRANCH  16  17
ATOM      5  O   UNL     1       3.132   3.106  28.539  0.00  0.00    -0.248 OA
ATOM     17  C   UNL     1       2.112   2.565  28.942  0.00  0.00    +0.333 C 
BRANCH  17   4
ATOM      4  O   UNL     1       1.918   2.042  30.189  0.00  0.00    -0.466 OA
ATOM     24  C   UNL     1       0.772   2.534  30.891  0.00  0.00    +0.280 C 
ENDBRANCH  17   4
ENDBRANCH  16  17
ENDBRANCH   3  16
ENDBRANCH  12   3
ENDBRANCH   6  11
BRANCH  18  21
ATOM     21  C   UNL     1      -4.283  -0.449  24.984  0.00  0.00    +0.001 A 
ATOM     22  C   UNL     1      -4.613  -1.197  23.851  0.00  0.00    +0.010 A 
ATOM     23  C   UNL     1      -3.439  -0.997  25.953  0.00  0.00    +0.010 A 
ATOM     25  C   UNL     1      -4.101  -2.485  23.689  0.00  0.00    +0.001 A 
ATOM     26  C   UNL     1      -2.928  -2.285  25.791  0.00  0.00    +0.001 A 
ATOM     27  C   UNL     1      -3.260  -3.029  24.659  0.00  0.00    +0.000 A 
ENDBRANCH  18  21
TORSDOF 6
ENDMDL
MODEL 2
REMARK VINA RESULT:      -4.9     16.098     18.576
REMARK  Name = 11912809
REMARK  7 active torsions:
REMARK  status: ('A' for Active; 'I' for Inactive)
REMARK    1  A    between atoms: O_3  and  C_12
REMARK    2  A    between atoms: O_3  and  C_16
REMARK    3  A    between atoms: O_4  and  C_17
REMARK    4  A    between atoms: O_4  and  C_24
REMARK    5  A    between atoms: N_6  and  C_11
REMARK    6  A    between atoms: C_16  and  C_17
REMARK    7  A    between atoms: C_18  and  C_21
REMARK                            x       y       z     vdW  Elec       q    Type
REMARK                         _______ _______ _______ _____ _____    ______ ____
ROOT
ATOM      6  N   UNL     1      -5.007 -10.632  13.496  0.00  0.00    -0.306 N 
ATOM      7  N   UNL     1      -6.486 -10.195  15.265  0.00  0.00    -0.214 NA
ATOM      8  N   UNL     1      -4.134 -10.521  15.671  0.00  0.00    -0.223 NA
ATOM     15  C   UNL     1      -5.215 -10.443  14.851  0.00  0.00    +0.216 A 
ATOM     18  C   UNL     1      -6.653 -10.016  16.591  0.00  0.00    +0.076 A 
ATOM     19  C   UNL     1      -4.372 -10.332  16.985  0.00  0.00    +0.116 A 
ATOM     20  C   UNL     1      -5.623 -10.074  17.509  0.00  0.00    +0.048 A 
ATOM     28  H   UNL     1      -4.065 -10.869  13.206  0.00  0.00    +0.149 HD
ENDROOT
BRANCH   6  11
ATOM      1  O   UNL     1      -6.302  -8.289  11.914  0.00  0.00    -0.369 OA
ATOM      2  O   UNL     1      -6.438 -10.779  10.126  0.00  0.00    -0.369 OA
ATOM      9  C   UNL     1      -5.484 -10.373  11.130  0.00  0.00    +0.172 C 
ATOM     10  C   UNL     1      -5.341  -8.868  11.016  0.00  0.00    +0.180 C 
ATOM     11  C   UNL     1      -6.064 -10.581  12.509  0.00  0.00    +0.130 C 
ATOM     12  C   UNL     1      -5.703  -8.614   9.571  0.00  0.00    +0.176 C 
ATOM     13  C   UNL     1      -6.904  -9.330  12.700  0.00  0.00    +0.185 C 
ATOM     14  C   UNL     1      -6.788  -9.638   9.329  0.00  0.00    +0.194 C 
BRANCH  12   3
ATOM      3  O   UNL     1      -6.149  -7.300   9.326  0.00  0.00    -0.360 OA
BRANCH   3  16
ATOM     16  C   UNL     1      -7.472  -7.276   8.797  0.00  0.00    +0.280 C 
BRANCH  16  17
ATOM      5  O   UNL     1      -7.040  -4.936   8.337  0.00  0.00    -0.248 OA
ATOM     17  C   UNL     1      -7.839  -5.853   8.467  0.00  0.00    +0.333 C 
BRANCH  17   4
ATOM      4  O   UNL     1      -9.195  -5.762   8.337  0.00  0.00    -0.466 OA
ATOM     24  C   UNL     1      -9.939  -6.865   8.863  0.00  0.00    +0.280 C 
ENDBRANCH  17   4
ENDBRANCH  16  17
ENDBRANCH   3  16
ENDBRANCH  12   3
ENDBRANCH   6  11
BRANCH  18  21
ATOM     21  C   UNL     1      -8.009  -9.753  17.009  0.00  0.00    +0.001 A 
ATOM     22  C   UNL     1      -8.745 -10.742  17.665  0.00  0.00    +0.010 A 
ATOM     23  C   UNL     1      -8.591  -8.508  16.758  0.00  0.00    +0.010 A 
ATOM     25  C   UNL     1     -10.056 -10.487  18.068  0.00  0.00    +0.001 A 
ATOM     26  C   UNL     1      -9.902  -8.253  17.161  0.00  0.00    +0.001 A 
ATOM     27  C   UNL     1     -10.634  -9.244  17.816  0.00  0.00    +0.000 A 
ENDBRANCH  18  21
TORSDOF 6
ENDMDL
MODEL 3
REMARK VINA RESULT:      -3.7      2.282      3.782
REMARK  Name = 11912809
REMARK  7 active torsions:
REMARK  status: ('A' for Active; 'I' for Inactive)
REMARK    1  A    between atoms: O_3  and  C_12
REMARK    2  A    between atoms: O_3  and  C_16
REMARK    3  A    between atoms: O_4  and  C_17
REMARK    4  A    between atoms: O_4  and  C_24
REMARK    5  A    between atoms: N_6  and  C_11
REMARK    6  A    between atoms: C_16  and  C_17
REMARK    7  A    between atoms: C_18  and  C_21
REMARK                            x       y       z     vdW  Elec       q    Type
REMARK                         _______ _______ _______ _____ _____    ______ ____
ROOT
ATOM      6  N   UNL     1      -2.877   4.161  25.619  0.00  0.00    -0.306 N 
ATOM      7  N   UNL     1      -3.542   1.931  25.309  0.00  0.00    -0.214 NA
ATOM      8  N   UNL     1      -5.174   3.690  25.533  0.00  0.00    -0.223 NA
ATOM     15  C   UNL     1      -3.895   3.233  25.483  0.00  0.00    +0.216 A 
ATOM     18  C   UNL     1      -4.559   1.054  25.180  0.00  0.00    +0.076 A 
ATOM     19  C   UNL     1      -6.141   2.759  25.396  0.00  0.00    +0.116 A 
ATOM     20  C   UNL     1      -5.891   1.414  25.215  0.00  0.00    +0.048 A 
ATOM     28  H   UNL     1      -3.153   5.119  25.801  0.00  0.00    +0.149 HD
ENDROOT
BRANCH   6  11
ATOM      1  O   UNL     1      -1.373   1.445  25.447  0.00  0.00    -0.369 OA
ATOM      2  O   UNL     1       0.376   3.544  24.052  0.00  0.00    -0.369 OA
ATOM      9  C   UNL     1      -1.055   3.431  24.191  0.00  0.00    +0.172 C 
ATOM     10  C   UNL     1      -1.390   1.955  24.104  0.00  0.00    +0.180 C 
ATOM     11  C   UNL     1      -1.472   3.818  25.589  0.00  0.00    +0.130 C 
ATOM     12  C   UNL     1      -0.245   1.408  23.284  0.00  0.00    +0.176 C 
ATOM     13  C   UNL     1      -1.225   2.537  26.368  0.00  0.00    +0.185 C 
ATOM     14  C   UNL     1       0.919   2.247  23.761  0.00  0.00    +0.194 C 
BRANCH  12   3
ATOM      3  O   UNL     1      -0.022   0.030  23.479  0.00  0.00    -0.360 OA
BRANCH   3  16
ATOM     16  C   UNL     1       1.369  -0.287  23.500  0.00  0.00    +0.280 C 
BRANCH  16  17
ATOM      5  O   UNL     1       1.368  -0.618  21.099  0.00  0.00    -0.248 OA
ATOM     17  C   UNL     1       1.914  -0.176  22.100  0.00  0.00    +0.333 C 
BRANCH  17   4
ATOM      4  O   UNL     1       3.104   0.493  22.139  0.00  0.00    -0.466 OA
ATOM     24  C   UNL     1       4.045   0.020  23.106  0.00  0.00    +0.280 C 
ENDBRANCH  17   4
ENDBRANCH  16  17
ENDBRANCH   3  16
ENDBRANCH  12   3
ENDBRANCH   6  11
BRANCH  18  21
ATOM     21  C   UNL     1      -4.162  -0.321  24.996  0.00  0.00    +0.001 A 
ATOM     22  C   UNL     1      -3.474  -0.993  26.008  0.00  0.00    +0.010 A 
ATOM     23  C   UNL     1      -4.465  -0.985  23.805  0.00  0.00    +0.010 A 
ATOM     25  C   UNL     1      -3.091  -2.323  25.831  0.00  0.00    +0.001 A 
ATOM     26  C   UNL     1      -4.083  -2.314  23.628  0.00  0.00    +0.001 A 
ATOM     27  C   UNL     1      -3.395  -2.983  24.641  0.00  0.00    +0.000 A 
ENDBRANCH  18  21
TORSDOF 6
ENDMDL
MODEL 4
REMARK VINA RESULT:      -3.0      3.113      5.518
REMARK  Name = 11912809
REMARK  7 active torsions:
REMARK  status: ('A' for Active; 'I' for Inactive)
REMARK    1  A    between atoms: O_3  and  C_12
REMARK    2  A    between atoms: O_3  and  C_16
REMARK    3  A    between atoms: O_4  and  C_17
REMARK    4  A    between atoms: O_4  and  C_24
REMARK    5  A    between atoms: N_6  and  C_11
REMARK    6  A    between atoms: C_16  and  C_17
REMARK    7  A    between atoms: C_18  and  C_21
REMARK                            x       y       z     vdW  Elec       q    Type
REMARK                         _______ _______ _______ _____ _____    ______ ____
ROOT
ATOM      6  N   UNL     1      -4.495  -0.937  25.539  0.00  0.00    -0.306 N 
ATOM      7  N   UNL     1      -3.540   1.173  25.158  0.00  0.00    -0.214 NA
ATOM      8  N   UNL     1      -5.919   0.837  24.965  0.00  0.00    -0.223 NA
ATOM     15  C   UNL     1      -4.656   0.397  25.211  0.00  0.00    +0.216 A 
ATOM     18  C   UNL     1      -3.735   2.468  24.836  0.00  0.00    +0.076 A 
ATOM     19  C   UNL     1      -6.041   2.143  24.650  0.00  0.00    +0.116 A 
ATOM     20  C   UNL     1      -4.974   3.015  24.568  0.00  0.00    +0.048 A 
ATOM     28  H   UNL     1      -5.327  -1.517  25.524  0.00  0.00    +0.149 HD
ENDROOT
BRANCH   6  11
ATOM      1  O   UNL     1      -2.153  -1.865  23.715  0.00  0.00    -0.369 OA
ATOM      2  O   UNL     1      -0.929  -0.964  26.381  0.00  0.00    -0.369 OA
ATOM      9  C   UNL     1      -2.107  -0.525  25.672  0.00  0.00    +0.172 C 
ATOM     10  C   UNL     1      -1.769  -0.566  24.194  0.00  0.00    +0.180 C 
ATOM     11  C   UNL     1      -3.211  -1.543  25.822  0.00  0.00    +0.130 C 
ATOM     12  C   UNL     1      -0.269  -0.392  24.196  0.00  0.00    +0.176 C 
ATOM     13  C   UNL     1      -2.862  -2.562  24.752  0.00  0.00    +0.185 C 
ATOM     14  C   UNL     1       0.139  -1.149  25.439  0.00  0.00    +0.194 C 
BRANCH  12   3
ATOM      3  O   UNL     1       0.357  -0.895  23.039  0.00  0.00    -0.360 OA
BRANCH   3  16
ATOM     16  C   UNL     1       1.238   0.060  22.450  0.00  0.00    +0.280 C 
BRANCH  16  17
ATOM      5  O   UNL     1       3.037  -1.312  23.321  0.00  0.00    -0.248 OA
ATOM     17  C   UNL     1       2.644  -0.230  22.906  0.00  0.00    +0.333 C 
BRANCH  17   4
ATOM      4  O   UNL     1       3.395   0.903  22.778  0.00  0.00    -0.466 OA
ATOM     24  C   UNL     1       4.767   0.780  23.166  0.00  0.00    +0.280 C 
ENDBRANCH  17   4
ENDBRANCH  16  17
ENDBRANCH   3  16
ENDBRANCH  12   3
ENDBRANCH   6  11
BRANCH  18  21
ATOM     21  C   UNL     1      -2.538   3.273  24.785  0.00  0.00    +0.001 A 
ATOM     22  C   UNL     1      -2.546   4.575  25.290  0.00  0.00    +0.010 A 
ATOM     23  C   UNL     1      -1.367   2.753  24.229  0.00  0.00    +0.010 A 
ATOM     25  C   UNL     1      -1.389   5.352  25.241  0.00  0.00    +0.001 A 
ATOM     26  C   UNL     1      -0.209   3.530  24.180  0.00  0.00    +0.001 A 
ATOM     27  C   UNL     1      -0.222   4.831  24.685  0.00  0.00    +0.000 A 
ENDBRANCH  18  21
TORSDOF 6
ENDMDL
MODEL 5
REMARK VINA RESULT:      -2.9      2.920      5.317
REMARK  Name = 11912809
REMARK  7 active torsions:
REMARK  status: ('A' for Active; 'I' for Inactive)
REMARK    1  A    between atoms: O_3  and  C_12
REMARK    2  A    between atoms: O_3  and  C_16
REMARK    3  A    between atoms: O_4  and  C_17
REMARK    4  A    between atoms: O_4  and  C_24
REMARK    5  A    between atoms: N_6  and  C_11
REMARK    6  A    between atoms: C_16  and  C_17
REMARK    7  A    between atoms: C_18  and  C_21
REMARK                            x       y       z     vdW  Elec       q    Type
REMARK                         _______ _______ _______ _____ _____    ______ ____
ROOT
ATOM      6  N   UNL     1      -5.358  -0.294  24.661  0.00  0.00    -0.306 N 
ATOM      7  N   UNL     1      -4.038   1.641  24.810  0.00  0.00    -0.214 NA
ATOM      8  N   UNL     1      -6.243   1.570  25.779  0.00  0.00    -0.223 NA
ATOM     15  C   UNL     1      -5.208   1.011  25.096  0.00  0.00    +0.216 A 
ATOM     18  C   UNL     1      -3.926   2.911  25.250  0.00  0.00    +0.076 A 
ATOM     19  C   UNL     1      -6.064   2.842  26.190  0.00  0.00    +0.116 A 
ATOM     20  C   UNL     1      -4.916   3.571  25.951  0.00  0.00    +0.048 A 
ATOM     28  H   UNL     1      -6.254  -0.735  24.834  0.00  0.00    +0.149 HD
ENDROOT
BRANCH   6  11
ATOM      1  O   UNL     1      -2.363   0.298  24.073  0.00  0.00    -0.369 OA
ATOM      2  O   UNL     1      -2.682  -2.751  24.191  0.00  0.00    -0.369 OA
ATOM      9  C   UNL     1      -3.383  -1.689  24.871  0.00  0.00    +0.172 C 
ATOM     10  C   UNL     1      -2.358  -0.616  25.182  0.00  0.00    +0.180 C 
ATOM     11  C   UNL     1      -4.343  -1.013  23.922  0.00  0.00    +0.130 C 
ATOM     12  C   UNL     1      -1.071  -1.403  25.252  0.00  0.00    +0.176 C 
ATOM     13  C   UNL     1      -3.440  -0.040  23.184  0.00  0.00    +0.185 C 
ATOM     14  C   UNL     1      -1.278  -2.450  24.181  0.00  0.00    +0.194 C 
BRANCH  12   3
ATOM      3  O   UNL     1       0.079  -0.623  25.017  0.00  0.00    -0.360 OA
BRANCH   3  16
ATOM     16  C   UNL     1       0.489  -0.676  23.652  0.00  0.00    +0.280 C 
BRANCH  16  17
ATOM      5  O   UNL     1       1.496   1.501  24.000  0.00  0.00    -0.248 OA
ATOM     17  C   UNL     1       1.470   0.438  23.395  0.00  0.00    +0.333 C 
BRANCH  17   4
ATOM      4  O   UNL     1       2.313   0.065  22.388  0.00  0.00    -0.466 OA
ATOM     24  C   UNL     1       3.651   0.561  22.490  0.00  0.00    +0.280 C 
ENDBRANCH  17   4
ENDBRANCH  16  17
ENDBRANCH   3  16
ENDBRANCH  12   3
ENDBRANCH   6  11
BRANCH  18  21
ATOM     21  C   UNL     1      -2.677   3.561  24.935  0.00  0.00    +0.001 A 
ATOM     22  C   UNL     1      -2.434   4.865  25.373  0.00  0.00    +0.010 A 
ATOM     23  C   UNL     1      -1.705   2.888  24.191  0.00  0.00    +0.010 A 
ATOM     25  C   UNL     1      -1.225   5.492  25.069  0.00  0.00    +0.001 A 
ATOM     26  C   UNL     1      -0.497   3.515  23.887  0.00  0.00    +0.001 A 
ATOM     27  C   UNL     1      -0.258   4.818  24.326  0.00  0.00    +0.000 A 
ENDBRANCH  18  21
TORSDOF 6
ENDMDL
MODEL 6
REMARK VINA RESULT:      -2.2      2.876      5.540
REMARK  Name = 11912809
REMARK  7 active torsions:
REMARK  status: ('A' for Active; 'I' for Inactive)
REMARK    1  A    between atoms: O_3  and  C_12
REMARK    2  A    between atoms: O_3  and  C_16
REMARK    3  A    between atoms: O_4  and  C_17
REMARK    4  A    between atoms: O_4  and  C_24
REMARK    5  A    between atoms: N_6  and  C_11
REMARK    6  A    between atoms: C_16  and  C_17
REMARK    7  A    between atoms: C_18  and  C_21
REMARK                            x       y       z     vdW  Elec       q    Type
REMARK                         _______ _______ _______ _____ _____    ______ ____
ROOT
ATOM      6  N   UNL     1       0.928   3.029  24.438  0.00  0.00    -0.306 N 
ATOM      7  N   UNL     1      -0.233   0.991  24.529  0.00  0.00    -0.214 NA
ATOM      8  N   UNL     1       1.701   1.252  23.115  0.00  0.00    -0.223 NA
ATOM     15  C   UNL     1       0.794   1.718  24.015  0.00  0.00    +0.216 A 
ATOM     18  C   UNL     1      -0.333  -0.282  24.095  0.00  0.00    +0.076 A 
ATOM     19  C   UNL     1       1.542  -0.030  22.724  0.00  0.00    +0.116 A 
ATOM     20  C   UNL     1       0.534  -0.853  23.185  0.00  0.00    +0.048 A 
ATOM     28  H   UNL     1       1.665   3.577  24.008  0.00  0.00    +0.149 HD
ENDROOT
BRANCH   6  11
ATOM      1  O   UNL     1      -1.805   4.478  24.124  0.00  0.00    -0.369 OA
ATOM      2  O   UNL     1      -1.791   3.150  26.890  0.00  0.00    -0.369 OA
ATOM      9  C   UNL     1      -1.162   2.777  25.647  0.00  0.00    +0.172 C 
ATOM     10  C   UNL     1      -2.130   3.141  24.538  0.00  0.00    +0.180 C 
ATOM     11  C   UNL     1       0.036   3.658  25.388  0.00  0.00    +0.130 C 
ATOM     12  C   UNL     1      -3.467   3.082  25.239  0.00  0.00    +0.176 C 
ATOM     13  C   UNL     1      -0.597   4.896  24.778  0.00  0.00    +0.185 C 
ATOM     14  C   UNL     1      -3.128   3.600  26.618  0.00  0.00    +0.194 C 
BRANCH  12   3
ATOM      3  O   UNL     1      -4.465   3.854  24.613  0.00  0.00    -0.360 OA
BRANCH   3  16
ATOM     16  C   UNL     1      -5.644   3.951  25.409  0.00  0.00    +0.280 C 
BRANCH  16  17
ATOM      5  O   UNL     1      -6.305   2.182  26.929  0.00  0.00    -0.248 OA
ATOM     17  C   UNL     1      -6.091   2.562  25.787  0.00  0.00    +0.333 C 
BRANCH  17   4
ATOM      4  O   UNL     1      -6.216   1.812  24.652  0.00  0.00    -0.466 OA
ATOM     24  C   UNL     1      -5.470   0.591  24.636  0.00  0.00    +0.280 C 
ENDBRANCH  17   4
ENDBRANCH  16  17
ENDBRANCH   3  16
ENDBRANCH  12   3
ENDBRANCH   6  11
BRANCH  18  21
ATOM     21  C   UNL     1      -1.429  -1.036  24.654  0.00  0.00    +0.001 A 
ATOM     22  C   UNL     1      -2.101  -0.564  25.784  0.00  0.00    +0.010 A 
ATOM     23  C   UNL     1      -1.822  -2.241  24.066  0.00  0.00    +0.010 A 
ATOM     25  C   UNL     1      -3.162  -1.294  26.322  0.00  0.00    +0.001 A 
ATOM     26  C   UNL     1      -2.883  -2.970  24.605  0.00  0.00    +0.001 A 
ATOM     27  C   UNL     1      -3.551  -2.496  25.734  0.00  0.00    +0.000 A 
ENDBRANCH  18  21
TORSDOF 6
ENDMDL
MODEL 7
REMARK VINA RESULT:      -1.4      2.201      4.964
REMARK  Name = 11912809
REMARK  7 active torsions:
REMARK  status: ('A' for Active; 'I' for Inactive)
REMARK    1  A    between atoms: O_3  and  C_12
REMARK    2  A    between atoms: O_3  and  C_16
REMARK    3  A    between atoms: O_4  and  C_17
REMARK    4  A    between atoms: O_4  and  C_24
REMARK    5  A    between atoms: N_6  and  C_11
REMARK    6  A    between atoms: C_16  and  C_17
REMARK    7  A    between atoms: C_18  and  C_21
REMARK                            x       y       z     vdW  Elec       q    Type
REMARK                         _______ _______ _______ _____ _____    ______ ____
ROOT
ATOM      6  N   UNL     1      -5.392  -0.236  24.731  0.00  0.00    -0.306 N 
ATOM      7  N   UNL     1      -4.102   1.725  24.771  0.00  0.00    -0.214 NA
ATOM      8  N   UNL     1      -6.223   1.615  25.909  0.00  0.00    -0.223 NA
ATOM     15  C   UNL     1      -5.234   1.073  25.149  0.00  0.00    +0.216 A 
ATOM     18  C   UNL     1      -3.981   2.999  25.197  0.00  0.00    +0.076 A 
ATOM     19  C   UNL     1      -6.037   2.892  26.301  0.00  0.00    +0.116 A 
ATOM     20  C   UNL     1      -4.926   3.642  25.972  0.00  0.00    +0.048 A 
ATOM     28  H   UNL     1      -6.263  -0.693  24.974  0.00  0.00    +0.149 HD
ENDROOT
BRANCH   6  11
ATOM      1  O   UNL     1      -2.314   0.051  24.398  0.00  0.00    -0.369 OA
ATOM      2  O   UNL     1      -3.008  -2.900  23.930  0.00  0.00    -0.369 OA
ATOM      9  C   UNL     1      -3.620  -1.895  24.764  0.00  0.00    +0.172 C 
ATOM     10  C   UNL     1      -2.496  -1.039  25.315  0.00  0.00    +0.180 C 
ATOM     11  C   UNL     1      -4.423  -0.938  23.916  0.00  0.00    +0.130 C 
ATOM     12  C   UNL     1      -1.321  -1.989  25.295  0.00  0.00    +0.176 C 
ATOM     13  C   UNL     1      -3.360   0.023  23.414  0.00  0.00    +0.185 C 
ATOM     14  C   UNL     1      -1.581  -2.790  24.039  0.00  0.00    +0.194 C 
BRANCH  12   3
ATOM      3  O   UNL     1      -0.072  -1.338  25.261  0.00  0.00    -0.360 OA
BRANCH   3  16
ATOM     16  C   UNL     1       0.065  -0.507  24.111  0.00  0.00    +0.280 C 
BRANCH  16  17
ATOM      5  O   UNL     1       1.374   1.530  23.989  0.00  0.00    -0.248 OA
ATOM     17  C   UNL     1       0.518   0.861  24.551  0.00  0.00    +0.333 C 
BRANCH  17   4
ATOM      4  O   UNL     1      -0.182   1.223  25.666  0.00  0.00    -0.466 OA
ATOM     24  C   UNL     1       0.292   2.395  26.337  0.00  0.00    +0.280 C 
ENDBRANCH  17   4
ENDBRANCH  16  17
ENDBRANCH   3  16
ENDBRANCH  12   3
ENDBRANCH   6  11
BRANCH  18  21
ATOM     21  C   UNL     1      -2.773   3.671  24.785  0.00  0.00    +0.001 A 
ATOM     22  C   UNL     1      -2.030   3.182  23.708  0.00  0.00    +0.010 A 
ATOM     23  C   UNL     1      -2.340   4.813  25.462  0.00  0.00    +0.010 A 
ATOM     25  C   UNL     1      -0.862   3.832  23.309  0.00  0.00    +0.001 A 
ATOM     26  C   UNL     1      -1.173   5.464  25.064  0.00  0.00    +0.001 A 
ATOM     27  C   UNL     1      -0.433   4.972  23.987  0.00  0.00    +0.000 A 
ENDBRANCH  18  21
TORSDOF 6
ENDMDL
