MODEL 1
REMARK VINA RESULT:       8.7      0.000      0.000
REMARK  Name = 11885041
REMARK  15 active torsions:
REMARK  status: ('A' for Active; 'I' for Inactive)
REMARK    1  A    between atoms: O_2  and  C_16
REMARK    2  A    between atoms: O_3  and  C_21
REMARK    3  A    between atoms: N_8  and  C_27
REMARK    4  A    between atoms: N_10  and  C_29
REMARK    5  A    between atoms: C_11  and  C_19
REMARK    6  A    between atoms: C_13  and  C_21
REMARK    7  A    between atoms: C_13  and  C_22
REMARK    8  A    between atoms: C_14  and  C_24
REMARK    9  A    between atoms: C_24  and  C_25
REMARK   10  A    between atoms: C_27  and  C_29
REMARK   11  A    between atoms: C_28  and  C_30
REMARK   12  A    between atoms: C_30  and  C_31
REMARK   13  A    between atoms: C_31  and  C_34
REMARK   14  A    between atoms: C_31  and  C_35
REMARK   15  A    between atoms: C_31  and  C_36
REMARK                            x       y       z     vdW  Elec       q    Type
REMARK                         _______ _______ _______ _____ _____    ______ ____
ROOT
ATOM      1  S   UNL     1       0.353   2.817  23.996  0.00  0.00    -0.057 S 
ATOM      5  O   UNL     1       2.787  -0.909  22.616  0.00  0.00    -0.275 OA
ATOM      7  N   UNL     1       0.203   0.299  23.426  0.00  0.00    -0.229 NA
ATOM      9  N   UNL     1       2.373   1.329  23.235  0.00  0.00    -0.265 N 
ATOM     11  C   UNL     1      -3.467   0.383  24.608  0.00  0.00    -0.019 C 
ATOM     12  C   UNL     1      -3.657   1.899  24.161  0.00  0.00    +0.011 C 
ATOM     13  C   UNL     1      -5.032   2.583  24.521  0.00  0.00    +0.021 C 
ATOM     14  C   UNL     1      -2.239  -0.223  23.783  0.00  0.00    +0.054 C 
ATOM     15  C   UNL     1      -4.741  -0.425  24.250  0.00  0.00    +0.010 C 
ATOM     16  C   UNL     1      -6.197   1.624  24.141  0.00  0.00    +0.123 C 
ATOM     17  C   UNL     1      -2.414   2.760  24.527  0.00  0.00    +0.049 C 
ATOM     18  C   UNL     1      -6.035   0.224  24.721  0.00  0.00    +0.032 C 
ATOM     19  C   UNL     1      -3.192   0.232  26.124  0.00  0.00    +0.012 C 
ATOM     20  C   UNL     1      -1.062   0.718  23.793  0.00  0.00    +0.058 A 
ATOM     22  C   UNL     1      -5.197   3.872  23.665  0.00  0.00    +0.016 C 
ATOM     23  C   UNL     1      -1.166   2.057  24.112  0.00  0.00    +0.015 A 
ATOM     26  C   UNL     1       1.030   1.318  23.503  0.00  0.00    +0.165 A 
ATOM     28  C   UNL     1       3.160   0.243  22.817  0.00  0.00    +0.219 C 
ATOM     42  H   UNL     1       2.827   2.230  23.362  0.00  0.00    +0.157 HD
ENDROOT
BRANCH  16   2
ATOM      2  O   UNL     1      -7.448   2.158  24.572  0.00  0.00    -0.391 OA
ATOM     39  H   UNL     1      -7.934   1.445  25.019  0.00  0.00    +0.210 HD
ENDBRANCH  16   2
BRANCH  13  21
ATOM     21  C   UNL     1      -5.154   3.043  25.991  0.00  0.00    +0.165 C 
BRANCH  21   3
ATOM      3  O   UNL     1      -6.159   4.029  26.052  0.00  0.00    -0.394 OA
ATOM     40  H   UNL     1      -6.891   3.665  26.579  0.00  0.00    +0.209 HD
ENDBRANCH  21   3
ENDBRANCH  13  21
BRANCH  14  24
ATOM     24  C   UNL     1      -1.827  -1.642  24.200  0.00  0.00    +0.106 C 
BRANCH  24  25
ATOM      4  O   UNL     1      -0.155  -2.568  25.683  0.00  0.00    -0.276 OA
ATOM      8  N   UNL     1      -1.013  -0.449  26.102  0.00  0.00    -0.314 N 
ATOM     25  C   UNL     1      -0.901  -1.635  25.393  0.00  0.00    +0.214 C 
ATOM     41  H   UNL     1      -1.656   0.267  25.775  0.00  0.00    +0.149 HD
BRANCH   8  27
ATOM     27  C   UNL     1      -0.247  -0.166  27.295  0.00  0.00    +0.119 C 
BRANCH  27  29
ATOM     29  C   UNL     1      -0.249   1.323  27.609  0.00  0.00    +0.103 C 
BRANCH  29  10
ATOM      6  O   UNL     1       2.610   3.544  29.733  0.00  0.00    -0.377 OA
ATOM     10  N   UNL     1       0.976   1.695  28.316  0.00  0.00    -0.297 NA
ATOM     32  C   UNL     1       1.661   2.797  27.628  0.00  0.00    +0.112 C 
ATOM     33  C   UNL     1       0.682   2.071  29.706  0.00  0.00    +0.112 C 
ATOM     37  C   UNL     1       2.929   3.174  28.391  0.00  0.00    +0.175 C 
ATOM     38  C   UNL     1       1.972   2.465  30.419  0.00  0.00    +0.175 C 
ENDBRANCH  29  10
ENDBRANCH  27  29
ENDBRANCH   8  27
ENDBRANCH  24  25
ENDBRANCH  14  24
BRANCH  28  30
ATOM     30  C   UNL     1       4.624   0.618  22.619  0.00  0.00    +0.102 C 
BRANCH  30  31
ATOM     31  C   UNL     1       5.611  -0.094  23.574  0.00  0.00    -0.029 C 
ATOM     34  C   UNL     1       6.989  -0.272  22.914  0.00  0.00    +0.011 C 
ATOM     35  C   UNL     1       5.781   0.786  24.827  0.00  0.00    +0.011 C 
ATOM     36  C   UNL     1       5.080  -1.468  24.014  0.00  0.00    +0.011 C 
ENDBRANCH  30  31
ENDBRANCH  28  30
TORSDOF 10
ENDMDL
MODEL 2
REMARK VINA RESULT:       9.3      2.451      3.681
REMARK  Name = 11885041
REMARK  15 active torsions:
REMARK  status: ('A' for Active; 'I' for Inactive)
REMARK    1  A    between atoms: O_2  and  C_16
REMARK    2  A    between atoms: O_3  and  C_21
REMARK    3  A    between atoms: N_8  and  C_27
REMARK    4  A    between atoms: N_10  and  C_29
REMARK    5  A    between atoms: C_11  and  C_19
REMARK    6  A    between atoms: C_13  and  C_21
REMARK    7  A    between atoms: C_13  and  C_22
REMARK    8  A    between atoms: C_14  and  C_24
REMARK    9  A    between atoms: C_24  and  C_25
REMARK   10  A    between atoms: C_27  and  C_29
REMARK   11  A    between atoms: C_28  and  C_30
REMARK   12  A    between atoms: C_30  and  C_31
REMARK   13  A    between atoms: C_31  and  C_34
REMARK   14  A    between atoms: C_31  and  C_35
REMARK   15  A    between atoms: C_31  and  C_36
REMARK                            x       y       z     vdW  Elec       q    Type
REMARK                         _______ _______ _______ _____ _____    ______ ____
ROOT
ATOM      1  S   UNL     1       1.003   2.528  25.183  0.00  0.00    -0.057 S 
ATOM      5  O   UNL     1       2.081   0.002  21.419  0.00  0.00    -0.275 OA
ATOM      7  N   UNL     1       0.033   1.310  23.118  0.00  0.00    -0.229 NA
ATOM      9  N   UNL     1       2.425   1.231  23.402  0.00  0.00    -0.265 N 
ATOM     11  C   UNL     1      -3.491   2.083  24.479  0.00  0.00    -0.019 C 
ATOM     12  C   UNL     1      -3.013   3.436  25.168  0.00  0.00    +0.011 C 
ATOM     13  C   UNL     1      -4.073   4.204  26.047  0.00  0.00    +0.021 C 
ATOM     14  C   UNL     1      -2.447   1.723  23.324  0.00  0.00    +0.054 C 
ATOM     15  C   UNL     1      -4.883   2.298  23.830  0.00  0.00    +0.010 C 
ATOM     16  C   UNL     1      -5.418   4.291  25.269  0.00  0.00    +0.123 C 
ATOM     17  C   UNL     1      -1.631   3.263  25.863  0.00  0.00    +0.049 C 
ATOM     18  C   UNL     1      -5.904   2.939  24.759  0.00  0.00    +0.032 C 
ATOM     19  C   UNL     1      -3.585   0.900  25.474  0.00  0.00    +0.012 C 
ATOM     20  C   UNL     1      -1.029   1.857  23.814  0.00  0.00    +0.058 A 
ATOM     22  C   UNL     1      -3.580   5.661  26.280  0.00  0.00    +0.016 C 
ATOM     23  C   UNL     1      -0.683   2.567  24.946  0.00  0.00    +0.015 A 
ATOM     26  C   UNL     1       1.150   1.593  23.751  0.00  0.00    +0.165 A 
ATOM     28  C   UNL     1       2.813   0.475  22.284  0.00  0.00    +0.219 C 
ATOM     42  H   UNL     1       3.150   1.556  24.037  0.00  0.00    +0.157 HD
ENDROOT
BRANCH  16   2
ATOM      2  O   UNL     1      -6.436   4.866  26.087  0.00  0.00    -0.391 OA
ATOM     39  H   UNL     1      -7.175   5.115  25.506  0.00  0.00    +0.210 HD
ENDBRANCH  16   2
BRANCH  13  21
ATOM     21  C   UNL     1      -4.290   3.609  27.457  0.00  0.00    +0.165 C 
BRANCH  21   3
ATOM      3  O   UNL     1      -3.479   4.329  28.358  0.00  0.00    -0.394 OA
ATOM     40  H   UNL     1      -3.396   3.792  29.165  0.00  0.00    +0.209 HD
ENDBRANCH  21   3
ENDBRANCH  13  21
BRANCH  14  24
ATOM     24  C   UNL     1      -2.683   0.363  22.651  0.00  0.00    +0.106 C 
BRANCH  24  25
ATOM      4  O   UNL     1      -4.785   0.053  23.807  0.00  0.00    -0.276 OA
ATOM      8  N   UNL     1      -3.415  -1.780  23.407  0.00  0.00    -0.314 N 
ATOM     25  C   UNL     1      -3.755  -0.437  23.351  0.00  0.00    +0.214 C 
ATOM     41  H   UNL     1      -2.541  -2.090  22.992  0.00  0.00    +0.149 HD
BRANCH   8  27
ATOM     27  C   UNL     1      -4.254  -2.783  24.024  0.00  0.00    +0.119 C 
BRANCH  27  29
ATOM     29  C   UNL     1      -3.445  -3.692  24.938  0.00  0.00    +0.103 C 
BRANCH  29  10
ATOM      6  O   UNL     1      -0.631  -0.675  25.708  0.00  0.00    -0.377 OA
ATOM     10  N   UNL     1      -2.305  -2.966  25.496  0.00  0.00    -0.297 NA
ATOM     32  C   UNL     1      -1.341  -2.619  24.443  0.00  0.00    +0.112 C 
ATOM     33  C   UNL     1      -2.751  -1.752  26.193  0.00  0.00    +0.112 C 
ATOM     37  C   UNL     1      -0.167  -1.854  25.048  0.00  0.00    +0.175 C 
ATOM     38  C   UNL     1      -1.544  -1.006  26.756  0.00  0.00    +0.175 C 
ENDBRANCH  29  10
ENDBRANCH  27  29
ENDBRANCH   8  27
ENDBRANCH  24  25
ENDBRANCH  14  24
BRANCH  28  30
ATOM     30  C   UNL     1       4.319   0.258  22.213  0.00  0.00    +0.102 C 
BRANCH  30  31
ATOM     31  C   UNL     1       4.940  -0.395  23.471  0.00  0.00    -0.029 C 
ATOM     34  C   UNL     1       4.108  -1.602  23.936  0.00  0.00    +0.011 C 
ATOM     35  C   UNL     1       6.353  -0.889  23.104  0.00  0.00    +0.011 C 
ATOM     36  C   UNL     1       5.064   0.611  24.627  0.00  0.00    +0.011 C 
ENDBRANCH  30  31
ENDBRANCH  28  30
TORSDOF 10
ENDMDL
MODEL 3
REMARK VINA RESULT:      10.2      2.647      4.034
REMARK  Name = 11885041
REMARK  15 active torsions:
REMARK  status: ('A' for Active; 'I' for Inactive)
REMARK    1  A    between atoms: O_2  and  C_16
REMARK    2  A    between atoms: O_3  and  C_21
REMARK    3  A    between atoms: N_8  and  C_27
REMARK    4  A    between atoms: N_10  and  C_29
REMARK    5  A    between atoms: C_11  and  C_19
REMARK    6  A    between atoms: C_13  and  C_21
REMARK    7  A    between atoms: C_13  and  C_22
REMARK    8  A    between atoms: C_14  and  C_24
REMARK    9  A    between atoms: C_24  and  C_25
REMARK   10  A    between atoms: C_27  and  C_29
REMARK   11  A    between atoms: C_28  and  C_30
REMARK   12  A    between atoms: C_30  and  C_31
REMARK   13  A    between atoms: C_31  and  C_34
REMARK   14  A    between atoms: C_31  and  C_35
REMARK   15  A    between atoms: C_31  and  C_36
REMARK                            x       y       z     vdW  Elec       q    Type
REMARK                         _______ _______ _______ _____ _____    ______ ____
ROOT
ATOM      1  S   UNL     1       1.178   2.792  25.216  0.00  0.00    -0.057 S 
ATOM      5  O   UNL     1       2.492   0.159  21.603  0.00  0.00    -0.275 OA
ATOM      7  N   UNL     1       0.331   1.425  23.190  0.00  0.00    -0.229 NA
ATOM      9  N   UNL     1       2.716   1.498  23.532  0.00  0.00    -0.265 N 
ATOM     11  C   UNL     1      -3.265   2.057  24.432  0.00  0.00    -0.019 C 
ATOM     12  C   UNL     1      -2.881   3.466  25.066  0.00  0.00    +0.011 C 
ATOM     13  C   UNL     1      -4.005   4.213  25.883  0.00  0.00    +0.021 C 
ATOM     14  C   UNL     1      -2.173   1.705  23.320  0.00  0.00    +0.054 C 
ATOM     15  C   UNL     1      -4.649   2.162  23.742  0.00  0.00    +0.010 C 
ATOM     16  C   UNL     1      -5.332   4.185  25.071  0.00  0.00    +0.123 C 
ATOM     17  C   UNL     1      -1.510   3.405  25.800  0.00  0.00    +0.049 C 
ATOM     18  C   UNL     1      -5.728   2.785  24.615  0.00  0.00    +0.032 C 
ATOM     19  C   UNL     1      -3.317   0.919  25.481  0.00  0.00    +0.012 C 
ATOM     20  C   UNL     1      -0.777   1.943  23.835  0.00  0.00    +0.058 A 
ATOM     22  C   UNL     1      -3.601   5.705  26.056  0.00  0.00    +0.016 C 
ATOM     23  C   UNL     1      -0.501   2.724  24.939  0.00  0.00    +0.015 A 
ATOM     26  C   UNL     1       1.414   1.801  23.834  0.00  0.00    +0.165 A 
ATOM     28  C   UNL     1       3.174   0.713  22.461  0.00  0.00    +0.219 C 
ATOM     42  H   UNL     1       3.405   1.892  24.167  0.00  0.00    +0.157 HD
ENDROOT
BRANCH  16   2
ATOM      2  O   UNL     1      -6.402   4.739  25.837  0.00  0.00    -0.391 OA
ATOM     39  H   UNL     1      -6.078   4.866  26.745  0.00  0.00    +0.210 HD
ENDBRANCH  16   2
BRANCH  13  21
ATOM     21  C   UNL     1      -4.224   3.673  27.314  0.00  0.00    +0.165 C 
BRANCH  21   3
ATOM      3  O   UNL     1      -5.333   2.802  27.281  0.00  0.00    -0.394 OA
ATOM     40  H   UNL     1      -5.110   2.029  27.828  0.00  0.00    +0.209 HD
ENDBRANCH  21   3
ENDBRANCH  13  21
BRANCH  14  24
ATOM     24  C   UNL     1      -2.314   0.304  22.708  0.00  0.00    +0.106 C 
BRANCH  24  25
ATOM      4  O   UNL     1      -0.383  -1.070  22.221  0.00  0.00    -0.276 OA
ATOM      8  N   UNL     1      -1.059  -0.782  24.425  0.00  0.00    -0.314 N 
ATOM     25  C   UNL     1      -1.145  -0.588  23.055  0.00  0.00    +0.214 C 
ATOM     41  H   UNL     1      -1.736  -0.331  25.035  0.00  0.00    +0.149 HD
BRANCH   8  27
ATOM     27  C   UNL     1      -0.038  -1.595  25.046  0.00  0.00    +0.119 C 
BRANCH  27  29
ATOM     29  C   UNL     1      -0.587  -2.955  25.451  0.00  0.00    +0.103 C 
BRANCH  29  10
ATOM      6  O   UNL     1      -4.490  -1.984  24.252  0.00  0.00    -0.377 OA
ATOM     10  N   UNL     1      -2.041  -2.980  25.307  0.00  0.00    -0.297 NA
ATOM     32  C   UNL     1      -2.636  -1.729  25.796  0.00  0.00    +0.112 C 
ATOM     33  C   UNL     1      -2.422  -3.205  23.905  0.00  0.00    +0.112 C 
ATOM     37  C   UNL     1      -4.152  -1.774  25.624  0.00  0.00    +0.175 C 
ATOM     38  C   UNL     1      -3.943  -3.215  23.777  0.00  0.00    +0.175 C 
ENDBRANCH  29  10
ENDBRANCH  27  29
ENDBRANCH   8  27
ENDBRANCH  24  25
ENDBRANCH  14  24
BRANCH  28  30
ATOM     30  C   UNL     1       4.692   0.580  22.435  0.00  0.00    +0.102 C 
BRANCH  30  31
ATOM     31  C   UNL     1       5.286  -0.286  23.571  0.00  0.00    -0.029 C 
ATOM     34  C   UNL     1       4.389  -1.499  23.869  0.00  0.00    +0.011 C 
ATOM     35  C   UNL     1       6.663  -0.801  23.108  0.00  0.00    +0.011 C 
ATOM     36  C   UNL     1       5.482   0.529  24.860  0.00  0.00    +0.011 C 
ENDBRANCH  30  31
ENDBRANCH  28  30
TORSDOF 10
ENDMDL
MODEL 4
REMARK VINA RESULT:      10.8      1.953      3.256
REMARK  Name = 11885041
REMARK  15 active torsions:
REMARK  status: ('A' for Active; 'I' for Inactive)
REMARK    1  A    between atoms: O_2  and  C_16
REMARK    2  A    between atoms: O_3  and  C_21
REMARK    3  A    between atoms: N_8  and  C_27
REMARK    4  A    between atoms: N_10  and  C_29
REMARK    5  A    between atoms: C_11  and  C_19
REMARK    6  A    between atoms: C_13  and  C_21
REMARK    7  A    between atoms: C_13  and  C_22
REMARK    8  A    between atoms: C_14  and  C_24
REMARK    9  A    between atoms: C_24  and  C_25
REMARK   10  A    between atoms: C_27  and  C_29
REMARK   11  A    between atoms: C_28  and  C_30
REMARK   12  A    between atoms: C_30  and  C_31
REMARK   13  A    between atoms: C_31  and  C_34
REMARK   14  A    between atoms: C_31  and  C_35
REMARK   15  A    between atoms: C_31  and  C_36
REMARK                            x       y       z     vdW  Elec       q    Type
REMARK                         _______ _______ _______ _____ _____    ______ ____
ROOT
ATOM      1  S   UNL     1      -0.591  -0.856  23.279  0.00  0.00    -0.057 S 
ATOM      5  O   UNL     1       3.159   1.909  23.196  0.00  0.00    -0.275 OA
ATOM      7  N   UNL     1       0.279   1.526  23.788  0.00  0.00    -0.229 NA
ATOM      9  N   UNL     1       1.878  -0.051  22.914  0.00  0.00    -0.265 N 
ATOM     11  C   UNL     1      -3.358   2.549  24.561  0.00  0.00    -0.019 C 
ATOM     12  C   UNL     1      -3.739   1.093  25.081  0.00  0.00    +0.011 C 
ATOM     13  C   UNL     1      -5.250   0.841  25.458  0.00  0.00    +0.021 C 
ATOM     14  C   UNL     1      -1.771   2.708  24.663  0.00  0.00    +0.054 C 
ATOM     15  C   UNL     1      -4.015   3.612  25.479  0.00  0.00    +0.010 C 
ATOM     16  C   UNL     1      -5.762   2.018  26.337  0.00  0.00    +0.123 C 
ATOM     17  C   UNL     1      -3.127  -0.013  24.173  0.00  0.00    +0.049 C 
ATOM     18  C   UNL     1      -5.501   3.387  25.718  0.00  0.00    +0.032 C 
ATOM     19  C   UNL     1      -3.808   2.805  23.102  0.00  0.00    +0.012 C 
ATOM     20  C   UNL     1      -1.068   1.500  24.100  0.00  0.00    +0.058 A 
ATOM     22  C   UNL     1      -5.350  -0.453  26.316  0.00  0.00    +0.016 C 
ATOM     23  C   UNL     1      -1.691   0.284  23.905  0.00  0.00    +0.015 A 
ATOM     26  C   UNL     1       0.637   0.343  23.340  0.00  0.00    +0.165 A 
ATOM     28  C   UNL     1       3.043   0.732  22.866  0.00  0.00    +0.219 C 
ATOM     42  H   UNL     1       1.935  -1.018  22.603  0.00  0.00    +0.157 HD
ENDROOT
BRANCH  16   2
ATOM      2  O   UNL     1      -7.160   1.887  26.589  0.00  0.00    -0.391 OA
ATOM     39  H   UNL     1      -7.273   1.722  27.540  0.00  0.00    +0.210 HD
ENDBRANCH  16   2
BRANCH  13  21
ATOM     21  C   UNL     1      -6.183   0.611  24.249  0.00  0.00    +0.165 C 
BRANCH  21   3
ATOM      3  O   UNL     1      -7.142   1.644  24.241  0.00  0.00    -0.394 OA
ATOM     40  H   UNL     1      -7.034   2.134  23.408  0.00  0.00    +0.209 HD
ENDBRANCH  21   3
ENDBRANCH  13  21
BRANCH  14  24
ATOM     24  C   UNL     1      -1.220   4.009  24.063  0.00  0.00    +0.106 C 
BRANCH  24  25
ATOM      4  O   UNL     1       0.222   5.793  24.832  0.00  0.00    -0.276 OA
ATOM      8  N   UNL     1       0.338   3.706  25.847  0.00  0.00    -0.314 N 
ATOM     25  C   UNL     1      -0.152   4.628  24.934  0.00  0.00    +0.214 C 
ATOM     41  H   UNL     1      -0.044   2.765  25.858  0.00  0.00    +0.149 HD
BRANCH   8  27
ATOM     27  C   UNL     1       1.372   4.019  26.808  0.00  0.00    +0.119 C 
BRANCH  27  29
ATOM     29  C   UNL     1       1.897   2.759  27.482  0.00  0.00    +0.103 C 
BRANCH  29  10
ATOM      6  O   UNL     1       0.860   1.959  31.469  0.00  0.00    -0.377 OA
ATOM     10  N   UNL     1       1.776   2.872  28.934  0.00  0.00    -0.297 NA
ATOM     32  C   UNL     1       0.368   2.999  29.332  0.00  0.00    +0.112 C 
ATOM     33  C   UNL     1       2.387   1.713  29.599  0.00  0.00    +0.112 C 
ATOM     37  C   UNL     1       0.267   3.103  30.852  0.00  0.00    +0.175 C 
ATOM     38  C   UNL     1       2.239   1.847  31.112  0.00  0.00    +0.175 C 
ENDBRANCH  29  10
ENDBRANCH  27  29
ENDBRANCH   8  27
ENDBRANCH  24  25
ENDBRANCH  14  24
BRANCH  28  30
ATOM     30  C   UNL     1       4.246  -0.034  22.330  0.00  0.00    +0.102 C 
BRANCH  30  31
ATOM     31  C   UNL     1       5.286  -0.440  23.401  0.00  0.00    -0.029 C 
ATOM     34  C   UNL     1       5.436   0.655  24.470  0.00  0.00    +0.011 C 
ATOM     35  C   UNL     1       4.787  -1.726  24.088  0.00  0.00    +0.011 C 
ATOM     36  C   UNL     1       6.660  -0.727  22.775  0.00  0.00    +0.011 C 
ENDBRANCH  30  31
ENDBRANCH  28  30
TORSDOF 10
ENDMDL
MODEL 5
REMARK VINA RESULT:      11.8      3.304      5.669
REMARK  Name = 11885041
REMARK  15 active torsions:
REMARK  status: ('A' for Active; 'I' for Inactive)
REMARK    1  A    between atoms: O_2  and  C_16
REMARK    2  A    between atoms: O_3  and  C_21
REMARK    3  A    between atoms: N_8  and  C_27
REMARK    4  A    between atoms: N_10  and  C_29
REMARK    5  A    between atoms: C_11  and  C_19
REMARK    6  A    between atoms: C_13  and  C_21
REMARK    7  A    between atoms: C_13  and  C_22
REMARK    8  A    between atoms: C_14  and  C_24
REMARK    9  A    between atoms: C_24  and  C_25
REMARK   10  A    between atoms: C_27  and  C_29
REMARK   11  A    between atoms: C_28  and  C_30
REMARK   12  A    between atoms: C_30  and  C_31
REMARK   13  A    between atoms: C_31  and  C_34
REMARK   14  A    between atoms: C_31  and  C_35
REMARK   15  A    between atoms: C_31  and  C_36
REMARK                            x       y       z     vdW  Elec       q    Type
REMARK                         _______ _______ _______ _____ _____    ______ ____
ROOT
ATOM      1  S   UNL     1      -0.346  -0.366  23.151  0.00  0.00    -0.057 S 
ATOM      5  O   UNL     1       3.679   1.965  23.439  0.00  0.00    -0.275 OA
ATOM      7  N   UNL     1       0.763   1.827  23.959  0.00  0.00    -0.229 NA
ATOM      9  N   UNL     1       2.202   0.205  22.905  0.00  0.00    -0.265 N 
ATOM     11  C   UNL     1      -2.758   3.134  24.831  0.00  0.00    -0.019 C 
ATOM     12  C   UNL     1      -3.302   1.675  25.162  0.00  0.00    +0.011 C 
ATOM     13  C   UNL     1      -4.839   1.543  25.495  0.00  0.00    +0.021 C 
ATOM     14  C   UNL     1      -1.166   3.106  24.962  0.00  0.00    +0.054 C 
ATOM     15  C   UNL     1      -3.316   4.141  25.870  0.00  0.00    +0.010 C 
ATOM     16  C   UNL     1      -5.239   2.652  26.511  0.00  0.00    +0.123 C 
ATOM     17  C   UNL     1      -2.795   0.630  24.127  0.00  0.00    +0.049 C 
ATOM     18  C   UNL     1      -4.822   4.050  26.070  0.00  0.00    +0.032 C 
ATOM     19  C   UNL     1      -3.149   3.615  23.412  0.00  0.00    +0.012 C 
ATOM     20  C   UNL     1      -0.584   1.908  24.257  0.00  0.00    +0.058 A 
ATOM     22  C   UNL     1      -5.093   0.172  26.183  0.00  0.00    +0.016 C 
ATOM     23  C   UNL     1      -1.329   0.800  23.907  0.00  0.00    +0.015 A 
ATOM     26  C   UNL     1       1.002   0.676  23.369  0.00  0.00    +0.165 A 
ATOM     28  C   UNL     1       3.445   0.857  22.964  0.00  0.00    +0.219 C 
ATOM     42  H   UNL     1       2.162  -0.716  22.476  0.00  0.00    +0.157 HD
ENDROOT
BRANCH  16   2
ATOM      2  O   UNL     1      -6.649   2.642  26.735  0.00  0.00    -0.391 OA
ATOM     39  H   UNL     1      -6.911   3.540  26.999  0.00  0.00    +0.210 HD
ENDBRANCH  16   2
BRANCH  13  21
ATOM     21  C   UNL     1      -5.767   1.567  24.260  0.00  0.00    +0.165 C 
BRANCH  21   3
ATOM      3  O   UNL     1      -7.099   1.551  24.722  0.00  0.00    -0.394 OA
ATOM     40  H   UNL     1      -7.459   2.446  24.600  0.00  0.00    +0.209 HD
ENDBRANCH  21   3
ENDBRANCH  13  21
BRANCH  14  24
ATOM     24  C   UNL     1      -0.467   4.404  24.533  0.00  0.00    +0.106 C 
BRANCH  24  25
ATOM      4  O   UNL     1      -0.816   3.711  22.241  0.00  0.00    -0.276 OA
ATOM      8  N   UNL     1       0.571   5.519  22.694  0.00  0.00    -0.314 N 
ATOM     25  C   UNL     1      -0.280   4.479  23.036  0.00  0.00    +0.214 C 
ATOM     41  H   UNL     1       0.959   6.106  23.427  0.00  0.00    +0.149 HD
BRANCH   8  27
ATOM     27  C   UNL     1       0.935   5.827  21.329  0.00  0.00    +0.119 C 
BRANCH  27  29
ATOM     29  C   UNL     1       2.421   6.132  21.211  0.00  0.00    +0.103 C 
BRANCH  29  10
ATOM      6  O   UNL     1       4.536   5.158  17.719  0.00  0.00    -0.377 OA
ATOM     10  N   UNL     1       3.011   5.369  20.113  0.00  0.00    -0.297 NA
ATOM     32  C   UNL     1       2.476   5.817  18.819  0.00  0.00    +0.112 C 
ATOM     33  C   UNL     1       4.476   5.488  20.122  0.00  0.00    +0.112 C 
ATOM     37  C   UNL     1       3.115   5.014  17.689  0.00  0.00    +0.175 C 
ATOM     38  C   UNL     1       5.068   4.694  18.961  0.00  0.00    +0.175 C 
ENDBRANCH  29  10
ENDBRANCH  27  29
ENDBRANCH   8  27
ENDBRANCH  24  25
ENDBRANCH  14  24
BRANCH  28  30
ATOM     30  C   UNL     1       4.570   0.037  22.343  0.00  0.00    +0.102 C 
BRANCH  30  31
ATOM     31  C   UNL     1       5.590  -0.535  23.357  0.00  0.00    -0.029 C 
ATOM     34  C   UNL     1       5.768   0.411  24.556  0.00  0.00    +0.011 C 
ATOM     35  C   UNL     1       5.044  -1.880  23.874  0.00  0.00    +0.011 C 
ATOM     36  C   UNL     1       6.957  -0.786  22.701  0.00  0.00    +0.011 C 
ENDBRANCH  30  31
ENDBRANCH  28  30
TORSDOF 10
ENDMDL
MODEL 6
REMARK VINA RESULT:      12.1      2.274      4.239
REMARK  Name = 11885041
REMARK  15 active torsions:
REMARK  status: ('A' for Active; 'I' for Inactive)
REMARK    1  A    between atoms: O_2  and  C_16
REMARK    2  A    between atoms: O_3  and  C_21
REMARK    3  A    between atoms: N_8  and  C_27
REMARK    4  A    between atoms: N_10  and  C_29
REMARK    5  A    between atoms: C_11  and  C_19
REMARK    6  A    between atoms: C_13  and  C_21
REMARK    7  A    between atoms: C_13  and  C_22
REMARK    8  A    between atoms: C_14  and  C_24
REMARK    9  A    between atoms: C_24  and  C_25
REMARK   10  A    between atoms: C_27  and  C_29
REMARK   11  A    between atoms: C_28  and  C_30
REMARK   12  A    between atoms: C_30  and  C_31
REMARK   13  A    between atoms: C_31  and  C_34
REMARK   14  A    between atoms: C_31  and  C_35
REMARK   15  A    between atoms: C_31  and  C_36
REMARK                            x       y       z     vdW  Elec       q    Type
REMARK                         _______ _______ _______ _____ _____    ______ ____
ROOT
ATOM      1  S   UNL     1       1.223   3.233  23.189  0.00  0.00    -0.057 S 
ATOM      5  O   UNL     1       2.849  -1.105  23.689  0.00  0.00    -0.275 OA
ATOM      7  N   UNL     1       0.720   0.899  24.183  0.00  0.00    -0.229 NA
ATOM      9  N   UNL     1       2.808   1.152  23.007  0.00  0.00    -0.265 N 
ATOM     11  C   UNL     1      -2.418   2.419  25.830  0.00  0.00    -0.019 C 
ATOM     12  C   UNL     1      -2.616   3.477  24.656  0.00  0.00    +0.011 C 
ATOM     13  C   UNL     1      -3.767   4.540  24.839  0.00  0.00    +0.021 C 
ATOM     14  C   UNL     1      -1.539   1.212  25.261  0.00  0.00    +0.054 C 
ATOM     15  C   UNL     1      -3.799   1.859  26.259  0.00  0.00    +0.010 C 
ATOM     16  C   UNL     1      -5.061   3.819  25.314  0.00  0.00    +0.123 C 
ATOM     17  C   UNL     1      -1.259   4.093  24.210  0.00  0.00    +0.049 C 
ATOM     18  C   UNL     1      -4.841   2.932  26.535  0.00  0.00    +0.032 C 
ATOM     19  C   UNL     1      -1.718   3.023  27.073  0.00  0.00    +0.012 C 
ATOM     20  C   UNL     1      -0.344   1.723  24.498  0.00  0.00    +0.058 A 
ATOM     22  C   UNL     1      -4.079   5.191  23.462  0.00  0.00    +0.016 C 
ATOM     23  C   UNL     1      -0.247   3.014  24.021  0.00  0.00    +0.015 A 
ATOM     26  C   UNL     1       1.608   1.589  23.501  0.00  0.00    +0.165 A 
ATOM     28  C   UNL     1       3.351  -0.138  23.124  0.00  0.00    +0.219 C 
ATOM     42  H   UNL     1       3.346   1.856  22.508  0.00  0.00    +0.157 HD
ENDROOT
BRANCH  16   2
ATOM      2  O   UNL     1      -6.084   4.767  25.612  0.00  0.00    -0.391 OA
ATOM     39  H   UNL     1      -5.780   5.302  26.365  0.00  0.00    +0.210 HD
ENDBRANCH  16   2
BRANCH  13  21
ATOM     21  C   UNL     1      -3.413   5.712  25.782  0.00  0.00    +0.165 C 
BRANCH  21   3
ATOM      3  O   UNL     1      -2.155   6.216  25.390  0.00  0.00    -0.394 OA
ATOM     40  H   UNL     1      -1.725   6.572  26.186  0.00  0.00    +0.209 HD
ENDBRANCH  21   3
ENDBRANCH  13  21
BRANCH  14  24
ATOM     24  C   UNL     1      -1.131   0.169  26.311  0.00  0.00    +0.106 C 
BRANCH  24  25
ATOM      4  O   UNL     1      -0.540  -2.013  25.446  0.00  0.00    -0.276 OA
ATOM      8  N   UNL     1      -2.762  -1.535  25.932  0.00  0.00    -0.314 N 
ATOM     25  C   UNL     1      -1.409  -1.242  25.846  0.00  0.00    +0.214 C 
ATOM     41  H   UNL     1      -3.402  -0.829  26.285  0.00  0.00    +0.149 HD
BRANCH   8  27
ATOM     27  C   UNL     1      -3.320  -2.812  25.551  0.00  0.00    +0.119 C 
BRANCH  27  29
ATOM     29  C   UNL     1      -3.553  -2.886  24.049  0.00  0.00    +0.103 C 
BRANCH  29  10
ATOM      6  O   UNL     1      -4.270   1.229  23.643  0.00  0.00    -0.377 OA
ATOM     10  N   UNL     1      -4.054  -1.607  23.549  0.00  0.00    -0.297 NA
ATOM     32  C   UNL     1      -4.871  -0.933  24.567  0.00  0.00    +0.112 C 
ATOM     33  C   UNL     1      -2.943  -0.738  23.136  0.00  0.00    +0.112 C 
ATOM     37  C   UNL     1      -5.371   0.404  24.026  0.00  0.00    +0.175 C 
ATOM     38  C   UNL     1      -3.488   0.594  22.630  0.00  0.00    +0.175 C 
ENDBRANCH  29  10
ENDBRANCH  27  29
ENDBRANCH   8  27
ENDBRANCH  24  25
ENDBRANCH  14  24
BRANCH  28  30
ATOM     30  C   UNL     1       4.715  -0.266  22.455  0.00  0.00    +0.102 C 
BRANCH  30  31
ATOM     31  C   UNL     1       5.916  -0.286  23.430  0.00  0.00    -0.029 C 
ATOM     34  C   UNL     1       5.753  -1.392  24.486  0.00  0.00    +0.011 C 
ATOM     35  C   UNL     1       7.190  -0.577  22.613  0.00  0.00    +0.011 C 
ATOM     36  C   UNL     1       6.092   1.067  24.138  0.00  0.00    +0.011 C 
ENDBRANCH  30  31
ENDBRANCH  28  30
TORSDOF 10
ENDMDL
