MODEL 1
REMARK VINA RESULT:      -1.3      0.000      0.000
REMARK  Name = 40586229
REMARK  7 active torsions:
REMARK  status: ('A' for Active; 'I' for Inactive)
REMARK    1  A    between atoms: O_3  and  C_12
REMARK    2  A    between atoms: O_3  and  C_21
REMARK    3  A    between atoms: O_6  and  C_28
REMARK    4  A    between atoms: O_6  and  C_29
REMARK    5  A    between atoms: N_7  and  C_11
REMARK    6  A    between atoms: N_8  and  C_15
REMARK    7  A    between atoms: C_22  and  C_23
REMARK                            x       y       z     vdW  Elec       q    Type
REMARK                         _______ _______ _______ _____ _____    ______ ____
ROOT
ATOM      1  O   UNL     1      -2.367   0.044  25.842  0.00  0.00    -0.368 OA
ATOM      2  O   UNL     1      -3.278  -2.149  23.902  0.00  0.00    -0.368 OA
ATOM      9  C   UNL     1      -2.091  -1.330  23.929  0.00  0.00    +0.173 C 
ATOM     10  C   UNL     1      -2.514   0.042  24.412  0.00  0.00    +0.192 C 
ATOM     11  C   UNL     1      -1.149  -1.818  25.005  0.00  0.00    +0.130 C 
ATOM     12  C   UNL     1      -3.965   0.099  23.999  0.00  0.00    +0.235 C 
ATOM     13  C   UNL     1      -1.724  -1.172  26.254  0.00  0.00    +0.185 C 
ATOM     14  C   UNL     1      -4.414  -1.329  24.211  0.00  0.00    +0.207 C 
ENDROOT
BRANCH  11   7
ATOM      5  O   UNL     1      -0.084  -0.856  22.516  0.00  0.00    -0.270 OA
ATOM      7  N   UNL     1       0.201  -1.375  24.758  0.00  0.00    -0.304 N 
ATOM     22  C   UNL     1       0.625  -0.924  23.516  0.00  0.00    +0.244 C 
ATOM     30  H   UNL     1       0.873  -1.504  25.509  0.00  0.00    +0.149 HD
BRANCH  22  23
ATOM     23  C   UNL     1       2.054  -0.529  23.420  0.00  0.00    +0.037 A 
ATOM     24  C   UNL     1       3.050  -1.402  23.857  0.00  0.00    +0.016 A 
ATOM     25  C   UNL     1       2.399   0.716  22.895  0.00  0.00    +0.016 A 
ATOM     26  C   UNL     1       4.392  -1.031  23.769  0.00  0.00    +0.046 A 
ATOM     27  C   UNL     1       3.741   1.088  22.807  0.00  0.00    +0.046 A 
ATOM     28  C   UNL     1       4.736   0.215  23.243  0.00  0.00    +0.120 A 
BRANCH  28   6
ATOM      6  O   UNL     1       6.046   0.578  23.158  0.00  0.00    -0.495 OA
ATOM     29  C   UNL     1       7.007  -0.475  23.096  0.00  0.00    +0.277 C 
ENDBRANCH  28   6
ENDBRANCH  22  23
ENDBRANCH  11   7
BRANCH  12   3
ATOM      3  O   UNL     1      -4.729   1.014  24.754  0.00  0.00    -0.442 OA
BRANCH   3  21
ATOM      4  O   UNL     1      -4.708   3.136  25.631  0.00  0.00    -0.226 OA
ATOM      8  N   UNL     1      -2.955   2.354  24.329  0.00  0.00    -0.278 N 
ATOM     21  C   UNL     1      -4.174   2.255  24.966  0.00  0.00    +0.401 C 
ATOM     31  H   UNL     1      -2.653   1.560  23.773  0.00  0.00    +0.152 HD
BRANCH   8  15
ATOM     15  C   UNL     1      -2.124   3.537  24.364  0.00  0.00    +0.076 C 
ATOM     16  C   UNL     1      -1.983   4.069  25.794  0.00  0.00    +0.022 C 
ATOM     17  C   UNL     1      -0.753   3.268  23.734  0.00  0.00    +0.022 C 
ATOM     18  C   UNL     1      -1.100   3.176  26.666  0.00  0.00    +0.002 C 
ATOM     19  C   UNL     1       0.126   2.375  24.610  0.00  0.00    +0.002 C 
ATOM     20  C   UNL     1       0.261   2.930  26.024  0.00  0.00    +0.000 C 
ENDBRANCH   8  15
ENDBRANCH   3  21
ENDBRANCH  12   3
TORSDOF 6
ENDMDL
MODEL 2
REMARK VINA RESULT:      -0.7      1.687      3.322
REMARK  Name = 40586229
REMARK  7 active torsions:
REMARK  status: ('A' for Active; 'I' for Inactive)
REMARK    1  A    between atoms: O_3  and  C_12
REMARK    2  A    between atoms: O_3  and  C_21
REMARK    3  A    between atoms: O_6  and  C_28
REMARK    4  A    between atoms: O_6  and  C_29
REMARK    5  A    between atoms: N_7  and  C_11
REMARK    6  A    between atoms: N_8  and  C_15
REMARK    7  A    between atoms: C_22  and  C_23
REMARK                            x       y       z     vdW  Elec       q    Type
REMARK                         _______ _______ _______ _____ _____    ______ ____
ROOT
ATOM      1  O   UNL     1      -1.513   1.458  25.367  0.00  0.00    -0.368 OA
ATOM      2  O   UNL     1      -2.297   2.008  22.454  0.00  0.00    -0.368 OA
ATOM      9  C   UNL     1      -1.014   1.999  23.113  0.00  0.00    +0.173 C 
ATOM     10  C   UNL     1      -1.227   2.569  24.500  0.00  0.00    +0.192 C 
ATOM     11  C   UNL     1      -0.573   0.577  23.369  0.00  0.00    +0.130 C 
ATOM     12  C   UNL     1      -2.436   3.452  24.307  0.00  0.00    +0.235 C 
ATOM     13  C   UNL     1      -1.323   0.232  24.645  0.00  0.00    +0.185 C 
ATOM     14  C   UNL     1      -3.249   2.666  23.303  0.00  0.00    +0.207 C 
ENDROOT
BRANCH  11   7
ATOM      5  O   UNL     1       1.347  -0.537  21.545  0.00  0.00    -0.270 OA
ATOM      7  N   UNL     1       0.854   0.498  23.562  0.00  0.00    -0.304 N 
ATOM     22  C   UNL     1       1.706  -0.060  22.619  0.00  0.00    +0.244 C 
ATOM     30  H   UNL     1       1.213   0.773  24.471  0.00  0.00    +0.149 HD
BRANCH  22  23
ATOM     23  C   UNL     1       3.147  -0.089  22.980  0.00  0.00    +0.037 A 
ATOM     24  C   UNL     1       3.709  -1.251  23.509  0.00  0.00    +0.016 A 
ATOM     25  C   UNL     1       3.937   1.044  22.791  0.00  0.00    +0.016 A 
ATOM     26  C   UNL     1       5.062  -1.279  23.850  0.00  0.00    +0.046 A 
ATOM     27  C   UNL     1       5.289   1.016  23.132  0.00  0.00    +0.046 A 
ATOM     28  C   UNL     1       5.851  -0.144  23.661  0.00  0.00    +0.120 A 
BRANCH  28   6
ATOM      6  O   UNL     1       7.171  -0.171  23.995  0.00  0.00    -0.495 OA
ATOM     29  C   UNL     1       8.097  -0.475  22.953  0.00  0.00    +0.277 C 
ENDBRANCH  28   6
ENDBRANCH  22  23
ENDBRANCH  11   7
BRANCH  12   3
ATOM      3  O   UNL     1      -3.153   3.694  25.497  0.00  0.00    -0.442 OA
BRANCH   3  21
ATOM      4  O   UNL     1      -5.352   3.376  26.077  0.00  0.00    -0.226 OA
ATOM      8  N   UNL     1      -4.000   1.595  25.459  0.00  0.00    -0.278 N 
ATOM     21  C   UNL     1      -4.273   2.923  25.711  0.00  0.00    +0.401 C 
ATOM     31  H   UNL     1      -3.047   1.354  25.206  0.00  0.00    +0.152 HD
BRANCH   8  15
ATOM     15  C   UNL     1      -4.975   0.535  25.593  0.00  0.00    +0.076 C 
ATOM     16  C   UNL     1      -5.350  -0.044  24.225  0.00  0.00    +0.022 C 
ATOM     17  C   UNL     1      -4.473  -0.559  26.541  0.00  0.00    +0.022 C 
ATOM     18  C   UNL     1      -4.226  -0.881  23.616  0.00  0.00    +0.002 C 
ATOM     19  C   UNL     1      -3.349  -1.393  25.928  0.00  0.00    +0.002 C 
ATOM     20  C   UNL     1      -3.750  -1.969  24.574  0.00  0.00    +0.000 C 
ENDBRANCH   8  15
ENDBRANCH   3  21
ENDBRANCH  12   3
TORSDOF 6
ENDMDL
MODEL 3
REMARK VINA RESULT:       0.6      1.974      4.126
REMARK  Name = 40586229
REMARK  7 active torsions:
REMARK  status: ('A' for Active; 'I' for Inactive)
REMARK    1  A    between atoms: O_3  and  C_12
REMARK    2  A    between atoms: O_3  and  C_21
REMARK    3  A    between atoms: O_6  and  C_28
REMARK    4  A    between atoms: O_6  and  C_29
REMARK    5  A    between atoms: N_7  and  C_11
REMARK    6  A    between atoms: N_8  and  C_15
REMARK    7  A    between atoms: C_22  and  C_23
REMARK                            x       y       z     vdW  Elec       q    Type
REMARK                         _______ _______ _______ _____ _____    ______ ____
ROOT
ATOM      1  O   UNL     1      -3.121   3.179  23.906  0.00  0.00    -0.368 OA
ATOM      2  O   UNL     1      -2.699   4.835  26.452  0.00  0.00    -0.368 OA
ATOM      9  C   UNL     1      -1.994   3.690  25.929  0.00  0.00    +0.173 C 
ATOM     10  C   UNL     1      -3.030   2.790  25.287  0.00  0.00    +0.192 C 
ATOM     11  C   UNL     1      -1.113   4.108  24.774  0.00  0.00    +0.130 C 
ATOM     12  C   UNL     1      -4.285   3.143  26.050  0.00  0.00    +0.235 C 
ATOM     13  C   UNL     1      -2.093   4.138  23.614  0.00  0.00    +0.185 C 
ATOM     14  C   UNL     1      -4.109   4.626  26.286  0.00  0.00    +0.207 C 
ENDROOT
BRANCH  11   7
ATOM      5  O   UNL     1      -1.089   2.020  22.800  0.00  0.00    -0.270 OA
ATOM      7  N   UNL     1      -0.060   3.149  24.546  0.00  0.00    -0.304 N 
ATOM     22  C   UNL     1      -0.138   2.172  23.563  0.00  0.00    +0.244 C 
ATOM     30  H   UNL     1       0.710   3.143  25.208  0.00  0.00    +0.149 HD
BRANCH  22  23
ATOM     23  C   UNL     1       1.019   1.244  23.474  0.00  0.00    +0.037 A 
ATOM     24  C   UNL     1       0.828  -0.126  23.653  0.00  0.00    +0.016 A 
ATOM     25  C   UNL     1       2.294   1.743  23.212  0.00  0.00    +0.016 A 
ATOM     26  C   UNL     1       1.914  -0.998  23.571  0.00  0.00    +0.046 A 
ATOM     27  C   UNL     1       3.380   0.871  23.130  0.00  0.00    +0.046 A 
ATOM     28  C   UNL     1       3.190  -0.498  23.309  0.00  0.00    +0.120 A 
BRANCH  28   6
ATOM      6  O   UNL     1       4.250  -1.349  23.231  0.00  0.00    -0.495 OA
ATOM     29  C   UNL     1       5.441  -0.967  23.918  0.00  0.00    +0.277 C 
ENDBRANCH  28   6
ENDBRANCH  22  23
ENDBRANCH  11   7
BRANCH  12   3
ATOM      3  O   UNL     1      -5.472   2.854  25.346  0.00  0.00    -0.442 OA
BRANCH   3  21
ATOM      4  O   UNL     1      -6.777   1.115  24.607  0.00  0.00    -0.226 OA
ATOM      8  N   UNL     1      -4.622   0.756  25.389  0.00  0.00    -0.278 N 
ATOM     21  C   UNL     1      -5.720   1.529  25.070  0.00  0.00    +0.401 C 
ATOM     31  H   UNL     1      -3.827   1.226  25.809  0.00  0.00    +0.152 HD
BRANCH   8  15
ATOM     15  C   UNL     1      -4.572  -0.678  25.212  0.00  0.00    +0.076 C 
ATOM     16  C   UNL     1      -4.211  -1.043  23.769  0.00  0.00    +0.022 C 
ATOM     17  C   UNL     1      -3.600  -1.322  26.207  0.00  0.00    +0.022 C 
ATOM     18  C   UNL     1      -2.748  -0.747  23.438  0.00  0.00    +0.002 C 
ATOM     19  C   UNL     1      -2.139  -1.024  25.873  0.00  0.00    +0.002 C 
ATOM     20  C   UNL     1      -1.800  -1.406  24.436  0.00  0.00    +0.000 C 
ENDBRANCH   8  15
ENDBRANCH   3  21
ENDBRANCH  12   3
TORSDOF 6
ENDMDL
MODEL 4
REMARK VINA RESULT:       1.7      1.529      1.870
REMARK  Name = 40586229
REMARK  7 active torsions:
REMARK  status: ('A' for Active; 'I' for Inactive)
REMARK    1  A    between atoms: O_3  and  C_12
REMARK    2  A    between atoms: O_3  and  C_21
REMARK    3  A    between atoms: O_6  and  C_28
REMARK    4  A    between atoms: O_6  and  C_29
REMARK    5  A    between atoms: N_7  and  C_11
REMARK    6  A    between atoms: N_8  and  C_15
REMARK    7  A    between atoms: C_22  and  C_23
REMARK                            x       y       z     vdW  Elec       q    Type
REMARK                         _______ _______ _______ _____ _____    ______ ____
ROOT
ATOM      1  O   UNL     1      -3.527   0.428  25.866  0.00  0.00    -0.368 OA
ATOM      2  O   UNL     1      -5.188  -1.213  23.877  0.00  0.00    -0.368 OA
ATOM      9  C   UNL     1      -3.901  -0.572  23.749  0.00  0.00    +0.173 C 
ATOM     10  C   UNL     1      -3.974   0.723  24.532  0.00  0.00    +0.192 C 
ATOM     11  C   UNL     1      -2.847  -1.375  24.475  0.00  0.00    +0.130 C 
ATOM     12  C   UNL     1      -5.449   1.043  24.495  0.00  0.00    +0.235 C 
ATOM     13  C   UNL     1      -3.025  -0.916  25.912  0.00  0.00    +0.185 C 
ATOM     14  C   UNL     1      -6.076  -0.330  24.578  0.00  0.00    +0.207 C 
ENDROOT
BRANCH  11   7
ATOM      5  O   UNL     1      -1.110   0.711  25.413  0.00  0.00    -0.270 OA
ATOM      7  N   UNL     1      -1.526  -1.068  23.985  0.00  0.00    -0.304 N 
ATOM     22  C   UNL     1      -0.757  -0.036  24.504  0.00  0.00    +0.244 C 
ATOM     30  H   UNL     1      -1.209  -1.573  23.163  0.00  0.00    +0.149 HD
BRANCH  22  23
ATOM     23  C   UNL     1       0.572   0.168  23.872  0.00  0.00    +0.037 A 
ATOM     24  C   UNL     1       1.090  -0.799  23.011  0.00  0.00    +0.016 A 
ATOM     25  C   UNL     1       1.302   1.325  24.142  0.00  0.00    +0.016 A 
ATOM     26  C   UNL     1       2.338  -0.609  22.419  0.00  0.00    +0.046 A 
ATOM     27  C   UNL     1       2.551   1.515  23.550  0.00  0.00    +0.046 A 
ATOM     28  C   UNL     1       3.069   0.549  22.689  0.00  0.00    +0.120 A 
BRANCH  28   6
ATOM      6  O   UNL     1       4.288   0.733  22.112  0.00  0.00    -0.495 OA
ATOM     29  C   UNL     1       5.424   0.256  22.832  0.00  0.00    +0.277 C 
ENDBRANCH  28   6
ENDBRANCH  22  23
ENDBRANCH  11   7
BRANCH  12   3
ATOM      3  O   UNL     1      -5.869   1.883  25.547  0.00  0.00    -0.442 OA
BRANCH   3  21
ATOM      4  O   UNL     1      -6.141   4.151  25.788  0.00  0.00    -0.226 OA
ATOM      8  N   UNL     1      -4.116   3.246  25.108  0.00  0.00    -0.278 N 
ATOM     21  C   UNL     1      -5.435   3.189  25.506  0.00  0.00    +0.401 C 
ATOM     31  H   UNL     1      -3.664   2.371  24.861  0.00  0.00    +0.152 HD
BRANCH   8  15
ATOM     15  C   UNL     1      -3.372   4.479  24.968  0.00  0.00    +0.076 C 
ATOM     16  C   UNL     1      -2.463   4.713  26.179  0.00  0.00    +0.022 C 
ATOM     17  C   UNL     1      -2.572   4.495  23.661  0.00  0.00    +0.022 C 
ATOM     18  C   UNL     1      -1.269   3.759  26.208  0.00  0.00    +0.002 C 
ATOM     19  C   UNL     1      -1.379   3.539  23.695  0.00  0.00    +0.002 C 
ATOM     20  C   UNL     1      -0.483   3.800  24.901  0.00  0.00    +0.000 C 
ENDBRANCH   8  15
ENDBRANCH   3  21
ENDBRANCH  12   3
TORSDOF 6
ENDMDL
