MODEL 1
REMARK VINA RESULT:       3.1      0.000      0.000
REMARK  Name = 51138084
REMARK  10 active torsions:
REMARK  status: ('A' for Active; 'I' for Inactive)
REMARK    1  A    between atoms: N_4  and  C_22
REMARK    2  A    between atoms: N_5  and  C_23
REMARK    3  A    between atoms: C_6  and  C_10
REMARK    4  A    between atoms: C_8  and  C_17
REMARK    5  A    between atoms: C_10  and  C_13
REMARK    6  A    between atoms: C_13  and  C_20
REMARK    7  A    between atoms: C_13  and  C_21
REMARK    8  A    between atoms: C_22  and  C_24
REMARK    9  A    between atoms: C_23  and  C_25
REMARK   10  A    between atoms: C_26  and  C_30
REMARK                            x       y       z     vdW  Elec       q    Type
REMARK                         _______ _______ _______ _____ _____    ______ ____
ROOT
ATOM      3  N   UNL     1      -1.332  -0.488  24.786  0.00  0.00    -0.299 NA
ATOM      4  N   UNL     1      -2.284   4.431  25.417  0.00  0.00    -0.335 N 
ATOM      6  C   UNL     1      -2.790  -0.347  24.673  0.00  0.00    +0.085 C 
ATOM      7  C   UNL     1      -3.357   1.036  25.010  0.00  0.00    -0.021 A 
ATOM      8  C   UNL     1      -0.567   0.335  23.860  0.00  0.00    +0.145 C 
ATOM      9  C   UNL     1      -2.596   2.238  25.086  0.00  0.00    +0.008 A 
ATOM     11  C   UNL     1      -0.098   1.631  24.519  0.00  0.00    +0.065 C 
ATOM     12  C   UNL     1      -1.208   2.557  24.889  0.00  0.00    -0.020 A 
ATOM     14  C   UNL     1      -3.239   3.443  25.392  0.00  0.00    +0.050 A 
ATOM     15  C   UNL     1      -1.061   3.912  25.111  0.00  0.00    +0.091 A 
ATOM     16  C   UNL     1      -4.757   1.169  25.190  0.00  0.00    +0.006 A 
ATOM     18  C   UNL     1      -4.614   3.546  25.611  0.00  0.00    +0.026 A 
ATOM     19  C   UNL     1      -5.367   2.386  25.491  0.00  0.00    +0.002 A 
ATOM     31  H   UNL     1      -1.026  -0.342  25.748  0.00  0.00    +0.123 HD
ENDROOT
BRANCH   8  17
ATOM      2  O   UNL     1       0.916  -1.519  24.105  0.00  0.00    -0.274 OA
ATOM      5  N   UNL     1       1.343   0.055  22.444  0.00  0.00    -0.309 N 
ATOM     17  C   UNL     1       0.630  -0.491  23.497  0.00  0.00    +0.231 C 
ATOM     32  H   UNL     1       1.011   0.905  21.996  0.00  0.00    +0.149 HD
BRANCH   5  23
ATOM     23  C   UNL     1       2.551  -0.535  21.916  0.00  0.00    +0.146 C 
BRANCH  23  25
ATOM      1  S   UNL     1       4.397  -1.502  23.753  0.00  0.00    -0.100 S 
ATOM     25  C   UNL     1       3.741  -0.251  22.786  0.00  0.00    +0.007 A 
ATOM     27  C   UNL     1       4.429   0.933  22.937  0.00  0.00    +0.013 A 
ATOM     28  C   UNL     1       5.508   0.811  23.859  0.00  0.00    +0.008 A 
ATOM     29  C   UNL     1       5.604  -0.461  24.378  0.00  0.00    +0.045 A 
ENDBRANCH  23  25
ENDBRANCH   5  23
ENDBRANCH   8  17
BRANCH   6  10
ATOM     10  C   UNL     1      -3.359  -1.455  25.576  0.00  0.00    +0.026 C 
BRANCH  10  13
ATOM     13  C   UNL     1      -3.626  -2.763  24.824  0.00  0.00    -0.015 C 
ATOM     20  C   UNL     1      -2.302  -3.323  24.299  0.00  0.00    +0.007 C 
ATOM     21  C   UNL     1      -4.608  -2.585  23.664  0.00  0.00    +0.007 C 
ENDBRANCH  10  13
ENDBRANCH   6  10
BRANCH   4  22
ATOM     22  C   UNL     1      -2.525   5.829  25.706  0.00  0.00    +0.210 C 
BRANCH  22  24
ATOM     24  C   UNL     1      -2.559   6.645  24.485  0.00  0.00    -0.081 C 
ATOM     26  C   UNL     1      -2.585   7.312  23.487  0.00  0.00    -0.104 C 
ATOM     30  C   UNL     1      -2.618   8.125  22.273  0.00  0.00    +0.106 C 
ENDBRANCH  22  24
ENDBRANCH   4  22
TORSDOF 7
ENDMDL
MODEL 2
REMARK VINA RESULT:       3.5      1.724      2.032
REMARK  Name = 51138084
REMARK  10 active torsions:
REMARK  status: ('A' for Active; 'I' for Inactive)
REMARK    1  A    between atoms: N_4  and  C_22
REMARK    2  A    between atoms: N_5  and  C_23
REMARK    3  A    between atoms: C_6  and  C_10
REMARK    4  A    between atoms: C_8  and  C_17
REMARK    5  A    between atoms: C_10  and  C_13
REMARK    6  A    between atoms: C_13  and  C_20
REMARK    7  A    between atoms: C_13  and  C_21
REMARK    8  A    between atoms: C_22  and  C_24
REMARK    9  A    between atoms: C_23  and  C_25
REMARK   10  A    between atoms: C_26  and  C_30
REMARK                            x       y       z     vdW  Elec       q    Type
REMARK                         _______ _______ _______ _____ _____    ______ ____
ROOT
ATOM      3  N   UNL     1      -0.156  -0.616  23.638  0.00  0.00    -0.299 NA
ATOM      4  N   UNL     1      -2.297   3.447  25.736  0.00  0.00    -0.335 N 
ATOM      6  C   UNL     1      -1.604  -0.853  23.575  0.00  0.00    +0.085 C 
ATOM      7  C   UNL     1      -2.481   0.161  24.318  0.00  0.00    -0.021 A 
ATOM      8  C   UNL     1       0.287   0.618  23.004  0.00  0.00    +0.145 C 
ATOM      9  C   UNL     1      -2.055   1.448  24.754  0.00  0.00    +0.008 A 
ATOM     11  C   UNL     1       0.457   1.742  24.024  0.00  0.00    +0.065 C 
ATOM     12  C   UNL     1      -0.820   2.179  24.660  0.00  0.00    -0.020 A 
ATOM     14  C   UNL     1      -2.962   2.288  25.414  0.00  0.00    +0.050 A 
ATOM     15  C   UNL     1      -1.012   3.396  25.283  0.00  0.00    +0.091 A 
ATOM     16  C   UNL     1      -3.847  -0.153  24.533  0.00  0.00    +0.006 A 
ATOM     18  C   UNL     1      -4.292   1.941  25.657  0.00  0.00    +0.026 A 
ATOM     19  C   UNL     1      -4.725   0.707  25.192  0.00  0.00    +0.002 A 
ATOM     31  H   UNL     1       0.183  -0.680  24.597  0.00  0.00    +0.123 HD
ENDROOT
BRANCH   8  17
ATOM      2  O   UNL     1       1.783  -0.676  21.668  0.00  0.00    -0.274 OA
ATOM      5  N   UNL     1       2.603   1.188  22.797  0.00  0.00    -0.309 N 
ATOM     17  C   UNL     1       1.622   0.294  22.404  0.00  0.00    +0.231 C 
ATOM     32  H   UNL     1       2.361   1.970  23.398  0.00  0.00    +0.149 HD
BRANCH   5  23
ATOM     23  C   UNL     1       3.981   1.085  22.377  0.00  0.00    +0.146 C 
BRANCH  23  25
ATOM      1  S   UNL     1       4.217  -1.426  23.543  0.00  0.00    -0.100 S 
ATOM     25  C   UNL     1       4.772   0.171  23.267  0.00  0.00    +0.007 A 
ATOM     27  C   UNL     1       5.946   0.433  23.939  0.00  0.00    +0.013 A 
ATOM     28  C   UNL     1       6.395  -0.692  24.689  0.00  0.00    +0.008 A 
ATOM     29  C   UNL     1       5.548  -1.771  24.563  0.00  0.00    +0.045 A 
ENDBRANCH  23  25
ENDBRANCH   5  23
ENDBRANCH   8  17
BRANCH   6  10
ATOM     10  C   UNL     1      -1.786  -2.288  24.100  0.00  0.00    +0.026 C 
BRANCH  10  13
ATOM     13  C   UNL     1      -3.196  -2.556  24.636  0.00  0.00    -0.015 C 
ATOM     20  C   UNL     1      -3.106  -2.991  26.101  0.00  0.00    +0.007 C 
ATOM     21  C   UNL     1      -3.942  -3.618  23.826  0.00  0.00    +0.007 C 
ENDBRANCH  10  13
ENDBRANCH   6  10
BRANCH   4  22
ATOM     22  C   UNL     1      -2.868   4.578  26.436  0.00  0.00    +0.210 C 
BRANCH  22  24
ATOM     24  C   UNL     1      -4.244   4.857  26.004  0.00  0.00    -0.081 C 
ATOM     26  C   UNL     1      -5.368   5.082  25.648  0.00  0.00    -0.104 C 
ATOM     30  C   UNL     1      -6.736   5.360  25.216  0.00  0.00    +0.106 C 
ENDBRANCH  22  24
ENDBRANCH   4  22
TORSDOF 7
ENDMDL
MODEL 3
REMARK VINA RESULT:       5.4      2.070      3.433
REMARK  Name = 51138084
REMARK  10 active torsions:
REMARK  status: ('A' for Active; 'I' for Inactive)
REMARK    1  A    between atoms: N_4  and  C_22
REMARK    2  A    between atoms: N_5  and  C_23
REMARK    3  A    between atoms: C_6  and  C_10
REMARK    4  A    between atoms: C_8  and  C_17
REMARK    5  A    between atoms: C_10  and  C_13
REMARK    6  A    between atoms: C_13  and  C_20
REMARK    7  A    between atoms: C_13  and  C_21
REMARK    8  A    between atoms: C_22  and  C_24
REMARK    9  A    between atoms: C_23  and  C_25
REMARK   10  A    between atoms: C_26  and  C_30
REMARK                            x       y       z     vdW  Elec       q    Type
REMARK                         _______ _______ _______ _____ _____    ______ ____
ROOT
ATOM      3  N   UNL     1       0.009  -0.453  23.844  0.00  0.00    -0.299 NA
ATOM      4  N   UNL     1      -3.875   2.537  25.059  0.00  0.00    -0.335 N 
ATOM      6  C   UNL     1      -1.198  -1.184  23.438  0.00  0.00    +0.085 C 
ATOM      7  C   UNL     1      -2.532  -0.564  23.867  0.00  0.00    -0.021 A 
ATOM      8  C   UNL     1       0.144   0.874  23.259  0.00  0.00    +0.145 C 
ATOM      9  C   UNL     1      -2.708   0.779  24.307  0.00  0.00    +0.008 A 
ATOM     11  C   UNL     1      -0.357   1.959  24.210  0.00  0.00    +0.065 C 
ATOM     12  C   UNL     1      -1.824   1.901  24.476  0.00  0.00    -0.020 A 
ATOM     14  C   UNL     1      -3.987   1.227  24.661  0.00  0.00    +0.050 A 
ATOM     15  C   UNL     1      -2.581   2.955  24.947  0.00  0.00    +0.091 A 
ATOM     16  C   UNL     1      -3.710  -1.346  23.755  0.00  0.00    +0.006 A 
ATOM     18  C   UNL     1      -5.129   0.426  24.586  0.00  0.00    +0.026 A 
ATOM     19  C   UNL     1      -4.970  -0.869  24.113  0.00  0.00    +0.002 A 
ATOM     31  H   UNL     1       0.089  -0.417  24.860  0.00  0.00    +0.123 HD
ENDROOT
BRANCH   8  17
ATOM      2  O   UNL     1       2.264   1.892  23.658  0.00  0.00    -0.274 OA
ATOM      5  N   UNL     1       2.104   0.209  22.058  0.00  0.00    -0.309 N 
ATOM     17  C   UNL     1       1.614   1.058  23.035  0.00  0.00    +0.231 C 
ATOM     32  H   UNL     1       1.483  -0.459  21.611  0.00  0.00    +0.149 HD
BRANCH   5  23
ATOM     23  C   UNL     1       3.486   0.203  21.637  0.00  0.00    +0.146 C 
BRANCH  23  25
ATOM      1  S   UNL     1       4.430  -1.487  23.630  0.00  0.00    -0.100 S 
ATOM     25  C   UNL     1       4.424   0.007  22.793  0.00  0.00    +0.007 A 
ATOM     27  C   UNL     1       5.336   0.897  23.317  0.00  0.00    +0.013 A 
ATOM     28  C   UNL     1       6.048   0.344  24.421  0.00  0.00    +0.008 A 
ATOM     29  C   UNL     1       5.654  -0.946  24.698  0.00  0.00    +0.045 A 
ENDBRANCH  23  25
ENDBRANCH   5  23
ENDBRANCH   8  17
BRANCH   6  10
ATOM     10  C   UNL     1      -0.999  -2.604  23.997  0.00  0.00    +0.026 C 
BRANCH  10  13
ATOM     13  C   UNL     1      -0.633  -2.616  25.484  0.00  0.00    -0.015 C 
ATOM     20  C   UNL     1      -1.028  -1.277  26.113  0.00  0.00    +0.007 C 
ATOM     21  C   UNL     1       0.855  -2.880  25.723  0.00  0.00    +0.007 C 
ENDBRANCH  10  13
ENDBRANCH   6  10
BRANCH   4  22
ATOM     22  C   UNL     1      -4.963   3.375  25.516  0.00  0.00    +0.210 C 
BRANCH  22  24
ATOM     24  C   UNL     1      -5.908   2.637  26.363  0.00  0.00    -0.081 C 
ATOM     26  C   UNL     1      -6.681   2.035  27.057  0.00  0.00    -0.104 C 
ATOM     30  C   UNL     1      -7.621   1.299  27.900  0.00  0.00    +0.106 C 
ENDBRANCH  22  24
ENDBRANCH   4  22
TORSDOF 7
ENDMDL
MODEL 4
REMARK VINA RESULT:       5.9      1.810      4.841
REMARK  Name = 51138084
REMARK  10 active torsions:
REMARK  status: ('A' for Active; 'I' for Inactive)
REMARK    1  A    between atoms: N_4  and  C_22
REMARK    2  A    between atoms: N_5  and  C_23
REMARK    3  A    between atoms: C_6  and  C_10
REMARK    4  A    between atoms: C_8  and  C_17
REMARK    5  A    between atoms: C_10  and  C_13
REMARK    6  A    between atoms: C_13  and  C_20
REMARK    7  A    between atoms: C_13  and  C_21
REMARK    8  A    between atoms: C_22  and  C_24
REMARK    9  A    between atoms: C_23  and  C_25
REMARK   10  A    between atoms: C_26  and  C_30
REMARK                            x       y       z     vdW  Elec       q    Type
REMARK                         _______ _______ _______ _____ _____    ______ ____
ROOT
ATOM      3  N   UNL     1      -0.085   1.900  24.055  0.00  0.00    -0.299 NA
ATOM      4  N   UNL     1      -5.028   1.657  25.062  0.00  0.00    -0.335 N 
ATOM      6  C   UNL     1      -0.317   2.856  25.146  0.00  0.00    +0.085 C 
ATOM      7  C   UNL     1      -1.782   3.107  25.517  0.00  0.00    -0.021 A 
ATOM      8  C   UNL     1      -0.514   0.537  24.339  0.00  0.00    +0.145 C 
ATOM      9  C   UNL     1      -2.876   2.272  25.147  0.00  0.00    +0.008 A 
ATOM     11  C   UNL     1      -1.901   0.256  23.765  0.00  0.00    +0.065 C 
ATOM     12  C   UNL     1      -2.992   1.047  24.403  0.00  0.00    -0.020 A 
ATOM     14  C   UNL     1      -4.170   2.607  25.563  0.00  0.00    +0.050 A 
ATOM     15  C   UNL     1      -4.331   0.712  24.369  0.00  0.00    +0.091 A 
ATOM     16  C   UNL     1      -2.090   4.207  26.357  0.00  0.00    +0.006 A 
ATOM     18  C   UNL     1      -4.459   3.722  26.352  0.00  0.00    +0.026 A 
ATOM     19  C   UNL     1      -3.391   4.512  26.755  0.00  0.00    +0.002 A 
ATOM     31  H   UNL     1      -0.489   2.239  23.182  0.00  0.00    +0.123 HD
ENDROOT
BRANCH   8  17
ATOM      2  O   UNL     1       0.506  -1.557  23.821  0.00  0.00    -0.274 OA
ATOM      5  N   UNL     1       1.364   0.384  22.863  0.00  0.00    -0.309 N 
ATOM     17  C   UNL     1       0.489  -0.341  23.654  0.00  0.00    +0.231 C 
ATOM     32  H   UNL     1       1.254   1.391  22.779  0.00  0.00    +0.149 HD
BRANCH   5  23
ATOM     23  C   UNL     1       2.440  -0.223  22.114  0.00  0.00    +0.146 C 
BRANCH  23  25
ATOM      1  S   UNL     1       4.253  -1.565  23.735  0.00  0.00    -0.100 S 
ATOM     25  C   UNL     1       3.739  -0.183  22.865  0.00  0.00    +0.007 A 
ATOM     27  C   UNL     1       4.636   0.857  22.971  0.00  0.00    +0.013 A 
ATOM     28  C   UNL     1       5.760   0.514  23.777  0.00  0.00    +0.008 A 
ATOM     29  C   UNL     1       5.679  -0.774  24.257  0.00  0.00    +0.045 A 
ENDBRANCH  23  25
ENDBRANCH   5  23
ENDBRANCH   8  17
BRANCH   6  10
ATOM     10  C   UNL     1       0.407   4.139  24.699  0.00  0.00    +0.026 C 
BRANCH  10  13
ATOM     13  C   UNL     1      -0.416   4.981  23.720  0.00  0.00    -0.015 C 
ATOM     20  C   UNL     1       0.499   5.505  22.610  0.00  0.00    +0.007 C 
ATOM     21  C   UNL     1      -1.124   6.153  24.402  0.00  0.00    +0.007 C 
ENDBRANCH  10  13
ENDBRANCH   6  10
BRANCH   4  22
ATOM     22  C   UNL     1      -6.463   1.635  25.250  0.00  0.00    +0.210 C 
BRANCH  22  24
ATOM     24  C   UNL     1      -6.835   1.180  26.596  0.00  0.00    -0.081 C 
ATOM     26  C   UNL     1      -7.137   0.808  27.697  0.00  0.00    -0.104 C 
ATOM     30  C   UNL     1      -7.507   0.355  29.036  0.00  0.00    +0.106 C 
ENDBRANCH  22  24
ENDBRANCH   4  22
TORSDOF 7
ENDMDL
