MODEL 1
REMARK VINA RESULT:      -1.8      0.000      0.000
REMARK  Name = 11941211
REMARK  10 active torsions:
REMARK  status: ('A' for Active; 'I' for Inactive)
REMARK    1  A    between atoms: O_3  and  C_10
REMARK    2  A    between atoms: O_3  and  C_15
REMARK    3  A    between atoms: N_4  and  C_9
REMARK    4  A    between atoms: N_4  and  C_13
REMARK    5  A    between atoms: C_13  and  C_16
REMARK    6  A    between atoms: C_15  and  C_19
REMARK    7  A    between atoms: C_17  and  C_18
REMARK    8  A    between atoms: C_18  and  C_24
REMARK    9  A    between atoms: C_18  and  C_25
REMARK   10  A    between atoms: C_18  and  C_26
REMARK                            x       y       z     vdW  Elec       q    Type
REMARK                         _______ _______ _______ _____ _____    ______ ____
ROOT
ATOM      4  N   UNL     1       0.840   0.318  23.728  0.00  0.00    -0.287 N 
ATOM      5  N   UNL     1      -1.328  -0.485  24.122  0.00  0.00    -0.219 NA
ATOM      6  N   UNL     1       0.596  -1.887  24.493  0.00  0.00    -0.223 NA
ATOM     14  C   UNL     1       0.001  -0.728  24.132  0.00  0.00    +0.219 A 
ATOM     17  C   UNL     1      -2.107  -1.515  24.515  0.00  0.00    +0.052 A 
ATOM     22  C   UNL     1      -0.242  -2.874  24.875  0.00  0.00    +0.116 A 
ATOM     23  C   UNL     1      -1.615  -2.744  24.906  0.00  0.00    +0.043 A 
ENDROOT
BRANCH   4   9
ATOM      1  O   UNL     1      -0.676   2.994  23.274  0.00  0.00    -0.369 OA
ATOM      2  O   UNL     1      -0.189   2.725  26.291  0.00  0.00    -0.369 OA
ATOM      7  C   UNL     1      -0.397   1.734  25.264  0.00  0.00    +0.172 C 
ATOM      8  C   UNL     1      -1.415   2.309  24.299  0.00  0.00    +0.180 C 
ATOM      9  C   UNL     1       0.853   1.584  24.430  0.00  0.00    +0.133 C 
ATOM     10  C   UNL     1      -2.185   3.272  25.171  0.00  0.00    +0.175 C 
ATOM     11  C   UNL     1       0.725   2.733  23.445  0.00  0.00    +0.185 C 
ATOM     12  C   UNL     1      -1.106   3.809  26.082  0.00  0.00    +0.194 C 
BRANCH  10   3
ATOM      3  O   UNL     1      -2.828   4.296  24.447  0.00  0.00    -0.367 OA
BRANCH   3  15
ATOM     15  C   UNL     1      -3.962   3.812  23.731  0.00  0.00    +0.195 C 
BRANCH  15  19
ATOM     19  C   UNL     1      -4.881   3.110  24.688  0.00  0.00    -0.022 A 
ATOM     27  C   UNL     1      -5.682   2.068  24.234  0.00  0.00    +0.006 A 
ATOM     28  C   UNL     1      -4.923   3.507  26.020  0.00  0.00    +0.006 A 
ATOM     32  C   UNL     1      -6.536   1.416  25.123  0.00  0.00    +0.000 A 
ATOM     33  C   UNL     1      -5.777   2.855  26.909  0.00  0.00    +0.000 A 
ATOM     34  C   UNL     1      -6.583   1.809  26.461  0.00  0.00    +0.000 A 
ENDBRANCH  15  19
ENDBRANCH   3  15
ENDBRANCH  10   3
ENDBRANCH   4   9
BRANCH  17  18
ATOM     18  C   UNL     1      -3.581  -1.279  24.517  0.00  0.00    +0.005 C 
ATOM     24  C   UNL     1      -4.456  -2.504  24.092  0.00  0.00    +0.017 C 
ATOM     25  C   UNL     1      -4.086  -0.878  25.936  0.00  0.00    +0.017 C 
ATOM     26  C   UNL     1      -3.970  -0.131  23.535  0.00  0.00    +0.017 C 
ENDBRANCH  17  18
BRANCH   4  13
ATOM     13  C   UNL     1       1.739   0.144  22.589  0.00  0.00    +0.143 C 
BRANCH  13  16
ATOM     16  C   UNL     1       3.155  -0.044  23.058  0.00  0.00    -0.030 A 
ATOM     20  C   UNL     1       3.552  -1.276  23.563  0.00  0.00    +0.005 A 
ATOM     21  C   UNL     1       4.050   1.016  22.982  0.00  0.00    +0.005 A 
ATOM     29  C   UNL     1       4.866  -1.450  23.999  0.00  0.00    +0.000 A 
ATOM     30  C   UNL     1       5.363   0.841  23.417  0.00  0.00    +0.000 A 
ATOM     31  C   UNL     1       5.772  -0.392  23.926  0.00  0.00    +0.000 A 
ENDBRANCH  13  16
ENDBRANCH   4  13
TORSDOF 7
ENDMDL
