MODEL 1
REMARK VINA RESULT:       5.7      0.000      0.000
REMARK  Name = 75537035
REMARK  5 active torsions:
REMARK  status: ('A' for Active; 'I' for Inactive)
REMARK    1  A    between atoms: N_7  and  C_17
REMARK    2  A    between atoms: N_9  and  C_24
REMARK    3  A    between atoms: C_17  and  C_19
REMARK    4  A    between atoms: C_18  and  C_20
REMARK    5  A    between atoms: C_28  and  C_29
REMARK                            x       y       z     vdW  Elec       q    Type
REMARK                         _______ _______ _______ _____ _____    ______ ____
ROOT
ATOM      4  O   UNL     1       2.454  -2.154  23.661  0.00  0.00    -0.252 OA
ATOM      5  O   UNL     1      -4.064  -1.305  26.030  0.00  0.00    -0.270 OA
ATOM      6  N   UNL     1       0.454  -1.081  24.267  0.00  0.00    -0.278 N 
ATOM      7  N   UNL     1       1.963   0.075  23.069  0.00  0.00    -0.276 N 
ATOM      8  N   UNL     1      -2.285  -0.762  24.614  0.00  0.00    -0.294 N 
ATOM     11  C   UNL     1      -0.098   0.260  24.181  0.00  0.00    +0.112 C 
ATOM     12  C   UNL     1       0.824   0.969  23.192  0.00  0.00    +0.134 C 
ATOM     13  C   UNL     1      -1.563   0.202  23.762  0.00  0.00    +0.132 C 
ATOM     14  C   UNL     1      -0.256  -2.109  25.009  0.00  0.00    +0.128 C 
ATOM     15  C   UNL     1      -1.729  -2.123  24.605  0.00  0.00    +0.127 C 
ATOM     16  C   UNL     1       1.718  -1.176  23.668  0.00  0.00    +0.306 C 
ATOM     18  C   UNL     1      -3.436  -0.490  25.354  0.00  0.00    +0.247 C 
ENDROOT
BRANCH  18  20
ATOM     20  C   UNL     1      -3.954   0.885  25.348  0.00  0.00    +0.037 A 
ATOM     21  C   UNL     1      -3.071   1.964  25.364  0.00  0.00    +0.013 A 
ATOM     22  C   UNL     1      -5.331   1.110  25.328  0.00  0.00    +0.013 A 
ATOM     26  C   UNL     1      -3.564   3.269  25.359  0.00  0.00    +0.013 A 
ATOM     27  C   UNL     1      -5.824   2.414  25.324  0.00  0.00    +0.013 A 
ATOM     28  C   UNL     1      -4.940   3.494  25.339  0.00  0.00    +0.055 A 
BRANCH  28  29
ATOM      1  F   UNL     1      -6.815   4.967  25.537  0.00  0.00    -0.166 F 
ATOM      2  F   UNL     1      -5.243   5.556  24.164  0.00  0.00    -0.166 F 
ATOM      3  F   UNL     1      -4.906   5.664  26.309  0.00  0.00    -0.166 F 
ATOM     29  C   UNL     1      -5.467   4.890  25.335  0.00  0.00    +0.417 C 
ENDBRANCH  28  29
ENDBRANCH  18  20
BRANCH   7  17
ATOM     17  C   UNL     1       3.132   0.427  22.295  0.00  0.00    +0.183 C 
BRANCH  17  19
ATOM      9  N   UNL     1       5.024  -0.577  23.607  0.00  0.00    -0.336 N 
ATOM     10  N   UNL     1       4.935   1.641  23.550  0.00  0.00    -0.239 NA
ATOM     19  C   UNL     1       4.362   0.528  23.150  0.00  0.00    +0.127 A 
ATOM     23  C   UNL     1       6.087  -0.141  24.346  0.00  0.00    +0.106 A 
ATOM     24  C   UNL     1       4.678  -1.959  23.364  0.00  0.00    +0.150 C 
ATOM     25  C   UNL     1       6.011   1.231  24.297  0.00  0.00    +0.130 A 
ENDBRANCH  17  19
ENDBRANCH   7  17
TORSDOF 4
ENDMDL
MODEL 2
REMARK VINA RESULT:       7.0      4.854      9.012
REMARK  Name = 75537035
REMARK  5 active torsions:
REMARK  status: ('A' for Active; 'I' for Inactive)
REMARK    1  A    between atoms: N_7  and  C_17
REMARK    2  A    between atoms: N_9  and  C_24
REMARK    3  A    between atoms: C_17  and  C_19
REMARK    4  A    between atoms: C_18  and  C_20
REMARK    5  A    between atoms: C_28  and  C_29
REMARK                            x       y       z     vdW  Elec       q    Type
REMARK                         _______ _______ _______ _____ _____    ______ ____
ROOT
ATOM      4  O   UNL     1      -4.081   3.087  23.459  0.00  0.00    -0.252 OA
ATOM      5  O   UNL     1       0.979  -0.784  20.589  0.00  0.00    -0.270 OA
ATOM      6  N   UNL     1      -1.959   2.136  23.120  0.00  0.00    -0.278 N 
ATOM      7  N   UNL     1      -2.346   3.220  25.051  0.00  0.00    -0.276 N 
ATOM      8  N   UNL     1      -0.098   0.196  22.418  0.00  0.00    -0.294 N 
ATOM     11  C   UNL     1      -0.677   2.135  23.804  0.00  0.00    +0.112 C 
ATOM     12  C   UNL     1      -1.005   2.679  25.192  0.00  0.00    +0.134 C 
ATOM     13  C   UNL     1      -0.075   0.734  23.792  0.00  0.00    +0.132 C 
ATOM     14  C   UNL     1      -2.077   1.534  21.803  0.00  0.00    +0.128 C 
ATOM     15  C   UNL     1      -1.431   0.150  21.801  0.00  0.00    +0.127 C 
ATOM     16  C   UNL     1      -2.939   2.848  23.828  0.00  0.00    +0.306 C 
ATOM     18  C   UNL     1       1.006  -0.294  21.718  0.00  0.00    +0.247 C 
ENDROOT
BRANCH  18  20
ATOM     20  C   UNL     1       2.324  -0.220  22.363  0.00  0.00    +0.037 A 
ATOM     21  C   UNL     1       3.145   0.886  22.147  0.00  0.00    +0.013 A 
ATOM     22  C   UNL     1       2.753  -1.257  23.190  0.00  0.00    +0.013 A 
ATOM     26  C   UNL     1       4.397   0.956  22.758  0.00  0.00    +0.013 A 
ATOM     27  C   UNL     1       4.005  -1.188  23.801  0.00  0.00    +0.013 A 
ATOM     28  C   UNL     1       4.827  -0.081  23.586  0.00  0.00    +0.055 A 
BRANCH  28  29
ATOM      1  F   UNL     1       7.208  -0.177  23.373  0.00  0.00    -0.166 F 
ATOM      2  F   UNL     1       6.353  -0.949  25.211  0.00  0.00    -0.166 F 
ATOM      3  F   UNL     1       6.387   1.194  24.848  0.00  0.00    -0.166 F 
ATOM     29  C   UNL     1       6.166  -0.007  24.239  0.00  0.00    +0.417 C 
ENDBRANCH  28  29
ENDBRANCH  18  20
BRANCH   7  17
ATOM     17  C   UNL     1      -3.000   3.935  26.123  0.00  0.00    +0.183 C 
BRANCH  17  19
ATOM      9  N   UNL     1      -5.203   2.735  25.980  0.00  0.00    -0.336 N 
ATOM     10  N   UNL     1      -5.281   4.952  25.868  0.00  0.00    -0.239 NA
ATOM     19  C   UNL     1      -4.496   3.905  25.988  0.00  0.00    +0.127 A 
ATOM     23  C   UNL     1      -6.524   3.057  25.844  0.00  0.00    +0.106 A 
ATOM     24  C   UNL     1      -4.669   1.397  26.091  0.00  0.00    +0.150 C 
ATOM     25  C   UNL     1      -6.547   4.429  25.777  0.00  0.00    +0.130 A 
ENDBRANCH  17  19
ENDBRANCH   7  17
TORSDOF 4
ENDMDL
MODEL 3
REMARK VINA RESULT:       7.9      1.600      2.294
REMARK  Name = 75537035
REMARK  5 active torsions:
REMARK  status: ('A' for Active; 'I' for Inactive)
REMARK    1  A    between atoms: N_7  and  C_17
REMARK    2  A    between atoms: N_9  and  C_24
REMARK    3  A    between atoms: C_17  and  C_19
REMARK    4  A    between atoms: C_18  and  C_20
REMARK    5  A    between atoms: C_28  and  C_29
REMARK                            x       y       z     vdW  Elec       q    Type
REMARK                         _______ _______ _______ _____ _____    ______ ____
ROOT
ATOM      4  O   UNL     1       0.470  -3.169  25.596  0.00  0.00    -0.252 OA
ATOM      5  O   UNL     1      -5.437   0.542  25.987  0.00  0.00    -0.270 OA
ATOM      6  N   UNL     1      -1.023  -1.372  25.345  0.00  0.00    -0.278 N 
ATOM      7  N   UNL     1       0.924  -1.305  24.224  0.00  0.00    -0.276 N 
ATOM      8  N   UNL     1      -3.454  -0.093  24.926  0.00  0.00    -0.294 N 
ATOM     11  C   UNL     1      -1.011  -0.066  24.708  0.00  0.00    +0.112 C 
ATOM     12  C   UNL     1       0.205  -0.122  23.787  0.00  0.00    +0.134 C 
ATOM     13  C   UNL     1      -2.338   0.188  24.002  0.00  0.00    +0.132 C 
ATOM     14  C   UNL     1      -2.140  -1.754  26.191  0.00  0.00    +0.128 C 
ATOM     15  C   UNL     1      -3.460  -1.453  25.483  0.00  0.00    +0.127 C 
ATOM     16  C   UNL     1       0.164  -2.084  25.119  0.00  0.00    +0.306 C 
ATOM     18  C   UNL     1      -4.483   0.792  25.251  0.00  0.00    +0.247 C 
ENDROOT
BRANCH  18  20
ATOM     20  C   UNL     1      -4.436   2.147  24.685  0.00  0.00    +0.037 A 
ATOM     21  C   UNL     1      -3.940   2.348  23.397  0.00  0.00    +0.013 A 
ATOM     22  C   UNL     1      -4.886   3.231  25.437  0.00  0.00    +0.013 A 
ATOM     26  C   UNL     1      -3.894   3.635  22.861  0.00  0.00    +0.013 A 
ATOM     27  C   UNL     1      -4.841   4.518  24.901  0.00  0.00    +0.013 A 
ATOM     28  C   UNL     1      -4.346   4.720  23.613  0.00  0.00    +0.055 A 
BRANCH  28  29
ATOM      1  F   UNL     1      -4.342   6.124  21.675  0.00  0.00    -0.166 F 
ATOM      2  F   UNL     1      -3.165   6.787  23.372  0.00  0.00    -0.166 F 
ATOM      3  F   UNL     1      -5.335   6.876  23.457  0.00  0.00    -0.166 F 
ATOM     29  C   UNL     1      -4.296   6.096  23.040  0.00  0.00    +0.417 C 
ENDBRANCH  28  29
ENDBRANCH  18  20
BRANCH   7  17
ATOM     17  C   UNL     1       2.210  -1.667  23.672  0.00  0.00    +0.183 C 
BRANCH  17  19
ATOM      9  N   UNL     1       4.357  -0.376  23.491  0.00  0.00    -0.336 N 
ATOM     10  N   UNL     1       2.541   0.620  22.692  0.00  0.00    -0.239 NA
ATOM     19  C   UNL     1       3.011  -0.461  23.274  0.00  0.00    +0.127 A 
ATOM     23  C   UNL     1       4.773   0.836  23.017  0.00  0.00    +0.106 A 
ATOM     24  C   UNL     1       5.202  -1.374  24.107  0.00  0.00    +0.150 C 
ATOM     25  C   UNL     1       3.635   1.433  22.529  0.00  0.00    +0.130 A 
ENDBRANCH  17  19
ENDBRANCH   7  17
TORSDOF 4
ENDMDL
MODEL 4
REMARK VINA RESULT:       8.1      4.448      8.031
REMARK  Name = 75537035
REMARK  5 active torsions:
REMARK  status: ('A' for Active; 'I' for Inactive)
REMARK    1  A    between atoms: N_7  and  C_17
REMARK    2  A    between atoms: N_9  and  C_24
REMARK    3  A    between atoms: C_17  and  C_19
REMARK    4  A    between atoms: C_18  and  C_20
REMARK    5  A    between atoms: C_28  and  C_29
REMARK                            x       y       z     vdW  Elec       q    Type
REMARK                         _______ _______ _______ _____ _____    ______ ____
ROOT
ATOM      4  O   UNL     1      -6.050   1.085  24.909  0.00  0.00    -0.252 OA
ATOM      5  O   UNL     1      -0.604  -3.280  24.582  0.00  0.00    -0.270 OA
ATOM      6  N   UNL     1      -3.861   0.320  24.532  0.00  0.00    -0.278 N 
ATOM      7  N   UNL     1      -4.232   2.536  24.518  0.00  0.00    -0.276 N 
ATOM      8  N   UNL     1      -1.557  -1.177  24.949  0.00  0.00    -0.294 N 
ATOM     11  C   UNL     1      -2.585   0.902  24.152  0.00  0.00    +0.112 C 
ATOM     12  C   UNL     1      -2.795   2.400  24.355  0.00  0.00    +0.134 C 
ATOM     13  C   UNL     1      -1.460   0.295  24.982  0.00  0.00    +0.132 C 
ATOM     14  C   UNL     1      -4.001  -1.124  24.615  0.00  0.00    +0.128 C 
ATOM     15  C   UNL     1      -2.842  -1.717  25.415  0.00  0.00    +0.127 C 
ATOM     16  C   UNL     1      -4.865   1.287  24.678  0.00  0.00    +0.306 C 
ATOM     18  C   UNL     1      -0.537  -2.050  24.567  0.00  0.00    +0.247 C 
ENDROOT
BRANCH  18  20
ATOM     20  C   UNL     1       0.728  -1.473  24.095  0.00  0.00    +0.037 A 
ATOM     21  C   UNL     1       1.942  -2.047  24.474  0.00  0.00    +0.013 A 
ATOM     22  C   UNL     1       0.716  -0.349  23.270  0.00  0.00    +0.013 A 
ATOM     26  C   UNL     1       3.143  -1.498  24.026  0.00  0.00    +0.013 A 
ATOM     27  C   UNL     1       1.917   0.200  22.822  0.00  0.00    +0.013 A 
ATOM     28  C   UNL     1       3.131  -0.374  23.199  0.00  0.00    +0.055 A 
BRANCH  28  29
ATOM      1  F   UNL     1       5.508  -0.556  23.002  0.00  0.00    -0.166 F 
ATOM      2  F   UNL     1       4.692   1.437  23.263  0.00  0.00    -0.166 F 
ATOM      3  F   UNL     1       4.436   0.400  21.370  0.00  0.00    -0.166 F 
ATOM     29  C   UNL     1       4.416   0.214  22.721  0.00  0.00    +0.417 C 
ENDBRANCH  28  29
ENDBRANCH  18  20
BRANCH   7  17
ATOM     17  C   UNL     1      -4.871   3.828  24.631  0.00  0.00    +0.183 C 
BRANCH  17  19
ATOM      9  N   UNL     1      -2.895   5.174  25.399  0.00  0.00    -0.336 N 
ATOM     10  N   UNL     1      -3.862   5.835  23.513  0.00  0.00    -0.239 NA
ATOM     19  C   UNL     1      -3.889   4.955  24.488  0.00  0.00    +0.127 A 
ATOM     23  C   UNL     1      -2.187   6.265  24.979  0.00  0.00    +0.106 A 
ATOM     24  C   UNL     1      -2.626   4.406  26.593  0.00  0.00    +0.150 C 
ATOM     25  C   UNL     1      -2.802   6.655  23.813  0.00  0.00    +0.130 A 
ENDBRANCH  17  19
ENDBRANCH   7  17
TORSDOF 4
ENDMDL
MODEL 5
REMARK VINA RESULT:       8.9      0.720      1.630
REMARK  Name = 75537035
REMARK  5 active torsions:
REMARK  status: ('A' for Active; 'I' for Inactive)
REMARK    1  A    between atoms: N_7  and  C_17
REMARK    2  A    between atoms: N_9  and  C_24
REMARK    3  A    between atoms: C_17  and  C_19
REMARK    4  A    between atoms: C_18  and  C_20
REMARK    5  A    between atoms: C_28  and  C_29
REMARK                            x       y       z     vdW  Elec       q    Type
REMARK                         _______ _______ _______ _____ _____    ______ ____
ROOT
ATOM      4  O   UNL     1       2.868  -2.004  23.633  0.00  0.00    -0.252 OA
ATOM      5  O   UNL     1      -3.852  -1.682  25.519  0.00  0.00    -0.270 OA
ATOM      6  N   UNL     1       0.773  -1.086  24.171  0.00  0.00    -0.278 N 
ATOM      7  N   UNL     1       2.311   0.250  23.223  0.00  0.00    -0.276 N 
ATOM      8  N   UNL     1      -1.997  -0.922  24.317  0.00  0.00    -0.294 N 
ATOM     11  C   UNL     1       0.162   0.232  24.171  0.00  0.00    +0.112 C 
ATOM     12  C   UNL     1       1.122   1.077  23.337  0.00  0.00    +0.134 C 
ATOM     13  C   UNL     1      -1.260   0.154  23.627  0.00  0.00    +0.132 C 
ATOM     14  C   UNL     1       0.060  -2.214  24.747  0.00  0.00    +0.128 C 
ATOM     15  C   UNL     1      -1.374  -2.249  24.222  0.00  0.00    +0.127 C 
ATOM     16  C   UNL     1       2.084  -1.065  23.674  0.00  0.00    +0.306 C 
ATOM     18  C   UNL     1      -3.215  -0.775  24.982  0.00  0.00    +0.247 C 
ENDROOT
BRANCH  18  20
ATOM     20  C   UNL     1      -3.801   0.569  25.067  0.00  0.00    +0.037 A 
ATOM     21  C   UNL     1      -5.179   0.740  24.938  0.00  0.00    +0.013 A 
ATOM     22  C   UNL     1      -2.977   1.675  25.274  0.00  0.00    +0.013 A 
ATOM     26  C   UNL     1      -5.734   2.017  25.018  0.00  0.00    +0.013 A 
ATOM     27  C   UNL     1      -3.532   2.952  25.354  0.00  0.00    +0.013 A 
ATOM     28  C   UNL     1      -4.910   3.123  25.226  0.00  0.00    +0.055 A 
BRANCH  28  29
ATOM      1  F   UNL     1      -4.929   5.390  24.461  0.00  0.00    -0.166 F 
ATOM      2  F   UNL     1      -5.403   5.054  26.550  0.00  0.00    -0.166 F 
ATOM      3  F   UNL     1      -6.835   4.501  25.011  0.00  0.00    -0.166 F 
ATOM     29  C   UNL     1      -5.504   4.489  25.311  0.00  0.00    +0.417 C 
ENDBRANCH  28  29
ENDBRANCH  18  20
BRANCH   7  17
ATOM     17  C   UNL     1       3.518   0.729  22.588  0.00  0.00    +0.183 C 
BRANCH  17  19
ATOM      9  N   UNL     1       5.357   0.174  24.206  0.00  0.00    -0.336 N 
ATOM     10  N   UNL     1       5.305  -1.015  22.331  0.00  0.00    -0.239 NA
ATOM     19  C   UNL     1       4.726  -0.054  23.016  0.00  0.00    +0.127 A 
ATOM     23  C   UNL     1       6.407  -0.697  24.286  0.00  0.00    +0.106 A 
ATOM     24  C   UNL     1       4.997   1.152  25.207  0.00  0.00    +0.150 C 
ATOM     25  C   UNL     1       6.355  -1.420  23.119  0.00  0.00    +0.130 A 
ENDBRANCH  17  19
ENDBRANCH   7  17
TORSDOF 4
ENDMDL
