MODEL 1
REMARK VINA RESULT:      -5.3      0.000      0.000
REMARK  Name = 75367809
REMARK  7 active torsions:
REMARK  status: ('A' for Active; 'I' for Inactive)
REMARK    1  A    between atoms: O_2  and  C_13
REMARK    2  A    between atoms: O_2  and  C_17
REMARK    3  A    between atoms: O_3  and  C_18
REMARK    4  A    between atoms: O_3  and  C_19
REMARK    5  A    between atoms: N_4  and  C_6
REMARK    6  A    between atoms: N_5  and  C_16
REMARK    7  A    between atoms: C_17  and  C_18
REMARK                            x       y       z     vdW  Elec       q    Type
REMARK                         _______ _______ _______ _____ _____    ______ ____
ROOT
ATOM      1  O   UNL     1      -2.042  -2.966  24.565  0.00  0.00    -0.376 OA
ATOM      4  N   UNL     1      -3.070  -0.025  24.678  0.00  0.00    -0.295 NA
ATOM     11  C   UNL     1      -1.688   0.233  24.258  0.00  0.00    +0.118 C 
ATOM     12  C   UNL     1      -3.685  -1.194  24.048  0.00  0.00    +0.113 C 
ATOM     13  C   UNL     1      -0.777  -0.979  24.008  0.00  0.00    +0.158 C 
ATOM     14  C   UNL     1      -3.338  -2.455  24.840  0.00  0.00    +0.175 C 
ATOM     15  C   UNL     1      -0.974  -2.126  24.989  0.00  0.00    +0.192 C 
ENDROOT
BRANCH   4   6
ATOM      5  N   UNL     1      -5.144   3.571  25.603  0.00  0.00    -0.305 NA
ATOM      6  C   UNL     1      -3.885   1.176  24.488  0.00  0.00    +0.059 C 
ATOM      7  C   UNL     1      -3.081   2.426  24.854  0.00  0.00    +0.034 C 
ATOM      8  C   UNL     1      -5.162   1.111  25.332  0.00  0.00    +0.034 C 
ATOM      9  C   UNL     1      -3.948   3.684  24.756  0.00  0.00    +0.085 C 
ATOM     10  C   UNL     1      -5.960   2.412  25.219  0.00  0.00    +0.085 C 
ATOM     16  C   UNL     1      -5.934   4.799  25.539  0.00  0.00    +0.104 C 
ENDBRANCH   4   6
BRANCH  13   2
ATOM      2  O   UNL     1       0.579  -0.543  24.106  0.00  0.00    -0.371 OA
BRANCH   2  17
ATOM     17  C   UNL     1       0.911   0.349  23.053  0.00  0.00    +0.188 C 
BRANCH  17  18
ATOM     18  C   UNL     1       2.309   0.033  22.559  0.00  0.00    +0.187 C 
BRANCH  18   3
ATOM      3  O   UNL     1       3.199   1.050  23.003  0.00  0.00    -0.381 OA
ATOM     19  C   UNL     1       4.536   0.573  23.081  0.00  0.00    +0.194 C 
ENDBRANCH  18   3
ENDBRANCH  17  18
ENDBRANCH   2  17
ENDBRANCH  13   2
TORSDOF 5
ENDMDL
MODEL 2
REMARK VINA RESULT:      -4.7      1.348      1.710
REMARK  Name = 75367809
REMARK  7 active torsions:
REMARK  status: ('A' for Active; 'I' for Inactive)
REMARK    1  A    between atoms: O_2  and  C_13
REMARK    2  A    between atoms: O_2  and  C_17
REMARK    3  A    between atoms: O_3  and  C_18
REMARK    4  A    between atoms: O_3  and  C_19
REMARK    5  A    between atoms: N_4  and  C_6
REMARK    6  A    between atoms: N_5  and  C_16
REMARK    7  A    between atoms: C_17  and  C_18
REMARK                            x       y       z     vdW  Elec       q    Type
REMARK                         _______ _______ _______ _____ _____    ______ ____
ROOT
ATOM      1  O   UNL     1      -2.438  -3.185  24.309  0.00  0.00    -0.376 OA
ATOM      4  N   UNL     1      -3.485  -0.262  24.595  0.00  0.00    -0.295 NA
ATOM     11  C   UNL     1      -2.092   0.028  24.239  0.00  0.00    +0.118 C 
ATOM     12  C   UNL     1      -4.073  -1.387  23.865  0.00  0.00    +0.113 C 
ATOM     13  C   UNL     1      -1.167  -1.160  23.933  0.00  0.00    +0.158 C 
ATOM     14  C   UNL     1      -3.745  -2.699  24.577  0.00  0.00    +0.175 C 
ATOM     15  C   UNL     1      -1.389  -2.374  24.825  0.00  0.00    +0.192 C 
ENDROOT
BRANCH   4   6
ATOM      5  N   UNL     1      -5.189   3.517  25.543  0.00  0.00    -0.305 NA
ATOM      6  C   UNL     1      -4.301   0.946  24.464  0.00  0.00    +0.059 C 
ATOM      7  C   UNL     1      -3.408   2.189  24.452  0.00  0.00    +0.034 C 
ATOM      8  C   UNL     1      -5.320   1.046  25.603  0.00  0.00    +0.034 C 
ATOM      9  C   UNL     1      -4.248   3.469  24.415  0.00  0.00    +0.085 C 
ATOM     10  C   UNL     1      -6.098   2.362  25.528  0.00  0.00    +0.085 C 
ATOM     16  C   UNL     1      -5.949   4.766  25.522  0.00  0.00    +0.104 C 
ENDBRANCH   4   6
BRANCH  13   2
ATOM      2  O   UNL     1       0.183  -0.727  24.106  0.00  0.00    -0.371 OA
BRANCH   2  17
ATOM     17  C   UNL     1       0.461   0.418  23.316  0.00  0.00    +0.188 C 
BRANCH  17  18
ATOM     18  C   UNL     1       1.118   1.472  24.187  0.00  0.00    +0.187 C 
BRANCH  18   3
ATOM      3  O   UNL     1       0.154   2.462  24.523  0.00  0.00    -0.381 OA
ATOM     19  C   UNL     1       0.016   2.598  25.931  0.00  0.00    +0.194 C 
ENDBRANCH  18   3
ENDBRANCH  17  18
ENDBRANCH   2  17
ENDBRANCH  13   2
TORSDOF 5
ENDMDL
MODEL 3
REMARK VINA RESULT:      -4.1      2.871      6.410
REMARK  Name = 75367809
REMARK  7 active torsions:
REMARK  status: ('A' for Active; 'I' for Inactive)
REMARK    1  A    between atoms: O_2  and  C_13
REMARK    2  A    between atoms: O_2  and  C_17
REMARK    3  A    between atoms: O_3  and  C_18
REMARK    4  A    between atoms: O_3  and  C_19
REMARK    5  A    between atoms: N_4  and  C_6
REMARK    6  A    between atoms: N_5  and  C_16
REMARK    7  A    between atoms: C_17  and  C_18
REMARK                            x       y       z     vdW  Elec       q    Type
REMARK                         _______ _______ _______ _____ _____    ______ ____
ROOT
ATOM      1  O   UNL     1       0.166   3.758  24.142  0.00  0.00    -0.376 OA
ATOM      4  N   UNL     1      -1.345   1.235  25.179  0.00  0.00    -0.295 NA
ATOM     11  C   UNL     1      -2.495   2.123  24.976  0.00  0.00    +0.118 C 
ATOM     12  C   UNL     1      -0.316   1.335  24.143  0.00  0.00    +0.113 C 
ATOM     13  C   UNL     1      -2.229   3.520  24.395  0.00  0.00    +0.158 C 
ATOM     14  C   UNL     1       0.655   2.468  24.479  0.00  0.00    +0.175 C 
ATOM     15  C   UNL     1      -0.958   4.182  24.907  0.00  0.00    +0.192 C 
ENDROOT
BRANCH   4   6
ATOM      5  N   UNL     1      -3.130  -2.515  24.268  0.00  0.00    -0.305 NA
ATOM      6  C   UNL     1      -1.799  -0.145  25.352  0.00  0.00    +0.059 C 
ATOM      7  C   UNL     1      -1.132  -1.056  24.317  0.00  0.00    +0.034 C 
ATOM      8  C   UNL     1      -3.322  -0.242  25.227  0.00  0.00    +0.034 C 
ATOM      9  C   UNL     1      -1.668  -2.486  24.418  0.00  0.00    +0.085 C 
ATOM     10  C   UNL     1      -3.787  -1.698  25.297  0.00  0.00    +0.085 C 
ATOM     16  C   UNL     1      -3.621  -3.892  24.316  0.00  0.00    +0.104 C 
ENDBRANCH   4   6
BRANCH  13   2
ATOM      2  O   UNL     1      -3.332   4.360  24.737  0.00  0.00    -0.371 OA
BRANCH   2  17
ATOM     17  C   UNL     1      -3.949   3.935  25.942  0.00  0.00    +0.188 C 
BRANCH  17  18
ATOM     18  C   UNL     1      -5.441   3.790  25.709  0.00  0.00    +0.187 C 
BRANCH  18   3
ATOM      3  O   UNL     1      -5.837   2.467  26.053  0.00  0.00    -0.381 OA
ATOM     19  C   UNL     1      -6.214   1.722  24.903  0.00  0.00    +0.194 C 
ENDBRANCH  18   3
ENDBRANCH  17  18
ENDBRANCH   2  17
ENDBRANCH  13   2
TORSDOF 5
ENDMDL
MODEL 4
REMARK VINA RESULT:      -4.1      1.649      4.333
REMARK  Name = 75367809
REMARK  7 active torsions:
REMARK  status: ('A' for Active; 'I' for Inactive)
REMARK    1  A    between atoms: O_2  and  C_13
REMARK    2  A    between atoms: O_2  and  C_17
REMARK    3  A    between atoms: O_3  and  C_18
REMARK    4  A    between atoms: O_3  and  C_19
REMARK    5  A    between atoms: N_4  and  C_6
REMARK    6  A    between atoms: N_5  and  C_16
REMARK    7  A    between atoms: C_17  and  C_18
REMARK                            x       y       z     vdW  Elec       q    Type
REMARK                         _______ _______ _______ _____ _____    ______ ____
ROOT
ATOM      1  O   UNL     1       1.707   0.207  23.621  0.00  0.00    -0.376 OA
ATOM      4  N   UNL     1      -0.986   1.768  23.809  0.00  0.00    -0.295 NA
ATOM     11  C   UNL     1      -1.459   0.446  24.233  0.00  0.00    +0.118 C 
ATOM     12  C   UNL     1       0.332   2.134  24.330  0.00  0.00    +0.113 C 
ATOM     13  C   UNL     1      -0.423  -0.682  24.352  0.00  0.00    +0.158 C 
ATOM     14  C   UNL     1       1.426   1.584  23.414  0.00  0.00    +0.175 C 
ATOM     15  C   UNL     1       0.644  -0.672  23.266  0.00  0.00    +0.192 C 
ENDROOT
BRANCH   4   6
ATOM      5  N   UNL     1      -4.570   3.502  25.303  0.00  0.00    -0.305 NA
ATOM      6  C   UNL     1      -1.988   2.787  24.126  0.00  0.00    +0.059 C 
ATOM      7  C   UNL     1      -2.201   2.868  25.639  0.00  0.00    +0.034 C 
ATOM      8  C   UNL     1      -3.317   2.484  23.427  0.00  0.00    +0.034 C 
ATOM      9  C   UNL     1      -3.317   3.858  25.985  0.00  0.00    +0.085 C 
ATOM     10  C   UNL     1      -4.396   3.486  23.845  0.00  0.00    +0.085 C 
ATOM     16  C   UNL     1      -5.638   4.426  25.682  0.00  0.00    +0.104 C 
ENDBRANCH   4   6
BRANCH  13   2
ATOM      2  O   UNL     1      -1.114  -1.930  24.278  0.00  0.00    -0.371 OA
BRANCH   2  17
ATOM     17  C   UNL     1      -2.349  -1.876  24.974  0.00  0.00    +0.188 C 
BRANCH  17  18
ATOM     18  C   UNL     1      -3.289  -2.917  24.395  0.00  0.00    +0.187 C 
BRANCH  18   3
ATOM      3  O   UNL     1      -4.392  -2.258  23.786  0.00  0.00    -0.381 OA
ATOM     19  C   UNL     1      -4.504  -0.913  24.230  0.00  0.00    +0.194 C 
ENDBRANCH  18   3
ENDBRANCH  17  18
ENDBRANCH   2  17
ENDBRANCH  13   2
TORSDOF 5
ENDMDL
MODEL 5
REMARK VINA RESULT:      -3.9      2.800      5.393
REMARK  Name = 75367809
REMARK  7 active torsions:
REMARK  status: ('A' for Active; 'I' for Inactive)
REMARK    1  A    between atoms: O_2  and  C_13
REMARK    2  A    between atoms: O_2  and  C_17
REMARK    3  A    between atoms: O_3  and  C_18
REMARK    4  A    between atoms: O_3  and  C_19
REMARK    5  A    between atoms: N_4  and  C_6
REMARK    6  A    between atoms: N_5  and  C_16
REMARK    7  A    between atoms: C_17  and  C_18
REMARK                            x       y       z     vdW  Elec       q    Type
REMARK                         _______ _______ _______ _____ _____    ______ ____
ROOT
ATOM      1  O   UNL     1      -5.705   3.772  25.950  0.00  0.00    -0.376 OA
ATOM      4  N   UNL     1      -4.084   1.611  24.392  0.00  0.00    -0.295 NA
ATOM     11  C   UNL     1      -2.973   2.473  24.809  0.00  0.00    +0.118 C 
ATOM     12  C   UNL     1      -5.124   1.433  25.408  0.00  0.00    +0.113 C 
ATOM     13  C   UNL     1      -3.300   3.690  25.688  0.00  0.00    +0.158 C 
ATOM     14  C   UNL     1      -6.137   2.574  25.322  0.00  0.00    +0.175 C 
ATOM     15  C   UNL     1      -4.595   4.402  25.319  0.00  0.00    +0.192 C 
ENDROOT
BRANCH   4   6
ATOM      5  N   UNL     1      -2.691  -2.405  24.497  0.00  0.00    -0.305 NA
ATOM      6  C   UNL     1      -3.572   0.324  23.919  0.00  0.00    +0.059 C 
ATOM      7  C   UNL     1      -4.557  -0.797  24.262  0.00  0.00    +0.034 C 
ATOM      8  C   UNL     1      -2.202   0.020  24.530  0.00  0.00    +0.034 C 
ATOM      9  C   UNL     1      -3.995  -2.163  23.862  0.00  0.00    +0.085 C 
ATOM     10  C   UNL     1      -1.716  -1.373  24.122  0.00  0.00    +0.085 C 
ATOM     16  C   UNL     1      -2.191  -3.734  24.147  0.00  0.00    +0.104 C 
ENDBRANCH   4   6
BRANCH  13   2
ATOM      2  O   UNL     1      -2.231   4.629  25.562  0.00  0.00    -0.371 OA
BRANCH   2  17
ATOM     17  C   UNL     1      -1.035   3.993  25.141  0.00  0.00    +0.188 C 
BRANCH  17  18
ATOM     18  C   UNL     1      -0.581   3.027  26.218  0.00  0.00    +0.187 C 
BRANCH  18   3
ATOM      3  O   UNL     1       0.548   2.301  25.744  0.00  0.00    -0.381 OA
ATOM     19  C   UNL     1       0.522   2.166  24.330  0.00  0.00    +0.194 C 
ENDBRANCH  18   3
ENDBRANCH  17  18
ENDBRANCH   2  17
ENDBRANCH  13   2
TORSDOF 5
ENDMDL
MODEL 6
REMARK VINA RESULT:      -3.7      2.743      6.097
REMARK  Name = 75367809
REMARK  7 active torsions:
REMARK  status: ('A' for Active; 'I' for Inactive)
REMARK    1  A    between atoms: O_2  and  C_13
REMARK    2  A    between atoms: O_2  and  C_17
REMARK    3  A    between atoms: O_3  and  C_18
REMARK    4  A    between atoms: O_3  and  C_19
REMARK    5  A    between atoms: N_4  and  C_6
REMARK    6  A    between atoms: N_5  and  C_16
REMARK    7  A    between atoms: C_17  and  C_18
REMARK                            x       y       z     vdW  Elec       q    Type
REMARK                         _______ _______ _______ _____ _____    ______ ____
ROOT
ATOM      1  O   UNL     1      -3.636  -1.088  26.073  0.00  0.00    -0.376 OA
ATOM      4  N   UNL     1      -1.640   0.118  24.003  0.00  0.00    -0.295 NA
ATOM     11  C   UNL     1      -2.636   1.195  24.015  0.00  0.00    +0.118 C 
ATOM     12  C   UNL     1      -1.367  -0.466  25.318  0.00  0.00    +0.113 C 
ATOM     13  C   UNL     1      -3.828   1.060  24.974  0.00  0.00    +0.158 C 
ATOM     14  C   UNL     1      -2.380  -1.571  25.618  0.00  0.00    +0.175 C 
ATOM     15  C   UNL     1      -4.374  -0.356  25.102  0.00  0.00    +0.192 C 
ENDROOT
BRANCH   4   6
ATOM      5  N   UNL     1       2.511   0.743  23.324  0.00  0.00    -0.305 NA
ATOM      6  C   UNL     1      -0.411   0.576  23.355  0.00  0.00    +0.059 C 
ATOM      7  C   UNL     1       0.472  -0.620  22.988  0.00  0.00    +0.034 C 
ATOM      8  C   UNL     1       0.363   1.537  24.263  0.00  0.00    +0.034 C 
ATOM      9  C   UNL     1       1.807  -0.157  22.398  0.00  0.00    +0.085 C 
ATOM     10  C   UNL     1       1.701   1.929  23.632  0.00  0.00    +0.085 C 
ATOM     16  C   UNL     1       3.805   1.136  22.768  0.00  0.00    +0.104 C 
ENDBRANCH   4   6
BRANCH  13   2
ATOM      2  O   UNL     1      -4.881   1.897  24.496  0.00  0.00    -0.371 OA
BRANCH   2  17
ATOM     17  C   UNL     1      -5.239   2.875  25.459  0.00  0.00    +0.188 C 
BRANCH  17  18
ATOM     18  C   UNL     1      -4.385   4.111  25.251  0.00  0.00    +0.187 C 
BRANCH  18   3
ATOM      3  O   UNL     1      -3.304   4.088  26.176  0.00  0.00    -0.381 OA
ATOM     19  C   UNL     1      -2.078   4.444  25.552  0.00  0.00    +0.194 C 
ENDBRANCH  18   3
ENDBRANCH  17  18
ENDBRANCH   2  17
ENDBRANCH  13   2
TORSDOF 5
ENDMDL
MODEL 7
REMARK VINA RESULT:      -3.4      2.698      6.404
REMARK  Name = 75367809
REMARK  7 active torsions:
REMARK  status: ('A' for Active; 'I' for Inactive)
REMARK    1  A    between atoms: O_2  and  C_13
REMARK    2  A    between atoms: O_2  and  C_17
REMARK    3  A    between atoms: O_3  and  C_18
REMARK    4  A    between atoms: O_3  and  C_19
REMARK    5  A    between atoms: N_4  and  C_6
REMARK    6  A    between atoms: N_5  and  C_16
REMARK    7  A    between atoms: C_17  and  C_18
REMARK                            x       y       z     vdW  Elec       q    Type
REMARK                         _______ _______ _______ _____ _____    ______ ____
ROOT
ATOM      1  O   UNL     1      -3.795   4.543  25.509  0.00  0.00    -0.376 OA
ATOM      4  N   UNL     1      -1.728   2.225  25.235  0.00  0.00    -0.295 NA
ATOM     11  C   UNL     1      -2.911   1.538  24.707  0.00  0.00    +0.118 C 
ATOM     12  C   UNL     1      -1.606   3.624  24.822  0.00  0.00    +0.113 C 
ATOM     13  C   UNL     1      -4.215   2.343  24.592  0.00  0.00    +0.158 C 
ATOM     14  C   UNL     1      -2.400   4.519  25.774  0.00  0.00    +0.175 C 
ATOM     15  C   UNL     1      -4.462   3.308  25.744  0.00  0.00    +0.192 C 
ENDROOT
BRANCH   4   6
ATOM      5  N   UNL     1       1.272   0.312  22.907  0.00  0.00    -0.305 NA
ATOM      6  C   UNL     1      -0.519   1.465  24.912  0.00  0.00    +0.059 C 
ATOM      7  C   UNL     1       0.441   2.323  24.085  0.00  0.00    +0.034 C 
ATOM      8  C   UNL     1      -0.865   0.184  24.148  0.00  0.00    +0.034 C 
ATOM      9  C   UNL     1       1.667   1.515  23.653  0.00  0.00    +0.085 C 
ATOM     10  C   UNL     1       0.404  -0.555  23.714  0.00  0.00    +0.085 C 
ATOM     16  C   UNL     1       2.455  -0.423  22.458  0.00  0.00    +0.104 C 
ENDBRANCH   4   6
BRANCH  13   2
ATOM      2  O   UNL     1      -5.304   1.420  24.550  0.00  0.00    -0.371 OA
BRANCH   2  17
ATOM     17  C   UNL     1      -5.026   0.260  25.318  0.00  0.00    +0.188 C 
BRANCH  17  18
ATOM     18  C   UNL     1      -4.478  -0.819  24.405  0.00  0.00    +0.187 C 
BRANCH  18   3
ATOM      3  O   UNL     1      -3.822  -1.805  25.194  0.00  0.00    -0.381 OA
ATOM     19  C   UNL     1      -3.166  -2.769  24.381  0.00  0.00    +0.194 C 
ENDBRANCH  18   3
ENDBRANCH  17  18
ENDBRANCH   2  17
ENDBRANCH  13   2
TORSDOF 5
ENDMDL
MODEL 8
REMARK VINA RESULT:      -2.8      1.761      2.431
REMARK  Name = 75367809
REMARK  7 active torsions:
REMARK  status: ('A' for Active; 'I' for Inactive)
REMARK    1  A    between atoms: O_2  and  C_13
REMARK    2  A    between atoms: O_2  and  C_17
REMARK    3  A    between atoms: O_3  and  C_18
REMARK    4  A    between atoms: O_3  and  C_19
REMARK    5  A    between atoms: N_4  and  C_6
REMARK    6  A    between atoms: N_5  and  C_16
REMARK    7  A    between atoms: C_17  and  C_18
REMARK                            x       y       z     vdW  Elec       q    Type
REMARK                         _______ _______ _______ _____ _____    ______ ____
ROOT
ATOM      1  O   UNL     1      -2.129  -2.174  24.359  0.00  0.00    -0.376 OA
ATOM      4  N   UNL     1      -1.552   0.728  25.341  0.00  0.00    -0.295 NA
ATOM     11  C   UNL     1      -0.348   0.518  24.530  0.00  0.00    +0.118 C 
ATOM     12  C   UNL     1      -2.776   0.177  24.758  0.00  0.00    +0.113 C 
ATOM     13  C   UNL     1      -0.217  -0.811  23.772  0.00  0.00    +0.158 C 
ATOM     14  C   UNL     1      -2.921  -1.295  25.145  0.00  0.00    +0.175 C 
ATOM     15  C   UNL     1      -0.725  -2.025  24.539  0.00  0.00    +0.192 C 
ENDROOT
BRANCH   4   6
ATOM      5  N   UNL     1      -1.974   4.919  24.755  0.00  0.00    -0.305 NA
ATOM      6  C   UNL     1      -1.703   2.149  25.659  0.00  0.00    +0.059 C 
ATOM      7  C   UNL     1      -3.005   2.690  25.061  0.00  0.00    +0.034 C 
ATOM      8  C   UNL     1      -0.513   2.958  25.135  0.00  0.00    +0.034 C 
ATOM      9  C   UNL     1      -3.134   4.197  25.298  0.00  0.00    +0.085 C 
ATOM     10  C   UNL     1      -0.723   4.456  25.369  0.00  0.00    +0.085 C 
ATOM     16  C   UNL     1      -2.135   6.360  24.944  0.00  0.00    +0.104 C 
ENDBRANCH   4   6
BRANCH  13   2
ATOM      2  O   UNL     1       1.165  -1.022  23.480  0.00  0.00    -0.371 OA
BRANCH   2  17
ATOM     17  C   UNL     1       1.597  -0.200  22.407  0.00  0.00    +0.188 C 
BRANCH  17  18
ATOM     18  C   UNL     1       2.854   0.538  22.824  0.00  0.00    +0.187 C 
BRANCH  18   3
ATOM      3  O   UNL     1       3.895  -0.407  23.045  0.00  0.00    -0.381 OA
ATOM     19  C   UNL     1       5.139   0.236  23.286  0.00  0.00    +0.194 C 
ENDBRANCH  18   3
ENDBRANCH  17  18
ENDBRANCH   2  17
ENDBRANCH  13   2
TORSDOF 5
ENDMDL
MODEL 9
REMARK VINA RESULT:      -2.7     13.896     17.917
REMARK  Name = 75367809
REMARK  7 active torsions:
REMARK  status: ('A' for Active; 'I' for Inactive)
REMARK    1  A    between atoms: O_2  and  C_13
REMARK    2  A    between atoms: O_2  and  C_17
REMARK    3  A    between atoms: O_3  and  C_18
REMARK    4  A    between atoms: O_3  and  C_19
REMARK    5  A    between atoms: N_4  and  C_6
REMARK    6  A    between atoms: N_5  and  C_16
REMARK    7  A    between atoms: C_17  and  C_18
REMARK                            x       y       z     vdW  Elec       q    Type
REMARK                         _______ _______ _______ _____ _____    ______ ____
ROOT
ATOM      1  O   UNL     1      17.118   8.236  20.340  0.00  0.00    -0.376 OA
ATOM      4  N   UNL     1      14.168   7.969  21.314  0.00  0.00    -0.295 NA
ATOM     11  C   UNL     1      13.917   8.183  19.885  0.00  0.00    +0.118 C 
ATOM     12  C   UNL     1      15.318   7.111  21.604  0.00  0.00    +0.113 C 
ATOM     13  C   UNL     1      15.134   8.315  18.955  0.00  0.00    +0.158 C 
ATOM     14  C   UNL     1      16.598   7.946  21.629  0.00  0.00    +0.175 C 
ATOM     15  C   UNL     1      16.298   9.094  19.552  0.00  0.00    +0.192 C 
ENDROOT
BRANCH   4   6
ATOM      5  N   UNL     1      10.076   6.959  21.882  0.00  0.00    -0.305 NA
ATOM      6  C   UNL     1      12.955   7.479  21.970  0.00  0.00    +0.059 C 
ATOM      7  C   UNL     1      12.359   6.312  21.178  0.00  0.00    +0.034 C 
ATOM      8  C   UNL     1      11.918   8.597  22.112  0.00  0.00    +0.034 C 
ATOM      9  C   UNL     1      11.036   5.849  21.793  0.00  0.00    +0.085 C 
ATOM     10  C   UNL     1      10.609   8.059  22.697  0.00  0.00    +0.085 C 
ATOM     16  C   UNL     1       8.802   6.490  22.425  0.00  0.00    +0.104 C 
ENDBRANCH   4   6
BRANCH  13   2
ATOM      2  O   UNL     1      14.715   8.991  17.769  0.00  0.00    -0.371 OA
BRANCH   2  17
ATOM     17  C   UNL     1      14.017   8.116  16.897  0.00  0.00    +0.188 C 
BRANCH  17  18
ATOM     18  C   UNL     1      12.761   8.808  16.402  0.00  0.00    +0.187 C 
BRANCH  18   3
ATOM      3  O   UNL     1      11.631   8.011  16.736  0.00  0.00    -0.381 OA
ATOM     19  C   UNL     1      10.416   8.718  16.525  0.00  0.00    +0.194 C 
ENDBRANCH  18   3
ENDBRANCH  17  18
ENDBRANCH   2  17
ENDBRANCH  13   2
TORSDOF 5
ENDMDL
MODEL 10
REMARK VINA RESULT:      -2.1     18.099     19.857
REMARK  Name = 75367809
REMARK  7 active torsions:
REMARK  status: ('A' for Active; 'I' for Inactive)
REMARK    1  A    between atoms: O_2  and  C_13
REMARK    2  A    between atoms: O_2  and  C_17
REMARK    3  A    between atoms: O_3  and  C_18
REMARK    4  A    between atoms: O_3  and  C_19
REMARK    5  A    between atoms: N_4  and  C_6
REMARK    6  A    between atoms: N_5  and  C_16
REMARK    7  A    between atoms: C_17  and  C_18
REMARK                            x       y       z     vdW  Elec       q    Type
REMARK                         _______ _______ _______ _____ _____    ______ ____
ROOT
ATOM      1  O   UNL     1      17.382  -4.004  29.354  0.00  0.00    -0.376 OA
ATOM      4  N   UNL     1      15.090  -5.902  30.283  0.00  0.00    -0.295 NA
ATOM     11  C   UNL     1      15.831  -6.839  29.432  0.00  0.00    +0.118 C 
ATOM     12  C   UNL     1      15.935  -5.015  31.083  0.00  0.00    +0.113 C 
ATOM     13  C   UNL     1      17.128  -6.341  28.777  0.00  0.00    +0.158 C 
ATOM     14  C   UNL     1      16.315  -3.780  30.265  0.00  0.00    +0.175 C 
ATOM     15  C   UNL     1      17.072  -4.899  28.291  0.00  0.00    +0.192 C 
ENDROOT
BRANCH   4   6
ATOM      5  N   UNL     1      11.853  -8.448  31.345  0.00  0.00    -0.305 NA
ATOM      6  C   UNL     1      14.135  -6.630  31.120  0.00  0.00    +0.059 C 
ATOM      7  C   UNL     1      14.265  -8.137  30.885  0.00  0.00    +0.034 C 
ATOM      8  C   UNL     1      12.699  -6.179  30.835  0.00  0.00    +0.034 C 
ATOM      9  C   UNL     1      13.208  -8.910  31.678  0.00  0.00    +0.085 C 
ATOM     10  C   UNL     1      11.694  -7.016  31.629  0.00  0.00    +0.085 C 
ATOM     16  C   UNL     1      10.853  -9.230  32.072  0.00  0.00    +0.104 C 
ENDBRANCH   4   6
BRANCH  13   2
ATOM      2  O   UNL     1      17.405  -7.174  27.651  0.00  0.00    -0.371 OA
BRANCH   2  17
ATOM     17  C   UNL     1      16.657  -8.379  27.704  0.00  0.00    +0.188 C 
BRANCH  17  18
ATOM     18  C   UNL     1      17.129  -9.304  26.599  0.00  0.00    +0.187 C 
BRANCH  18   3
ATOM      3  O   UNL     1      16.351  -9.067  25.432  0.00  0.00    -0.381 OA
ATOM     19  C   UNL     1      15.162  -9.845  25.433  0.00  0.00    +0.194 C 
ENDBRANCH  18   3
ENDBRANCH  17  18
ENDBRANCH   2  17
ENDBRANCH  13   2
TORSDOF 5
ENDMDL
