MODEL 1
REMARK VINA RESULT:       6.8      0.000      0.000
REMARK  Name = 25046676
REMARK  6 active torsions:
REMARK  status: ('A' for Active; 'I' for Inactive)
REMARK    1  A    between atoms: S_2  and  N_9
REMARK    2  A    between atoms: S_2  and  C_31
REMARK    3  A    between atoms: N_6  and  C_17
REMARK    4  A    between atoms: N_8  and  C_28
REMARK    5  A    between atoms: N_9  and  C_21
REMARK    6  A    between atoms: C_17  and  C_20
REMARK                            x       y       z     vdW  Elec       q    Type
REMARK                         _______ _______ _______ _____ _____    ______ ____
ROOT
ATOM      3  O   UNL     1       0.346   2.375  26.266  0.00  0.00    -0.266 OA
ATOM      6  N   UNL     1      -4.532   1.879  25.200  0.00  0.00    -0.297 NA
ATOM      7  N   UNL     1      -1.574   3.071  25.121  0.00  0.00    -0.310 N 
ATOM     10  C   UNL     1      -3.668   3.958  26.301  0.00  0.00    +0.024 C 
ATOM     11  C   UNL     1      -3.633   3.785  23.858  0.00  0.00    +0.050 C 
ATOM     12  C   UNL     1      -3.877   4.749  25.016  0.00  0.00    +0.017 C 
ATOM     13  C   UNL     1      -4.654   2.773  26.358  0.00  0.00    +0.090 C 
ATOM     14  C   UNL     1      -4.646   2.620  23.935  0.00  0.00    +0.094 C 
ATOM     15  C   UNL     1      -2.202   3.510  26.375  0.00  0.00    +0.130 C 
ATOM     16  C   UNL     1      -2.212   3.255  23.887  0.00  0.00    +0.026 A 
ATOM     18  C   UNL     1      -1.578   2.949  22.740  0.00  0.00    +0.024 A 
ATOM     19  C   UNL     1      -0.268   2.547  25.215  0.00  0.00    +0.274 A 
ATOM     21  C   UNL     1       0.370   2.207  23.918  0.00  0.00    +0.112 A 
ATOM     22  C   UNL     1      -0.246   2.406  22.753  0.00  0.00    +0.031 A 
ENDROOT
BRANCH  21   9
ATOM      9  N   UNL     1       1.670   1.671  23.888  0.00  0.00    -0.211 N 
ATOM     37  H   UNL     1       2.374   2.350  23.566  0.00  0.00    +0.174 HD
BRANCH   9   2
ATOM      2  S   UNL     1       1.846   0.115  23.243  0.00  0.00    +0.072 S 
ATOM      4  O   UNL     1       1.270  -0.858  24.153  0.00  0.00    -0.150 OA
ATOM      5  O   UNL     1       1.469   0.120  21.843  0.00  0.00    -0.150 OA
BRANCH   2  31
ATOM      1 CL   UNL     1       8.084  -0.551  23.504  0.00  0.00    -0.084 Cl
ATOM     31  C   UNL     1       3.603  -0.073  23.316  0.00  0.00    +0.109 A 
ATOM     32  C   UNL     1       4.159  -1.274  23.758  0.00  0.00    +0.030 A 
ATOM     33  C   UNL     1       4.434   0.979  22.932  0.00  0.00    +0.030 A 
ATOM     34  C   UNL     1       5.544  -1.422  23.817  0.00  0.00    +0.022 A 
ATOM     35  C   UNL     1       5.819   0.832  22.990  0.00  0.00    +0.022 A 
ATOM     36  C   UNL     1       6.374  -0.369  23.432  0.00  0.00    +0.041 A 
ENDBRANCH   2  31
ENDBRANCH   9   2
ENDBRANCH  21   9
BRANCH   6  17
ATOM     17  C   UNL     1      -5.515   0.800  25.266  0.00  0.00    +0.121 C 
BRANCH  17  20
ATOM      8  N   UNL     1      -4.745  -2.500  23.831  0.00  0.00    -0.349 N 
ATOM     20  C   UNL     1      -4.942  -0.511  24.795  0.00  0.00    -0.008 A 
ATOM     23  C   UNL     1      -3.625  -0.995  25.037  0.00  0.00    +0.004 A 
ATOM     24  C   UNL     1      -5.606  -1.459  24.051  0.00  0.00    +0.091 A 
ATOM     25  C   UNL     1      -3.528  -2.244  24.422  0.00  0.00    +0.049 A 
ATOM     26  C   UNL     1      -2.504  -0.487  25.724  0.00  0.00    +0.010 A 
ATOM     27  C   UNL     1      -2.361  -3.015  24.458  0.00  0.00    +0.026 A 
ATOM     28  C   UNL     1      -5.082  -3.691  23.081  0.00  0.00    +0.149 C 
ATOM     29  C   UNL     1      -1.330  -1.248  25.768  0.00  0.00    +0.001 A 
ATOM     30  C   UNL     1      -1.261  -2.492  25.144  0.00  0.00    +0.002 A 
ENDBRANCH  17  20
ENDBRANCH   6  17
TORSDOF 5
ENDMDL
