MODEL 1
REMARK VINA RESULT:      -6.4      0.000      0.000
REMARK  Name = 75367733
REMARK  4 active torsions:
REMARK  status: ('A' for Active; 'I' for Inactive)
REMARK    1  A    between atoms: O_3  and  C_6
REMARK    2  A    between atoms: O_3  and  C_14
REMARK    3  A    between atoms: N_4  and  C_8
REMARK    4  A    between atoms: C_8  and  C_11
REMARK                            x       y       z     vdW  Elec       q    Type
REMARK                         _______ _______ _______ _____ _____    ______ ____
ROOT
ATOM      2  O   UNL     1      -5.504   3.228  26.301  0.00  0.00    -0.376 OA
ATOM      4  N   UNL     1      -3.865   1.990  23.954  0.00  0.00    -0.293 NA
ATOM      5  C   UNL     1      -2.846   2.898  24.490  0.00  0.00    +0.118 C 
ATOM      6  C   UNL     1      -3.199   3.712  25.744  0.00  0.00    +0.157 C 
ATOM      7  C   UNL     1      -4.671   1.317  24.975  0.00  0.00    +0.113 C 
ATOM      9  C   UNL     1      -4.632   4.225  25.778  0.00  0.00    +0.192 C 
ATOM     10  C   UNL     1      -5.849   2.204  25.379  0.00  0.00    +0.175 C 
ENDROOT
BRANCH   6   3
ATOM      3  O   UNL     1      -2.325   4.842  25.801  0.00  0.00    -0.376 OA
ATOM     14  C   UNL     1      -1.143   4.617  25.049  0.00  0.00    +0.194 C 
ENDBRANCH   6   3
BRANCH   4   8
ATOM      8  C   UNL     1      -3.252   1.029  23.037  0.00  0.00    +0.119 C 
BRANCH   8  11
ATOM      1 CL   UNL     1      -0.023  -2.163  25.597  0.00  0.00    -0.084 Cl
ATOM     11  C   UNL     1      -3.013  -0.303  23.698  0.00  0.00    -0.032 A 
ATOM     12  C   UNL     1      -1.774  -0.583  24.274  0.00  0.00    +0.025 A 
ATOM     13  C   UNL     1      -4.030  -1.256  23.734  0.00  0.00    +0.005 A 
ATOM     15  C   UNL     1      -1.553  -1.816  24.888  0.00  0.00    +0.041 A 
ATOM     16  C   UNL     1      -3.809  -2.490  24.347  0.00  0.00    +0.002 A 
ATOM     17  C   UNL     1      -2.571  -2.770  24.924  0.00  0.00    +0.020 A 
ENDBRANCH   8  11
ENDBRANCH   4   8
TORSDOF 3
ENDMDL
MODEL 2
REMARK VINA RESULT:      -6.3      0.681      2.409
REMARK  Name = 75367733
REMARK  4 active torsions:
REMARK  status: ('A' for Active; 'I' for Inactive)
REMARK    1  A    between atoms: O_3  and  C_6
REMARK    2  A    between atoms: O_3  and  C_14
REMARK    3  A    between atoms: N_4  and  C_8
REMARK    4  A    between atoms: C_8  and  C_11
REMARK                            x       y       z     vdW  Elec       q    Type
REMARK                         _______ _______ _______ _____ _____    ______ ____
ROOT
ATOM      2  O   UNL     1      -2.098   4.724  25.691  0.00  0.00    -0.376 OA
ATOM      4  N   UNL     1      -2.870   2.107  24.182  0.00  0.00    -0.293 NA
ATOM      5  C   UNL     1      -4.215   2.566  24.546  0.00  0.00    +0.118 C 
ATOM      6  C   UNL     1      -4.339   3.907  25.284  0.00  0.00    +0.157 C 
ATOM      7  C   UNL     1      -1.957   3.176  23.771  0.00  0.00    +0.113 C 
ATOM      9  C   UNL     1      -3.247   4.161  26.314  0.00  0.00    +0.192 C 
ATOM     10  C   UNL     1      -1.284   3.788  24.999  0.00  0.00    +0.175 C 
ENDROOT
BRANCH   6   3
ATOM      3  O   UNL     1      -5.597   3.925  25.963  0.00  0.00    -0.376 OA
ATOM     14  C   UNL     1      -6.132   2.618  26.090  0.00  0.00    +0.194 C 
ENDBRANCH   6   3
BRANCH   4   8
ATOM      8  C   UNL     1      -2.953   1.055  23.169  0.00  0.00    +0.119 C 
BRANCH   8  11
ATOM      1 CL   UNL     1       0.035  -2.481  25.564  0.00  0.00    -0.084 Cl
ATOM     11  C   UNL     1      -2.813  -0.318  23.773  0.00  0.00    -0.032 A 
ATOM     12  C   UNL     1      -1.596  -0.716  24.324  0.00  0.00    +0.025 A 
ATOM     13  C   UNL     1      -3.902  -1.190  23.780  0.00  0.00    +0.005 A 
ATOM     15  C   UNL     1      -1.468  -1.988  24.885  0.00  0.00    +0.041 A 
ATOM     16  C   UNL     1      -3.773  -2.461  24.340  0.00  0.00    +0.002 A 
ATOM     17  C   UNL     1      -2.556  -2.860  24.892  0.00  0.00    +0.020 A 
ENDBRANCH   8  11
ENDBRANCH   4   8
TORSDOF 3
ENDMDL
MODEL 3
REMARK VINA RESULT:      -6.1      3.239      5.952
REMARK  Name = 75367733
REMARK  4 active torsions:
REMARK  status: ('A' for Active; 'I' for Inactive)
REMARK    1  A    between atoms: O_3  and  C_6
REMARK    2  A    between atoms: O_3  and  C_14
REMARK    3  A    between atoms: N_4  and  C_8
REMARK    4  A    between atoms: C_8  and  C_11
REMARK                            x       y       z     vdW  Elec       q    Type
REMARK                         _______ _______ _______ _____ _____    ______ ____
ROOT
ATOM      2  O   UNL     1      -0.272  -1.777  25.027  0.00  0.00    -0.376 OA
ATOM      4  N   UNL     1      -1.703   0.545  23.514  0.00  0.00    -0.293 NA
ATOM      5  C   UNL     1      -2.871  -0.057  24.165  0.00  0.00    +0.118 C 
ATOM      6  C   UNL     1      -2.633  -1.251  25.102  0.00  0.00    +0.157 C 
ATOM      7  C   UNL     1      -0.501   0.589  24.350  0.00  0.00    +0.113 C 
ATOM      9  C   UNL     1      -1.563  -2.222  24.624  0.00  0.00    +0.192 C 
ATOM     10  C   UNL     1       0.265  -0.729  24.231  0.00  0.00    +0.175 C 
ENDROOT
BRANCH   6   3
ATOM      3  O   UNL     1      -3.861  -1.973  25.221  0.00  0.00    -0.376 OA
ATOM     14  C   UNL     1      -4.269  -2.505  23.972  0.00  0.00    +0.194 C 
ENDBRANCH   6   3
BRANCH   4   8
ATOM      8  C   UNL     1      -2.042   1.870  22.995  0.00  0.00    +0.119 C 
BRANCH   8  11
ATOM      1 CL   UNL     1      -6.017   3.922  25.672  0.00  0.00    -0.084 Cl
ATOM     11  C   UNL     1      -2.523   2.792  24.085  0.00  0.00    -0.032 A 
ATOM     12  C   UNL     1      -3.888   2.915  24.344  0.00  0.00    +0.025 A 
ATOM     13  C   UNL     1      -1.602   3.523  24.837  0.00  0.00    +0.005 A 
ATOM     15  C   UNL     1      -4.332   3.769  25.354  0.00  0.00    +0.041 A 
ATOM     16  C   UNL     1      -2.046   4.376  25.847  0.00  0.00    +0.002 A 
ATOM     17  C   UNL     1      -3.411   4.499  26.106  0.00  0.00    +0.020 A 
ENDBRANCH   8  11
ENDBRANCH   4   8
TORSDOF 3
ENDMDL
MODEL 4
REMARK VINA RESULT:      -6.1      1.213      1.427
REMARK  Name = 75367733
REMARK  4 active torsions:
REMARK  status: ('A' for Active; 'I' for Inactive)
REMARK    1  A    between atoms: O_3  and  C_6
REMARK    2  A    between atoms: O_3  and  C_14
REMARK    3  A    between atoms: N_4  and  C_8
REMARK    4  A    between atoms: C_8  and  C_11
REMARK                            x       y       z     vdW  Elec       q    Type
REMARK                         _______ _______ _______ _____ _____    ______ ____
ROOT
ATOM      2  O   UNL     1      -3.609   4.202  26.411  0.00  0.00    -0.376 OA
ATOM      4  N   UNL     1      -3.436   2.175  24.047  0.00  0.00    -0.293 NA
ATOM      5  C   UNL     1      -2.031   2.157  24.466  0.00  0.00    +0.118 C 
ATOM      6  C   UNL     1      -1.637   2.999  25.689  0.00  0.00    +0.157 C 
ATOM      7  C   UNL     1      -4.395   2.226  25.152  0.00  0.00    +0.113 C 
ATOM      9  C   UNL     1      -2.342   4.346  25.779  0.00  0.00    +0.192 C 
ATOM     10  C   UNL     1      -4.629   3.678  25.573  0.00  0.00    +0.175 C 
ENDROOT
BRANCH   6   3
ATOM      3  O   UNL     1      -0.230   3.243  25.627  0.00  0.00    -0.376 OA
ATOM     14  C   UNL     1       0.433   2.242  24.870  0.00  0.00    +0.194 C 
ENDBRANCH   6   3
BRANCH   4   8
ATOM      8  C   UNL     1      -3.709   1.050  23.152  0.00  0.00    +0.119 C 
BRANCH   8  11
ATOM      1 CL   UNL     1      -0.111  -1.942  25.449  0.00  0.00    -0.084 Cl
ATOM     11  C   UNL     1      -3.339  -0.268  23.781  0.00  0.00    -0.032 A 
ATOM     12  C   UNL     1      -2.048  -0.470  24.267  0.00  0.00    +0.025 A 
ATOM     13  C   UNL     1      -4.288  -1.286  23.876  0.00  0.00    +0.005 A 
ATOM     15  C   UNL     1      -1.705  -1.691  24.850  0.00  0.00    +0.041 A 
ATOM     16  C   UNL     1      -3.946  -2.506  24.458  0.00  0.00    +0.002 A 
ATOM     17  C   UNL     1      -2.655  -2.709  24.945  0.00  0.00    +0.020 A 
ENDBRANCH   8  11
ENDBRANCH   4   8
TORSDOF 3
ENDMDL
MODEL 5
REMARK VINA RESULT:      -5.8      3.137      5.310
REMARK  Name = 75367733
REMARK  4 active torsions:
REMARK  status: ('A' for Active; 'I' for Inactive)
REMARK    1  A    between atoms: O_3  and  C_6
REMARK    2  A    between atoms: O_3  and  C_14
REMARK    3  A    between atoms: N_4  and  C_8
REMARK    4  A    between atoms: C_8  and  C_11
REMARK                            x       y       z     vdW  Elec       q    Type
REMARK                         _______ _______ _______ _____ _____    ______ ____
ROOT
ATOM      2  O   UNL     1      -2.039  -2.929  24.819  0.00  0.00    -0.376 OA
ATOM      4  N   UNL     1      -3.199  -0.071  24.360  0.00  0.00    -0.293 NA
ATOM      5  C   UNL     1      -1.828   0.161  23.890  0.00  0.00    +0.118 C 
ATOM      6  C   UNL     1      -0.864  -1.035  23.876  0.00  0.00    +0.157 C 
ATOM      7  C   UNL     1      -3.758  -1.368  23.974  0.00  0.00    +0.113 C 
ATOM      9  C   UNL     1      -1.011  -1.975  25.065  0.00  0.00    +0.192 C 
ATOM     10  C   UNL     1      -3.358  -2.433  24.996  0.00  0.00    +0.175 C 
ENDROOT
BRANCH   6   3
ATOM      3  O   UNL     1       0.472  -0.527  23.880  0.00  0.00    -0.376 OA
ATOM     14  C   UNL     1       0.485   0.891  23.854  0.00  0.00    +0.194 C 
ENDBRANCH   6   3
BRANCH   4   8
ATOM      8  C   UNL     1      -4.067   1.031  23.944  0.00  0.00    +0.119 C 
BRANCH   8  11
ATOM      1 CL   UNL     1      -0.794   4.979  24.884  0.00  0.00    -0.084 Cl
ATOM     11  C   UNL     1      -3.760   2.300  24.696  0.00  0.00    -0.032 A 
ATOM     12  C   UNL     1      -2.560   2.973  24.468  0.00  0.00    +0.025 A 
ATOM     13  C   UNL     1      -4.677   2.803  25.619  0.00  0.00    +0.005 A 
ATOM     15  C   UNL     1      -2.277   4.149  25.164  0.00  0.00    +0.041 A 
ATOM     16  C   UNL     1      -4.394   3.978  26.314  0.00  0.00    +0.002 A 
ATOM     17  C   UNL     1      -3.194   4.652  26.087  0.00  0.00    +0.020 A 
ENDBRANCH   8  11
ENDBRANCH   4   8
TORSDOF 3
ENDMDL
MODEL 6
REMARK VINA RESULT:      -5.7      1.681      3.243
REMARK  Name = 75367733
REMARK  4 active torsions:
REMARK  status: ('A' for Active; 'I' for Inactive)
REMARK    1  A    between atoms: O_3  and  C_6
REMARK    2  A    between atoms: O_3  and  C_14
REMARK    3  A    between atoms: N_4  and  C_8
REMARK    4  A    between atoms: C_8  and  C_11
REMARK                            x       y       z     vdW  Elec       q    Type
REMARK                         _______ _______ _______ _____ _____    ______ ____
ROOT
ATOM      2  O   UNL     1      -2.066   5.189  25.521  0.00  0.00    -0.376 OA
ATOM      4  N   UNL     1      -1.248   2.327  24.589  0.00  0.00    -0.293 NA
ATOM      5  C   UNL     1      -2.695   2.121  24.718  0.00  0.00    +0.118 C 
ATOM      6  C   UNL     1      -3.559   3.327  25.116  0.00  0.00    +0.157 C 
ATOM      7  C   UNL     1      -0.872   3.625  24.026  0.00  0.00    +0.113 C 
ATOM      9  C   UNL     1      -2.921   4.242  26.153  0.00  0.00    +0.192 C 
ATOM     10  C   UNL     1      -0.799   4.674  25.136  0.00  0.00    +0.175 C 
ENDROOT
BRANCH   6   3
ATOM      3  O   UNL     1      -4.786   2.835  25.659  0.00  0.00    -0.376 OA
ATOM     14  C   UNL     1      -5.331   1.805  24.849  0.00  0.00    +0.194 C 
ENDBRANCH   6   3
BRANCH   4   8
ATOM      8  C   UNL     1      -0.647   1.224  23.839  0.00  0.00    +0.119 C 
BRANCH   8  11
ATOM      1 CL   UNL     1      -4.698  -2.057  23.775  0.00  0.00    -0.084 Cl
ATOM     11  C   UNL     1      -1.235  -0.106  24.232  0.00  0.00    -0.032 A 
ATOM     12  C   UNL     1      -2.541  -0.427  23.864  0.00  0.00    +0.025 A 
ATOM     13  C   UNL     1      -0.472  -1.017  24.963  0.00  0.00    +0.005 A 
ATOM     15  C   UNL     1      -3.084  -1.660  24.227  0.00  0.00    +0.041 A 
ATOM     16  C   UNL     1      -1.015  -2.249  25.326  0.00  0.00    +0.002 A 
ATOM     17  C   UNL     1      -2.321  -2.571  24.958  0.00  0.00    +0.020 A 
ENDBRANCH   8  11
ENDBRANCH   4   8
TORSDOF 3
ENDMDL
MODEL 7
REMARK VINA RESULT:      -5.5      2.917      5.440
REMARK  Name = 75367733
REMARK  4 active torsions:
REMARK  status: ('A' for Active; 'I' for Inactive)
REMARK    1  A    between atoms: O_3  and  C_6
REMARK    2  A    between atoms: O_3  and  C_14
REMARK    3  A    between atoms: N_4  and  C_8
REMARK    4  A    between atoms: C_8  and  C_11
REMARK                            x       y       z     vdW  Elec       q    Type
REMARK                         _______ _______ _______ _____ _____    ______ ____
ROOT
ATOM      2  O   UNL     1      -3.330  -2.549  24.473  0.00  0.00    -0.376 OA
ATOM      4  N   UNL     1      -1.458  -0.059  24.614  0.00  0.00    -0.293 NA
ATOM      5  C   UNL     1      -2.727   0.590  24.960  0.00  0.00    +0.118 C 
ATOM      6  C   UNL     1      -3.977  -0.296  25.074  0.00  0.00    +0.157 C 
ATOM      7  C   UNL     1      -1.277  -1.386  25.207  0.00  0.00    +0.113 C 
ATOM      9  C   UNL     1      -4.057  -1.407  24.035  0.00  0.00    +0.192 C 
ATOM     10  C   UNL     1      -1.922  -2.448  24.315  0.00  0.00    +0.175 C 
ENDROOT
BRANCH   6   3
ATOM      3  O   UNL     1      -5.128   0.537  24.917  0.00  0.00    -0.376 OA
ATOM     14  C   UNL     1      -4.765   1.841  24.490  0.00  0.00    +0.194 C 
ENDBRANCH   6   3
BRANCH   4   8
ATOM      8  C   UNL     1      -0.337   0.826  24.932  0.00  0.00    +0.119 C 
BRANCH   8  11
ATOM      1 CL   UNL     1      -3.467   4.482  26.933  0.00  0.00    -0.084 Cl
ATOM     11  C   UNL     1      -0.761   2.270  24.987  0.00  0.00    -0.032 A 
ATOM     12  C   UNL     1      -1.796   2.661  25.836  0.00  0.00    +0.025 A 
ATOM     13  C   UNL     1      -0.118   3.216  24.188  0.00  0.00    +0.005 A 
ATOM     15  C   UNL     1      -2.188   3.999  25.887  0.00  0.00    +0.041 A 
ATOM     16  C   UNL     1      -0.510   4.554  24.239  0.00  0.00    +0.002 A 
ATOM     17  C   UNL     1      -1.545   4.946  25.089  0.00  0.00    +0.020 A 
ENDBRANCH   8  11
ENDBRANCH   4   8
TORSDOF 3
ENDMDL
MODEL 8
REMARK VINA RESULT:      -5.5      2.259      3.432
REMARK  Name = 75367733
REMARK  4 active torsions:
REMARK  status: ('A' for Active; 'I' for Inactive)
REMARK    1  A    between atoms: O_3  and  C_6
REMARK    2  A    between atoms: O_3  and  C_14
REMARK    3  A    between atoms: N_4  and  C_8
REMARK    4  A    between atoms: C_8  and  C_11
REMARK                            x       y       z     vdW  Elec       q    Type
REMARK                         _______ _______ _______ _____ _____    ______ ____
ROOT
ATOM      2  O   UNL     1      -0.698   4.480  25.224  0.00  0.00    -0.376 OA
ATOM      4  N   UNL     1      -2.962   2.481  24.446  0.00  0.00    -0.293 NA
ATOM      5  C   UNL     1      -1.804   1.601  24.253  0.00  0.00    +0.118 C 
ATOM      6  C   UNL     1      -0.413   2.163  24.586  0.00  0.00    +0.157 C 
ATOM      7  C   UNL     1      -2.865   3.358  25.615  0.00  0.00    +0.113 C 
ATOM      9  C   UNL     1      -0.215   3.622  24.197  0.00  0.00    +0.192 C 
ATOM     10  C   UNL     1      -2.110   4.636  25.247  0.00  0.00    +0.175 C 
ENDROOT
BRANCH   6   3
ATOM      3  O   UNL     1       0.560   1.385  23.886  0.00  0.00    -0.376 OA
ATOM     14  C   UNL     1       0.117   0.050  23.704  0.00  0.00    +0.194 C 
ENDBRANCH   6   3
BRANCH   4   8
ATOM      8  C   UNL     1      -4.194   1.693  24.469  0.00  0.00    +0.119 C 
BRANCH   8  11
ATOM      1 CL   UNL     1      -4.531  -3.282  22.951  0.00  0.00    -0.084 Cl
ATOM     11  C   UNL     1      -3.924   0.238  24.751  0.00  0.00    -0.032 A 
ATOM     12  C   UNL     1      -4.307  -0.734  23.828  0.00  0.00    +0.025 A 
ATOM     13  C   UNL     1      -3.290  -0.136  25.936  0.00  0.00    +0.005 A 
ATOM     15  C   UNL     1      -4.056  -2.082  24.089  0.00  0.00    +0.041 A 
ATOM     16  C   UNL     1      -3.039  -1.483  26.198  0.00  0.00    +0.002 A 
ATOM     17  C   UNL     1      -3.422  -2.456  25.274  0.00  0.00    +0.020 A 
ENDBRANCH   8  11
ENDBRANCH   4   8
TORSDOF 3
ENDMDL
MODEL 9
REMARK VINA RESULT:      -4.9      3.654      5.880
REMARK  Name = 75367733
REMARK  4 active torsions:
REMARK  status: ('A' for Active; 'I' for Inactive)
REMARK    1  A    between atoms: O_3  and  C_6
REMARK    2  A    between atoms: O_3  and  C_14
REMARK    3  A    between atoms: N_4  and  C_8
REMARK    4  A    between atoms: C_8  and  C_11
REMARK                            x       y       z     vdW  Elec       q    Type
REMARK                         _______ _______ _______ _____ _____    ______ ____
ROOT
ATOM      2  O   UNL     1       1.102  -0.379  23.369  0.00  0.00    -0.376 OA
ATOM      4  N   UNL     1      -1.052   1.449  24.689  0.00  0.00    -0.293 NA
ATOM      5  C   UNL     1      -1.388   0.185  25.353  0.00  0.00    +0.118 C 
ATOM      6  C   UNL     1      -0.517  -1.042  25.042  0.00  0.00    +0.157 C 
ATOM      7  C   UNL     1       0.385   1.682  24.527  0.00  0.00    +0.113 C 
ATOM      9  C   UNL     1      -0.076  -1.148  23.588  0.00  0.00    +0.192 C 
ATOM     10  C   UNL     1       0.879   1.018  23.241  0.00  0.00    +0.175 C 
ENDROOT
BRANCH   6   3
ATOM      3  O   UNL     1      -1.270  -2.214  25.361  0.00  0.00    -0.376 OA
ATOM     14  C   UNL     1      -2.437  -2.309  24.561  0.00  0.00    +0.194 C 
ENDBRANCH   6   3
BRANCH   4   8
ATOM      8  C   UNL     1      -1.701   2.566  25.376  0.00  0.00    +0.119 C 
BRANCH   8  11
ATOM      1 CL   UNL     1      -6.316   4.978  25.616  0.00  0.00    -0.084 Cl
ATOM     11  C   UNL     1      -3.202   2.490  25.276  0.00  0.00    -0.032 A 
ATOM     12  C   UNL     1      -3.973   3.636  25.469  0.00  0.00    +0.025 A 
ATOM     13  C   UNL     1      -3.820   1.272  24.990  0.00  0.00    +0.005 A 
ATOM     15  C   UNL     1      -5.363   3.564  25.375  0.00  0.00    +0.041 A 
ATOM     16  C   UNL     1      -5.210   1.201  24.897  0.00  0.00    +0.002 A 
ATOM     17  C   UNL     1      -5.982   2.347  25.089  0.00  0.00    +0.020 A 
ENDBRANCH   8  11
ENDBRANCH   4   8
TORSDOF 3
ENDMDL
MODEL 10
REMARK VINA RESULT:      -4.7      3.312      5.799
REMARK  Name = 75367733
REMARK  4 active torsions:
REMARK  status: ('A' for Active; 'I' for Inactive)
REMARK    1  A    between atoms: O_3  and  C_6
REMARK    2  A    between atoms: O_3  and  C_14
REMARK    3  A    between atoms: N_4  and  C_8
REMARK    4  A    between atoms: C_8  and  C_11
REMARK                            x       y       z     vdW  Elec       q    Type
REMARK                         _______ _______ _______ _____ _____    ______ ____
ROOT
ATOM      2  O   UNL     1      -4.220  -2.067  24.284  0.00  0.00    -0.376 OA
ATOM      4  N   UNL     1      -2.129   0.245  24.191  0.00  0.00    -0.293 NA
ATOM      5  C   UNL     1      -1.216  -0.880  24.420  0.00  0.00    +0.118 C 
ATOM      6  C   UNL     1      -1.819  -2.292  24.481  0.00  0.00    +0.157 C 
ATOM      7  C   UNL     1      -3.226  -0.047  23.265  0.00  0.00    +0.113 C 
ATOM      9  C   UNL     1      -3.164  -2.370  25.189  0.00  0.00    +0.192 C 
ATOM     10  C   UNL     1      -4.393  -0.681  24.023  0.00  0.00    +0.175 C 
ENDROOT
BRANCH   6   3
ATOM      3  O   UNL     1      -0.903  -3.136  25.182  0.00  0.00    -0.376 OA
ATOM     14  C   UNL     1       0.289  -2.440  25.513  0.00  0.00    +0.194 C 
ENDBRANCH   6   3
BRANCH   4   8
ATOM      8  C   UNL     1      -1.376   1.428  23.772  0.00  0.00    +0.119 C 
BRANCH   8  11
ATOM      1 CL   UNL     1      -5.411   4.106  25.701  0.00  0.00    -0.084 Cl
ATOM     11  C   UNL     1      -1.898   2.683  24.421  0.00  0.00    -0.032 A 
ATOM     12  C   UNL     1      -3.254   2.799  24.725  0.00  0.00    +0.025 A 
ATOM     13  C   UNL     1      -1.024   3.729  24.719  0.00  0.00    +0.005 A 
ATOM     15  C   UNL     1      -3.737   3.961  25.328  0.00  0.00    +0.041 A 
ATOM     16  C   UNL     1      -1.506   4.891  25.321  0.00  0.00    +0.002 A 
ATOM     17  C   UNL     1      -2.863   5.007  25.625  0.00  0.00    +0.020 A 
ENDBRANCH   8  11
ENDBRANCH   4   8
TORSDOF 3
ENDMDL
