MODEL 1
REMARK VINA RESULT:      -2.5      0.000      0.000
REMARK  Name = 44715958
REMARK  7 active torsions:
REMARK  status: ('A' for Active; 'I' for Inactive)
REMARK    1  A    between atoms: N_5  and  C_15
REMARK    2  A    between atoms: C_9  and  C_16
REMARK    3  A    between atoms: C_10  and  C_15
REMARK    4  A    between atoms: C_22  and  C_23
REMARK    5  A    between atoms: C_23  and  C_24
REMARK    6  A    between atoms: C_23  and  C_25
REMARK    7  A    between atoms: C_23  and  C_26
REMARK                            x       y       z     vdW  Elec       q    Type
REMARK                         _______ _______ _______ _____ _____    ______ ____
ROOT
ATOM      3  N   UNL     1      -3.774  -1.499  25.800  0.00  0.00    -0.297 NA
ATOM      8  C   UNL     1      -2.084  -1.376  23.825  0.00  0.00    +0.005 C 
ATOM      9  C   UNL     1      -1.392  -1.086  25.170  0.00  0.00    +0.092 C 
ATOM     10  C   UNL     1      -4.294  -0.590  24.744  0.00  0.00    +0.078 C 
ATOM     11  C   UNL     1      -3.244  -0.379  23.630  0.00  0.00    +0.025 C 
ATOM     12  C   UNL     1      -2.703  -2.782  23.937  0.00  0.00    +0.020 C 
ATOM     13  C   UNL     1      -2.454  -1.025  26.283  0.00  0.00    +0.097 C 
ATOM     14  C   UNL     1      -3.591  -2.842  25.194  0.00  0.00    +0.085 C 
ENDROOT
BRANCH   9  16
ATOM      1  O   UNL     1      -0.652   0.989  26.047  0.00  0.00    -0.275 OA
ATOM      2  O   UNL     1       2.379   0.438  22.179  0.00  0.00    -0.377 OA
ATOM      4  N   UNL     1       0.223   0.360  23.990  0.00  0.00    -0.297 N 
ATOM     16  C   UNL     1      -0.579   0.184  25.116  0.00  0.00    +0.220 C 
ATOM     17  C   UNL     1       1.047   1.561  23.859  0.00  0.00    +0.136 C 
ATOM     18  C   UNL     1       0.237  -0.512  22.811  0.00  0.00    +0.136 C 
ATOM     20  C   UNL     1       2.447   1.195  23.389  0.00  0.00    +0.179 C 
ATOM     21  C   UNL     1       1.673  -0.790  22.379  0.00  0.00    +0.179 C 
ENDBRANCH   9  16
BRANCH  10  15
ATOM     15  C   UNL     1      -4.795   0.738  25.313  0.00  0.00    +0.164 C 
BRANCH  15   5
ATOM      5  N   UNL     1      -3.946   1.891  24.854  0.00  0.00    -0.250 N 
ATOM      6  N   UNL     1      -4.174   2.482  23.670  0.00  0.00    -0.065 NA
ATOM      7  N   UNL     1      -3.277   3.452  23.535  0.00  0.00    -0.134 NA
ATOM     19  C   UNL     1      -2.900   2.464  25.508  0.00  0.00    +0.134 A 
ATOM     22  C   UNL     1      -2.489   3.454  24.652  0.00  0.00    +0.088 A 
BRANCH  22  23
ATOM     23  C   UNL     1      -1.391   4.416  24.808  0.00  0.00    +0.008 C 
ATOM     24  C   UNL     1      -1.909   5.838  25.225  0.00  0.00    +0.017 C 
ATOM     25  C   UNL     1      -0.368   3.969  25.909  0.00  0.00    +0.017 C 
ATOM     26  C   UNL     1      -0.508   4.677  23.530  0.00  0.00    +0.017 C 
ENDBRANCH  22  23
ENDBRANCH  15   5
ENDBRANCH  10  15
TORSDOF 4
ENDMDL
MODEL 2
REMARK VINA RESULT:      -2.0      2.133      5.102
REMARK  Name = 44715958
REMARK  7 active torsions:
REMARK  status: ('A' for Active; 'I' for Inactive)
REMARK    1  A    between atoms: N_5  and  C_15
REMARK    2  A    between atoms: C_9  and  C_16
REMARK    3  A    between atoms: C_10  and  C_15
REMARK    4  A    between atoms: C_22  and  C_23
REMARK    5  A    between atoms: C_23  and  C_24
REMARK    6  A    between atoms: C_23  and  C_25
REMARK    7  A    between atoms: C_23  and  C_26
REMARK                            x       y       z     vdW  Elec       q    Type
REMARK                         _______ _______ _______ _____ _____    ______ ____
ROOT
ATOM      3  N   UNL     1      -2.219  -0.669  23.976  0.00  0.00    -0.297 NA
ATOM      8  C   UNL     1      -4.474  -1.055  25.215  0.00  0.00    +0.005 C 
ATOM      9  C   UNL     1      -4.559   0.157  24.268  0.00  0.00    +0.092 C 
ATOM     10  C   UNL     1      -1.983  -0.758  25.441  0.00  0.00    +0.078 C 
ATOM     11  C   UNL     1      -3.319  -0.834  26.213  0.00  0.00    +0.025 C 
ATOM     12  C   UNL     1      -4.103  -2.272  24.348  0.00  0.00    +0.020 C 
ATOM     13  C   UNL     1      -3.166   0.432  23.673  0.00  0.00    +0.097 C 
ATOM     14  C   UNL     1      -2.836  -1.945  23.536  0.00  0.00    +0.085 C 
ENDROOT
BRANCH   9  16
ATOM      1  O   UNL     1      -6.151   1.278  25.620  0.00  0.00    -0.275 OA
ATOM      2  O   UNL     1      -2.623   4.721  25.224  0.00  0.00    -0.377 OA
ATOM      4  N   UNL     1      -4.379   2.553  24.829  0.00  0.00    -0.297 N 
ATOM     16  C   UNL     1      -5.109   1.375  24.968  0.00  0.00    +0.220 C 
ATOM     17  C   UNL     1      -4.839   3.780  25.480  0.00  0.00    +0.136 C 
ATOM     18  C   UNL     1      -3.210   2.733  23.962  0.00  0.00    +0.136 C 
ATOM     20  C   UNL     1      -3.677   4.487  26.162  0.00  0.00    +0.179 C 
ATOM     21  C   UNL     1      -2.115   3.489  24.705  0.00  0.00    +0.179 C 
ENDBRANCH   9  16
BRANCH  10  15
ATOM     15  C   UNL     1      -1.091   0.372  25.958  0.00  0.00    +0.164 C 
BRANCH  15   5
ATOM      5  N   UNL     1       0.050   0.648  25.018  0.00  0.00    -0.250 N 
ATOM      6  N   UNL     1       0.451   1.906  24.777  0.00  0.00    -0.065 NA
ATOM      7  N   UNL     1       1.460   1.840  23.916  0.00  0.00    -0.134 NA
ATOM     19  C   UNL     1       0.788  -0.257  24.320  0.00  0.00    +0.134 A 
ATOM     22  C   UNL     1       1.679   0.523  23.626  0.00  0.00    +0.088 A 
BRANCH  22  23
ATOM     23  C   UNL     1       2.736   0.113  22.692  0.00  0.00    +0.008 C 
ATOM     24  C   UNL     1       3.582  -1.085  23.251  0.00  0.00    +0.017 C 
ATOM     25  C   UNL     1       2.155  -0.350  21.311  0.00  0.00    +0.017 C 
ATOM     26  C   UNL     1       3.803   1.212  22.325  0.00  0.00    +0.017 C 
ENDBRANCH  22  23
ENDBRANCH  15   5
ENDBRANCH  10  15
TORSDOF 4
ENDMDL
MODEL 3
REMARK VINA RESULT:      -2.0      2.259      6.496
REMARK  Name = 44715958
REMARK  7 active torsions:
REMARK  status: ('A' for Active; 'I' for Inactive)
REMARK    1  A    between atoms: N_5  and  C_15
REMARK    2  A    between atoms: C_9  and  C_16
REMARK    3  A    between atoms: C_10  and  C_15
REMARK    4  A    between atoms: C_22  and  C_23
REMARK    5  A    between atoms: C_23  and  C_24
REMARK    6  A    between atoms: C_23  and  C_25
REMARK    7  A    between atoms: C_23  and  C_26
REMARK                            x       y       z     vdW  Elec       q    Type
REMARK                         _______ _______ _______ _____ _____    ______ ____
ROOT
ATOM      3  N   UNL     1      -0.896   4.159  25.806  0.00  0.00    -0.297 NA
ATOM      8  C   UNL     1      -1.333   3.715  23.279  0.00  0.00    +0.005 C 
ATOM      9  C   UNL     1      -2.654   3.808  24.065  0.00  0.00    +0.092 C 
ATOM     10  C   UNL     1      -0.102   2.987  25.352  0.00  0.00    +0.078 C 
ATOM     11  C   UNL     1      -0.457   2.607  23.897  0.00  0.00    +0.025 C 
ATOM     12  C   UNL     1      -0.596   5.051  23.488  0.00  0.00    +0.020 C 
ATOM     13  C   UNL     1      -2.342   3.924  25.568  0.00  0.00    +0.097 C 
ATOM     14  C   UNL     1      -0.479   5.332  24.998  0.00  0.00    +0.085 C 
ENDROOT
BRANCH   9  16
ATOM      1  O   UNL     1      -3.226   1.812  22.922  0.00  0.00    -0.275 OA
ATOM      2  O   UNL     1      -6.684   1.927  26.456  0.00  0.00    -0.377 OA
ATOM      4  N   UNL     1      -4.731   2.558  24.526  0.00  0.00    -0.297 N 
ATOM     16  C   UNL     1      -3.557   2.634  23.779  0.00  0.00    +0.220 C 
ATOM     17  C   UNL     1      -5.661   1.449  24.314  0.00  0.00    +0.136 C 
ATOM     18  C   UNL     1      -5.216   3.581  25.457  0.00  0.00    +0.136 C 
ATOM     20  C   UNL     1      -6.128   0.886  25.649  0.00  0.00    +0.179 C 
ATOM     21  C   UNL     1      -5.706   2.931  26.745  0.00  0.00    +0.179 C 
ENDBRANCH   9  16
BRANCH  10  15
ATOM     15  C   UNL     1      -0.231   1.793  26.300  0.00  0.00    +0.164 C 
BRANCH  15   5
ATOM      5  N   UNL     1      -0.720   0.567  25.579  0.00  0.00    -0.250 N 
ATOM      6  N   UNL     1       0.042  -0.034  24.652  0.00  0.00    -0.065 NA
ATOM      7  N   UNL     1      -0.645  -1.073  24.190  0.00  0.00    -0.134 NA
ATOM     19  C   UNL     1      -1.913  -0.068  25.738  0.00  0.00    +0.134 A 
ATOM     22  C   UNL     1      -1.844  -1.108  24.845  0.00  0.00    +0.088 A 
BRANCH  22  23
ATOM     23  C   UNL     1      -2.840  -2.148  24.556  0.00  0.00    +0.008 C 
ATOM     24  C   UNL     1      -2.255  -3.289  23.652  0.00  0.00    +0.017 C 
ATOM     25  C   UNL     1      -3.371  -2.835  25.863  0.00  0.00    +0.017 C 
ATOM     26  C   UNL     1      -4.139  -1.675  23.802  0.00  0.00    +0.017 C 
ENDBRANCH  22  23
ENDBRANCH  15   5
ENDBRANCH  10  15
TORSDOF 4
ENDMDL
MODEL 4
REMARK VINA RESULT:      -1.9      2.394      6.069
REMARK  Name = 44715958
REMARK  7 active torsions:
REMARK  status: ('A' for Active; 'I' for Inactive)
REMARK    1  A    between atoms: N_5  and  C_15
REMARK    2  A    between atoms: C_9  and  C_16
REMARK    3  A    between atoms: C_10  and  C_15
REMARK    4  A    between atoms: C_22  and  C_23
REMARK    5  A    between atoms: C_23  and  C_24
REMARK    6  A    between atoms: C_23  and  C_25
REMARK    7  A    between atoms: C_23  and  C_26
REMARK                            x       y       z     vdW  Elec       q    Type
REMARK                         _______ _______ _______ _____ _____    ______ ____
ROOT
ATOM      3  N   UNL     1      -0.243   1.691  25.293  0.00  0.00    -0.297 NA
ATOM      8  C   UNL     1      -2.296   3.085  24.511  0.00  0.00    +0.005 C 
ATOM      9  C   UNL     1      -2.723   1.945  25.454  0.00  0.00    +0.092 C 
ATOM     10  C   UNL     1      -0.249   1.795  23.810  0.00  0.00    +0.078 C 
ATOM     11  C   UNL     1      -1.537   2.486  23.309  0.00  0.00    +0.025 C 
ATOM     12  C   UNL     1      -1.299   3.960  25.293  0.00  0.00    +0.020 C 
ATOM     13  C   UNL     1      -1.500   1.065  25.770  0.00  0.00    +0.097 C 
ATOM     14  C   UNL     1      -0.172   3.067  25.846  0.00  0.00    +0.085 C 
ENDROOT
BRANCH   9  16
ATOM      1  O   UNL     1      -4.816   1.709  24.365  0.00  0.00    -0.275 OA
ATOM      2  O   UNL     1      -3.197  -2.964  24.370  0.00  0.00    -0.377 OA
ATOM      4  N   UNL     1      -3.718  -0.254  24.941  0.00  0.00    -0.297 N 
ATOM     16  C   UNL     1      -3.851   1.131  24.871  0.00  0.00    +0.220 C 
ATOM     17  C   UNL     1      -4.764  -1.118  24.395  0.00  0.00    +0.136 C 
ATOM     18  C   UNL     1      -2.650  -0.972  25.645  0.00  0.00    +0.136 C 
ATOM     20  C   UNL     1      -4.148  -2.247  23.580  0.00  0.00    +0.179 C 
ATOM     21  C   UNL     1      -2.124  -2.112  24.780  0.00  0.00    +0.179 C 
ENDBRANCH   9  16
BRANCH  10  15
ATOM     15  C   UNL     1      -0.027   0.444  23.129  0.00  0.00    +0.164 C 
BRANCH  15   5
ATOM      5  N   UNL     1       1.431   0.198  22.854  0.00  0.00    -0.250 N 
ATOM      6  N   UNL     1       1.867  -0.008  21.601  0.00  0.00    -0.065 NA
ATOM      7  N   UNL     1       3.180  -0.199  21.667  0.00  0.00    -0.134 NA
ATOM     19  C   UNL     1       2.448   0.144  23.755  0.00  0.00    +0.134 A 
ATOM     22  C   UNL     1       3.552  -0.109  22.979  0.00  0.00    +0.088 A 
BRANCH  22  23
ATOM     23  C   UNL     1       4.952  -0.278  23.388  0.00  0.00    +0.008 C 
ATOM     24  C   UNL     1       5.431   0.876  24.339  0.00  0.00    +0.017 C 
ATOM     25  C   UNL     1       5.182  -1.623  24.161  0.00  0.00    +0.017 C 
ATOM     26  C   UNL     1       6.016  -0.301  22.228  0.00  0.00    +0.017 C 
ENDBRANCH  22  23
ENDBRANCH  15   5
ENDBRANCH  10  15
TORSDOF 4
ENDMDL
MODEL 5
REMARK VINA RESULT:      -1.7      2.028      5.434
REMARK  Name = 44715958
REMARK  7 active torsions:
REMARK  status: ('A' for Active; 'I' for Inactive)
REMARK    1  A    between atoms: N_5  and  C_15
REMARK    2  A    between atoms: C_9  and  C_16
REMARK    3  A    between atoms: C_10  and  C_15
REMARK    4  A    between atoms: C_22  and  C_23
REMARK    5  A    between atoms: C_23  and  C_24
REMARK    6  A    between atoms: C_23  and  C_25
REMARK    7  A    between atoms: C_23  and  C_26
REMARK                            x       y       z     vdW  Elec       q    Type
REMARK                         _______ _______ _______ _____ _____    ______ ____
ROOT
ATOM      3  N   UNL     1      -3.073   3.264  25.947  0.00  0.00    -0.297 NA
ATOM      8  C   UNL     1      -3.105   3.205  23.346  0.00  0.00    +0.005 C 
ATOM      9  C   UNL     1      -3.859   2.000  23.941  0.00  0.00    +0.092 C 
ATOM     10  C   UNL     1      -1.688   3.395  25.420  0.00  0.00    +0.078 C 
ATOM     11  C   UNL     1      -1.661   3.210  23.886  0.00  0.00    +0.025 C 
ATOM     12  C   UNL     1      -3.799   4.471  23.879  0.00  0.00    +0.020 C 
ATOM     13  C   UNL     1      -3.687   2.001  25.470  0.00  0.00    +0.097 C 
ATOM     14  C   UNL     1      -3.871   4.397  25.416  0.00  0.00    +0.085 C 
ENDROOT
BRANCH   9  16
ATOM      1  O   UNL     1      -2.848   0.706  22.231  0.00  0.00    -0.275 OA
ATOM      2  O   UNL     1      -3.363  -2.661  25.816  0.00  0.00    -0.377 OA
ATOM      4  N   UNL     1      -3.626  -0.452  24.088  0.00  0.00    -0.297 N 
ATOM     16  C   UNL     1      -3.397   0.698  23.335  0.00  0.00    +0.220 C 
ATOM     17  C   UNL     1      -3.205  -1.756  23.576  0.00  0.00    +0.136 C 
ATOM     18  C   UNL     1      -4.386  -0.513  25.340  0.00  0.00    +0.136 C 
ATOM     20  C   UNL     1      -2.514  -2.557  24.671  0.00  0.00    +0.179 C 
ATOM     21  C   UNL     1      -3.650  -1.370  26.362  0.00  0.00    +0.179 C 
ENDBRANCH   9  16
BRANCH  10  15
ATOM     15  C   UNL     1      -0.705   2.459  26.124  0.00  0.00    +0.164 C 
BRANCH  15   5
ATOM      5  N   UNL     1      -0.066   1.501  25.157  0.00  0.00    -0.250 N 
ATOM      6  N   UNL     1      -0.625   0.307  24.905  0.00  0.00    -0.065 NA
ATOM      7  N   UNL     1       0.154  -0.316  24.027  0.00  0.00    -0.134 NA
ATOM     19  C   UNL     1       1.082   1.678  24.450  0.00  0.00    +0.134 A 
ATOM     22  C   UNL     1       1.204   0.510  23.738  0.00  0.00    +0.088 A 
BRANCH  22  23
ATOM     23  C   UNL     1       2.253   0.107  22.793  0.00  0.00    +0.008 C 
ATOM     24  C   UNL     1       3.094  -1.105  23.328  0.00  0.00    +0.017 C 
ATOM     25  C   UNL     1       1.661  -0.331  21.408  0.00  0.00    +0.017 C 
ATOM     26  C   UNL     1       3.325   1.204  22.436  0.00  0.00    +0.017 C 
ENDBRANCH  22  23
ENDBRANCH  15   5
ENDBRANCH  10  15
TORSDOF 4
ENDMDL
MODEL 6
REMARK VINA RESULT:      -1.6      1.442      4.768
REMARK  Name = 44715958
REMARK  7 active torsions:
REMARK  status: ('A' for Active; 'I' for Inactive)
REMARK    1  A    between atoms: N_5  and  C_15
REMARK    2  A    between atoms: C_9  and  C_16
REMARK    3  A    between atoms: C_10  and  C_15
REMARK    4  A    between atoms: C_22  and  C_23
REMARK    5  A    between atoms: C_23  and  C_24
REMARK    6  A    between atoms: C_23  and  C_25
REMARK    7  A    between atoms: C_23  and  C_26
REMARK                            x       y       z     vdW  Elec       q    Type
REMARK                         _______ _______ _______ _____ _____    ______ ____
ROOT
ATOM      3  N   UNL     1      -3.370   4.331  24.598  0.00  0.00    -0.297 NA
ATOM      8  C   UNL     1      -1.079   3.180  25.043  0.00  0.00    +0.005 C 
ATOM      9  C   UNL     1      -1.469   3.090  23.556  0.00  0.00    +0.092 C 
ATOM     10  C   UNL     1      -3.501   3.354  25.711  0.00  0.00    +0.078 C 
ATOM     11  C   UNL     1      -2.197   2.546  25.896  0.00  0.00    +0.025 C 
ATOM     12  C   UNL     1      -1.024   4.677  25.399  0.00  0.00    +0.020 C 
ATOM     13  C   UNL     1      -2.890   3.651  23.370  0.00  0.00    +0.097 C 
ATOM     14  C   UNL     1      -2.355   5.340  24.996  0.00  0.00    +0.085 C 
ENDROOT
BRANCH   9  16
ATOM      1  O   UNL     1      -2.334   1.165  22.475  0.00  0.00    -0.275 OA
ATOM      2  O   UNL     1       2.445  -0.032  22.900  0.00  0.00    -0.377 OA
ATOM      4  N   UNL     1      -0.142   1.035  23.228  0.00  0.00    -0.297 N 
ATOM     16  C   UNL     1      -1.363   1.678  23.036  0.00  0.00    +0.220 C 
ATOM     17  C   UNL     1       0.047  -0.334  22.751  0.00  0.00    +0.136 C 
ATOM     18  C   UNL     1       0.986   1.566  24.001  0.00  0.00    +0.136 C 
ATOM     20  C   UNL     1       1.388  -0.469  22.043  0.00  0.00    +0.179 C 
ATOM     21  C   UNL     1       2.291   1.349  23.243  0.00  0.00    +0.179 C 
ENDBRANCH   9  16
BRANCH  10  15
ATOM     15  C   UNL     1      -4.717   2.441  25.545  0.00  0.00    +0.164 C 
BRANCH  15   5
ATOM      5  N   UNL     1      -4.311   1.047  25.153  0.00  0.00    -0.250 N 
ATOM      6  N   UNL     1      -4.995   0.370  24.218  0.00  0.00    -0.065 NA
ATOM      7  N   UNL     1      -4.416  -0.818  24.087  0.00  0.00    -0.134 NA
ATOM     19  C   UNL     1      -3.277   0.314  25.648  0.00  0.00    +0.134 A 
ATOM     22  C   UNL     1      -3.362  -0.869  24.956  0.00  0.00    +0.088 A 
BRANCH  22  23
ATOM     23  C   UNL     1      -2.513  -2.063  25.056  0.00  0.00    +0.008 C 
ATOM     24  C   UNL     1      -1.060  -1.713  25.534  0.00  0.00    +0.017 C 
ATOM     25  C   UNL     1      -3.085  -3.108  26.076  0.00  0.00    +0.017 C 
ATOM     26  C   UNL     1      -2.305  -2.880  23.726  0.00  0.00    +0.017 C 
ENDBRANCH  22  23
ENDBRANCH  15   5
ENDBRANCH  10  15
TORSDOF 4
ENDMDL
MODEL 7
REMARK VINA RESULT:      -0.9      1.994      4.717
REMARK  Name = 44715958
REMARK  7 active torsions:
REMARK  status: ('A' for Active; 'I' for Inactive)
REMARK    1  A    between atoms: N_5  and  C_15
REMARK    2  A    between atoms: C_9  and  C_16
REMARK    3  A    between atoms: C_10  and  C_15
REMARK    4  A    between atoms: C_22  and  C_23
REMARK    5  A    between atoms: C_23  and  C_24
REMARK    6  A    between atoms: C_23  and  C_25
REMARK    7  A    between atoms: C_23  and  C_26
REMARK                            x       y       z     vdW  Elec       q    Type
REMARK                         _______ _______ _______ _____ _____    ______ ____
ROOT
ATOM      3  N   UNL     1      -2.519  -2.557  23.792  0.00  0.00    -0.297 NA
ATOM      8  C   UNL     1      -3.539  -1.018  25.625  0.00  0.00    +0.005 C 
ATOM      9  C   UNL     1      -3.969  -0.567  24.216  0.00  0.00    +0.092 C 
ATOM     10  C   UNL     1      -1.445  -2.067  24.697  0.00  0.00    +0.078 C 
ATOM     11  C   UNL     1      -1.999  -1.031  25.701  0.00  0.00    +0.025 C 
ATOM     12  C   UNL     1      -4.018  -2.472  25.793  0.00  0.00    +0.020 C 
ATOM     13  C   UNL     1      -3.226  -1.413  23.166  0.00  0.00    +0.097 C 
ATOM     14  C   UNL     1      -3.497  -3.314  24.613  0.00  0.00    +0.085 C 
ENDROOT
BRANCH   9  16
ATOM      1  O   UNL     1      -3.000   1.275  23.082  0.00  0.00    -0.275 OA
ATOM      2  O   UNL     1      -6.170   3.563  26.111  0.00  0.00    -0.377 OA
ATOM      4  N   UNL     1      -4.370   1.772  24.890  0.00  0.00    -0.297 N 
ATOM     16  C   UNL     1      -3.730   0.907  24.006  0.00  0.00    +0.220 C 
ATOM     17  C   UNL     1      -4.195   3.218  24.754  0.00  0.00    +0.136 C 
ATOM     18  C   UNL     1      -5.137   1.367  26.072  0.00  0.00    +0.136 C 
ATOM     20  C   UNL     1      -5.534   3.929  24.884  0.00  0.00    +0.179 C 
ATOM     21  C   UNL     1      -6.438   2.158  26.151  0.00  0.00    +0.179 C 
ENDBRANCH   9  16
BRANCH  10  15
ATOM     15  C   UNL     1      -0.237  -1.527  23.931  0.00  0.00    +0.164 C 
BRANCH  15   5
ATOM      5  N   UNL     1      -0.047  -0.054  24.166  0.00  0.00    -0.250 N 
ATOM      6  N   UNL     1       0.712   0.681  23.339  0.00  0.00    -0.065 NA
ATOM      7  N   UNL     1       0.698   1.929  23.794  0.00  0.00    -0.134 NA
ATOM     19  C   UNL     1      -0.568   0.699  25.173  0.00  0.00    +0.134 A 
ATOM     22  C   UNL     1      -0.080   1.957  24.917  0.00  0.00    +0.088 A 
BRANCH  22  23
ATOM     23  C   UNL     1      -0.296   3.203  25.665  0.00  0.00    +0.008 C 
ATOM     24  C   UNL     1       0.716   3.357  26.854  0.00  0.00    +0.017 C 
ATOM     25  C   UNL     1      -0.122   4.471  24.758  0.00  0.00    +0.017 C 
ATOM     26  C   UNL     1      -1.713   3.380  26.327  0.00  0.00    +0.017 C 
ENDBRANCH  22  23
ENDBRANCH  15   5
ENDBRANCH  10  15
TORSDOF 4
ENDMDL
MODEL 8
REMARK VINA RESULT:      -0.6      1.791      2.973
REMARK  Name = 44715958
REMARK  7 active torsions:
REMARK  status: ('A' for Active; 'I' for Inactive)
REMARK    1  A    between atoms: N_5  and  C_15
REMARK    2  A    between atoms: C_9  and  C_16
REMARK    3  A    between atoms: C_10  and  C_15
REMARK    4  A    between atoms: C_22  and  C_23
REMARK    5  A    between atoms: C_23  and  C_24
REMARK    6  A    between atoms: C_23  and  C_25
REMARK    7  A    between atoms: C_23  and  C_26
REMARK                            x       y       z     vdW  Elec       q    Type
REMARK                         _______ _______ _______ _____ _____    ______ ____
ROOT
ATOM      3  N   UNL     1      -3.441  -1.315  25.648  0.00  0.00    -0.297 NA
ATOM      8  C   UNL     1      -1.234  -2.349  24.736  0.00  0.00    +0.005 C 
ATOM      9  C   UNL     1      -0.988  -0.953  25.341  0.00  0.00    +0.092 C 
ATOM     10  C   UNL     1      -3.631  -1.758  24.241  0.00  0.00    +0.078 C 
ATOM     11  C   UNL     1      -2.297  -2.235  23.625  0.00  0.00    +0.025 C 
ATOM     12  C   UNL     1      -1.832  -3.220  25.856  0.00  0.00    +0.020 C 
ATOM     13  C   UNL     1      -2.338  -0.326  25.730  0.00  0.00    +0.097 C 
ATOM     14  C   UNL     1      -3.058  -2.503  26.451  0.00  0.00    +0.085 C 
ENDROOT
BRANCH   9  16
ATOM      1  O   UNL     1       0.194  -0.527  23.331  0.00  0.00    -0.275 OA
ATOM      2  O   UNL     1      -0.252   4.039  25.177  0.00  0.00    -0.377 OA
ATOM      4  N   UNL     1      -0.029   1.255  24.802  0.00  0.00    -0.297 N 
ATOM     16  C   UNL     1      -0.219  -0.064  24.396  0.00  0.00    +0.220 C 
ATOM     17  C   UNL     1       0.702   2.187  23.943  0.00  0.00    +0.136 C 
ATOM     18  C   UNL     1      -0.395   1.804  26.112  0.00  0.00    +0.136 C 
ATOM     20  C   UNL     1      -0.029   3.520  23.864  0.00  0.00    +0.179 C 
ATOM     21  C   UNL     1      -1.076   3.157  25.944  0.00  0.00    +0.179 C 
ENDBRANCH   9  16
BRANCH  10  15
ATOM     15  C   UNL     1      -4.306  -0.689  23.379  0.00  0.00    +0.164 C 
BRANCH  15   5
ATOM      5  N   UNL     1      -4.619   0.546  24.177  0.00  0.00    -0.250 N 
ATOM      6  N   UNL     1      -5.558   0.524  25.136  0.00  0.00    -0.065 NA
ATOM      7  N   UNL     1      -5.617   1.743  25.659  0.00  0.00    -0.134 NA
ATOM     19  C   UNL     1      -4.052   1.777  24.058  0.00  0.00    +0.134 A 
ATOM     22  C   UNL     1      -4.701   2.523  25.010  0.00  0.00    +0.088 A 
BRANCH  22  23
ATOM     23  C   UNL     1      -4.522   3.939  25.357  0.00  0.00    +0.008 C 
ATOM     24  C   UNL     1      -3.746   4.725  24.243  0.00  0.00    +0.017 C 
ATOM     25  C   UNL     1      -5.894   4.674  25.555  0.00  0.00    +0.017 C 
ATOM     26  C   UNL     1      -3.720   4.233  26.679  0.00  0.00    +0.017 C 
ENDBRANCH  22  23
ENDBRANCH  15   5
ENDBRANCH  10  15
TORSDOF 4
ENDMDL
MODEL 9
REMARK VINA RESULT:      -0.0      2.599      6.205
REMARK  Name = 44715958
REMARK  7 active torsions:
REMARK  status: ('A' for Active; 'I' for Inactive)
REMARK    1  A    between atoms: N_5  and  C_15
REMARK    2  A    between atoms: C_9  and  C_16
REMARK    3  A    between atoms: C_10  and  C_15
REMARK    4  A    between atoms: C_22  and  C_23
REMARK    5  A    between atoms: C_23  and  C_24
REMARK    6  A    between atoms: C_23  and  C_25
REMARK    7  A    between atoms: C_23  and  C_26
REMARK                            x       y       z     vdW  Elec       q    Type
REMARK                         _______ _______ _______ _____ _____    ______ ____
ROOT
ATOM      3  N   UNL     1      -1.560  -1.502  23.711  0.00  0.00    -0.297 NA
ATOM      8  C   UNL     1      -1.691   0.168  25.703  0.00  0.00    +0.005 C 
ATOM      9  C   UNL     1      -2.772   0.471  24.649  0.00  0.00    +0.092 C 
ATOM     10  C   UNL     1      -0.224  -0.895  23.953  0.00  0.00    +0.078 C 
ATOM     11  C   UNL     1      -0.305   0.211  25.028  0.00  0.00    +0.025 C 
ATOM     12  C   UNL     1      -1.925  -1.279  26.177  0.00  0.00    +0.020 C 
ATOM     13  C   UNL     1      -2.562  -0.444  23.430  0.00  0.00    +0.097 C 
ATOM     14  C   UNL     1      -1.969  -2.209  24.950  0.00  0.00    +0.085 C 
ENDROOT
BRANCH   9  16
ATOM      1  O   UNL     1      -2.011   2.309  23.359  0.00  0.00    -0.275 OA
ATOM      2  O   UNL     1      -5.875   4.311  25.707  0.00  0.00    -0.377 OA
ATOM      4  N   UNL     1      -3.655   2.758  24.936  0.00  0.00    -0.297 N 
ATOM     16  C   UNL     1      -2.771   1.926  24.251  0.00  0.00    +0.220 C 
ATOM     17  C   UNL     1      -3.720   4.182  24.610  0.00  0.00    +0.136 C 
ATOM     18  C   UNL     1      -4.477   2.364  26.085  0.00  0.00    +0.136 C 
ATOM     20  C   UNL     1      -5.170   4.636  24.507  0.00  0.00    +0.179 C 
ATOM     21  C   UNL     1      -5.895   2.897  25.924  0.00  0.00    +0.179 C 
ENDBRANCH   9  16
BRANCH  10  15
ATOM     15  C   UNL     1       0.429  -0.390  22.665  0.00  0.00    +0.164 C 
BRANCH  15   5
ATOM      5  N   UNL     1       1.855   0.029  22.897  0.00  0.00    -0.250 N 
ATOM      6  N   UNL     1       2.203   1.324  22.862  0.00  0.00    -0.065 NA
ATOM      7  N   UNL     1       3.510   1.388  23.094  0.00  0.00    -0.134 NA
ATOM     19  C   UNL     1       2.924  -0.773  23.152  0.00  0.00    +0.134 A 
ATOM     22  C   UNL     1       3.967   0.112  23.274  0.00  0.00    +0.088 A 
BRANCH  22  23
ATOM     23  C   UNL     1       5.384  -0.158  23.549  0.00  0.00    +0.008 C 
ATOM     24  C   UNL     1       6.069   1.024  24.321  0.00  0.00    +0.017 C 
ATOM     25  C   UNL     1       5.578  -1.443  24.427  0.00  0.00    +0.017 C 
ATOM     26  C   UNL     1       6.302  -0.394  22.292  0.00  0.00    +0.017 C 
ENDBRANCH  22  23
ENDBRANCH  15   5
ENDBRANCH  10  15
TORSDOF 4
ENDMDL
MODEL 10
REMARK VINA RESULT:       0.2      2.062      5.337
REMARK  Name = 44715958
REMARK  7 active torsions:
REMARK  status: ('A' for Active; 'I' for Inactive)
REMARK    1  A    between atoms: N_5  and  C_15
REMARK    2  A    between atoms: C_9  and  C_16
REMARK    3  A    between atoms: C_10  and  C_15
REMARK    4  A    between atoms: C_22  and  C_23
REMARK    5  A    between atoms: C_23  and  C_24
REMARK    6  A    between atoms: C_23  and  C_25
REMARK    7  A    between atoms: C_23  and  C_26
REMARK                            x       y       z     vdW  Elec       q    Type
REMARK                         _______ _______ _______ _____ _____    ______ ____
ROOT
ATOM      3  N   UNL     1      -2.449   3.985  26.072  0.00  0.00    -0.297 NA
ATOM      8  C   UNL     1      -4.602   3.291  24.785  0.00  0.00    +0.005 C 
ATOM      9  C   UNL     1      -3.798   2.056  25.233  0.00  0.00    +0.092 C 
ATOM     10  C   UNL     1      -2.512   4.698  24.768  0.00  0.00    +0.078 C 
ATOM     11  C   UNL     1      -3.699   4.191  23.918  0.00  0.00    +0.025 C 
ATOM     12  C   UNL     1      -4.949   4.083  26.059  0.00  0.00    +0.020 C 
ATOM     13  C   UNL     1      -2.468   2.517  25.857  0.00  0.00    +0.097 C 
ATOM     14  C   UNL     1      -3.657   4.355  26.852  0.00  0.00    +0.085 C 
ENDROOT
BRANCH   9  16
ATOM      1  O   UNL     1      -3.246   1.538  22.987  0.00  0.00    -0.275 OA
ATOM      2  O   UNL     1      -3.313  -2.966  25.030  0.00  0.00    -0.377 OA
ATOM      4  N   UNL     1      -3.734  -0.257  24.377  0.00  0.00    -0.297 N 
ATOM     16  C   UNL     1      -3.567   1.096  24.093  0.00  0.00    +0.220 C 
ATOM     17  C   UNL     1      -3.526  -1.256  23.329  0.00  0.00    +0.136 C 
ATOM     18  C   UNL     1      -4.237  -0.806  25.641  0.00  0.00    +0.136 C 
ATOM     20  C   UNL     1      -2.700  -2.419  23.860  0.00  0.00    +0.179 C 
ATOM     21  C   UNL     1      -3.384  -1.992  26.076  0.00  0.00    +0.179 C 
ENDBRANCH   9  16
BRANCH  10  15
ATOM     15  C   UNL     1      -1.191   4.628  24.001  0.00  0.00    +0.164 C 
BRANCH  15   5
ATOM      5  N   UNL     1      -0.514   3.298  24.187  0.00  0.00    -0.250 N 
ATOM      6  N   UNL     1       0.245   3.060  25.268  0.00  0.00    -0.065 NA
ATOM      7  N   UNL     1       0.710   1.820  25.159  0.00  0.00    -0.134 NA
ATOM     19  C   UNL     1      -0.558   2.221  23.357  0.00  0.00    +0.134 A 
ATOM     22  C   UNL     1       0.227   1.293  23.994  0.00  0.00    +0.088 A 
BRANCH  22  23
ATOM     23  C   UNL     1       0.564  -0.075  23.580  0.00  0.00    +0.008 C 
ATOM     24  C   UNL     1      -0.088  -0.451  22.203  0.00  0.00    +0.017 C 
ATOM     25  C   UNL     1       2.111  -0.277  23.416  0.00  0.00    +0.017 C 
ATOM     26  C   UNL     1       0.116  -1.227  24.555  0.00  0.00    +0.017 C 
ENDBRANCH  22  23
ENDBRANCH  15   5
ENDBRANCH  10  15
TORSDOF 4
ENDMDL
