MODEL 1
REMARK VINA RESULT:      -1.1      0.000      0.000
REMARK  Name = 38029425
REMARK  14 active torsions:
REMARK  status: ('A' for Active; 'I' for Inactive)
REMARK    1  A    between atoms: O_3  and  C_22
REMARK    2  A    between atoms: O_3  and  C_26
REMARK    3  A    between atoms: N_4  and  C_14
REMARK    4  A    between atoms: N_5  and  C_21
REMARK    5  A    between atoms: C_7  and  C_11
REMARK    6  A    between atoms: C_8  and  C_14
REMARK    7  A    between atoms: C_10  and  C_15
REMARK    8  A    between atoms: C_11  and  C_16
REMARK    9  A    between atoms: C_11  and  C_17
REMARK   10  A    between atoms: C_12  and  C_18
REMARK   11  A    between atoms: C_15  and  C_19
REMARK   12  A    between atoms: C_20  and  C_22
REMARK   13  A    between atoms: C_21  and  C_23
REMARK   14  A    between atoms: C_29  and  C_34
REMARK                            x       y       z     vdW  Elec       q    Type
REMARK                         _______ _______ _______ _____ _____    ______ ____
ROOT
ATOM      7  C   UNL     1      -3.715  -0.675  25.137  0.00  0.00    +0.000 C 
ATOM      8  C   UNL     1      -2.519  -0.039  24.384  0.00  0.00    +0.032 C 
ATOM      9  C   UNL     1      -5.034  -0.355  24.416  0.00  0.00    +0.012 C 
ATOM     10  C   UNL     1      -5.281   1.161  24.296  0.00  0.00    +0.023 C 
ATOM     12  C   UNL     1      -4.048   1.896  23.811  0.00  0.00    -0.073 C 
ATOM     13  C   UNL     1      -2.825   1.338  23.845  0.00  0.00    -0.022 C 
ATOM     18  C   UNL     1      -4.261   3.271  23.242  0.00  0.00    +0.039 C 
ENDROOT
BRANCH   7  11
ATOM     11  C   UNL     1      -3.556  -2.191  25.279  0.00  0.00    -0.013 C 
ATOM     16  C   UNL     1      -2.082  -2.564  25.397  0.00  0.00    +0.007 C 
ATOM     17  C   UNL     1      -4.203  -2.908  24.099  0.00  0.00    +0.007 C 
ENDBRANCH   7  11
BRANCH   8  14
ATOM     14  C   UNL     1      -1.275   0.026  25.276  0.00  0.00    +0.112 C 
BRANCH  14   4
ATOM      2  O   UNL     1       0.148  -0.995  22.974  0.00  0.00    -0.272 OA
ATOM      4  N   UNL     1      -0.189   0.649  24.587  0.00  0.00    -0.312 N 
ATOM     20  C   UNL     1       0.443   0.085  23.480  0.00  0.00    +0.251 C 
ATOM     36  H   UNL     1       0.100   1.576  24.886  0.00  0.00    +0.149 HD
BRANCH  20  22
ATOM     22  C   UNL     1       1.558   0.961  22.949  0.00  0.00    +0.324 C 
BRANCH  22   3
ATOM      3  O   UNL     1       2.514   0.185  22.257  0.00  0.00    -0.483 OA
BRANCH   3  26
ATOM     26  C   UNL     1       3.684  -0.105  22.920  0.00  0.00    +0.121 A 
ATOM     30  C   UNL     1       3.882  -1.374  23.463  0.00  0.00    +0.045 A 
ATOM     31  C   UNL     1       4.672   0.871  23.049  0.00  0.00    +0.045 A 
ATOM     32  C   UNL     1       5.068  -1.668  24.137  0.00  0.00    +0.004 A 
ATOM     33  C   UNL     1       5.858   0.577  23.722  0.00  0.00    +0.004 A 
ATOM     35  C   UNL     1       6.056  -0.692  24.266  0.00  0.00    +0.000 A 
ENDBRANCH   3  26
ENDBRANCH  22   3
ENDBRANCH  20  22
ENDBRANCH  14   4
ENDBRANCH   8  14
BRANCH  10  15
ATOM     15  C   UNL     1      -5.780   1.743  25.623  0.00  0.00    +0.103 C 
BRANCH  15  19
ATOM      1  O   UNL     1      -5.697   4.158  25.746  0.00  0.00    -0.276 OA
ATOM      5  N   UNL     1      -3.866   2.913  26.451  0.00  0.00    -0.311 N 
ATOM     19  C   UNL     1      -5.143   3.079  25.934  0.00  0.00    +0.214 C 
ATOM     37  H   UNL     1      -3.525   1.975  26.638  0.00  0.00    +0.149 HD
BRANCH   5  21
ATOM     21  C   UNL     1      -3.022   4.019  26.837  0.00  0.00    +0.139 C 
BRANCH  21  23
ATOM     23  C   UNL     1      -2.066   4.405  25.745  0.00  0.00    -0.030 A 
ATOM     24  C   UNL     1      -1.053   3.527  25.362  0.00  0.00    +0.006 A 
ATOM     25  C   UNL     1      -2.193   5.643  25.113  0.00  0.00    +0.006 A 
ATOM     27  C   UNL     1      -0.166   3.886  24.347  0.00  0.00    +0.019 A 
ATOM     28  C   UNL     1      -1.306   6.002  24.098  0.00  0.00    +0.019 A 
ATOM     29  C   UNL     1      -0.291   5.123  23.715  0.00  0.00    +0.052 A 
BRANCH  29  34
ATOM      6  N   UNL     1       1.355   5.790  21.832  0.00  0.00    -0.191 NA
ATOM     34  C   UNL     1       0.617   5.491  22.676  0.00  0.00    +0.099 C 
ENDBRANCH  29  34
ENDBRANCH  21  23
ENDBRANCH   5  21
ENDBRANCH  15  19
ENDBRANCH  10  15
TORSDOF 11
ENDMDL
MODEL 2
REMARK VINA RESULT:      -0.8      1.788      4.406
REMARK  Name = 38029425
REMARK  14 active torsions:
REMARK  status: ('A' for Active; 'I' for Inactive)
REMARK    1  A    between atoms: O_3  and  C_22
REMARK    2  A    between atoms: O_3  and  C_26
REMARK    3  A    between atoms: N_4  and  C_14
REMARK    4  A    between atoms: N_5  and  C_21
REMARK    5  A    between atoms: C_7  and  C_11
REMARK    6  A    between atoms: C_8  and  C_14
REMARK    7  A    between atoms: C_10  and  C_15
REMARK    8  A    between atoms: C_11  and  C_16
REMARK    9  A    between atoms: C_11  and  C_17
REMARK   10  A    between atoms: C_12  and  C_18
REMARK   11  A    between atoms: C_15  and  C_19
REMARK   12  A    between atoms: C_20  and  C_22
REMARK   13  A    between atoms: C_21  and  C_23
REMARK   14  A    between atoms: C_29  and  C_34
REMARK                            x       y       z     vdW  Elec       q    Type
REMARK                         _______ _______ _______ _____ _____    ______ ____
ROOT
ATOM      7  C   UNL     1      -2.950   2.419  24.036  0.00  0.00    +0.000 C 
ATOM      8  C   UNL     1      -1.752   3.063  24.779  0.00  0.00    +0.032 C 
ATOM      9  C   UNL     1      -4.018   3.477  23.723  0.00  0.00    +0.012 C 
ATOM     10  C   UNL     1      -4.546   4.167  24.994  0.00  0.00    +0.023 C 
ATOM     12  C   UNL     1      -3.420   4.595  25.913  0.00  0.00    -0.073 C 
ATOM     13  C   UNL     1      -2.174   4.101  25.792  0.00  0.00    -0.022 C 
ATOM     18  C   UNL     1      -3.746   5.639  26.943  0.00  0.00    +0.039 C 
ENDROOT
BRANCH   7  11
ATOM     11  C   UNL     1      -2.511   1.726  22.743  0.00  0.00    -0.013 C 
ATOM     16  C   UNL     1      -2.773   2.627  21.540  0.00  0.00    +0.007 C 
ATOM     17  C   UNL     1      -3.228   0.389  22.585  0.00  0.00    +0.007 C 
ENDBRANCH   7  11
BRANCH   8  14
ATOM     14  C   UNL     1      -0.890   1.999  25.467  0.00  0.00    +0.112 C 
BRANCH  14   4
ATOM      2  O   UNL     1       1.502   2.085  23.843  0.00  0.00    -0.272 OA
ATOM      4  N   UNL     1      -0.450   1.017  24.525  0.00  0.00    -0.312 N 
ATOM     20  C   UNL     1       0.722   1.138  23.781  0.00  0.00    +0.251 C 
ATOM     36  H   UNL     1      -0.991   0.162  24.436  0.00  0.00    +0.149 HD
BRANCH  20  22
ATOM     22  C   UNL     1       0.944  -0.047  22.864  0.00  0.00    +0.324 C 
BRANCH  22   3
ATOM      3  O   UNL     1       2.132   0.116  22.119  0.00  0.00    -0.483 OA
BRANCH   3  26
ATOM     26  C   UNL     1       3.320  -0.108  22.776  0.00  0.00    +0.121 A 
ATOM     30  C   UNL     1       3.547  -1.329  23.410  0.00  0.00    +0.045 A 
ATOM     31  C   UNL     1       4.296   0.888  22.811  0.00  0.00    +0.045 A 
ATOM     32  C   UNL     1       4.750  -1.556  24.078  0.00  0.00    +0.004 A 
ATOM     33  C   UNL     1       5.499   0.661  23.478  0.00  0.00    +0.004 A 
ATOM     35  C   UNL     1       5.727  -0.560  24.112  0.00  0.00    +0.000 A 
ENDBRANCH   3  26
ENDBRANCH  22   3
ENDBRANCH  20  22
ENDBRANCH  14   4
ENDBRANCH   8  14
BRANCH  10  15
ATOM     15  C   UNL     1      -5.546   3.271  25.733  0.00  0.00    +0.103 C 
BRANCH  15  19
ATOM      1  O   UNL     1      -6.437   1.804  24.028  0.00  0.00    -0.276 OA
ATOM      5  N   UNL     1      -5.055   0.932  25.679  0.00  0.00    -0.311 N 
ATOM     19  C   UNL     1      -5.748   1.946  25.033  0.00  0.00    +0.214 C 
ATOM     37  H   UNL     1      -4.451   1.165  26.462  0.00  0.00    +0.149 HD
BRANCH   5  21
ATOM     21  C   UNL     1      -5.066  -0.441  25.231  0.00  0.00    +0.139 C 
BRANCH  21  23
ATOM     23  C   UNL     1      -3.698  -1.058  25.274  0.00  0.00    -0.030 A 
ATOM     24  C   UNL     1      -3.358  -2.064  24.369  0.00  0.00    +0.006 A 
ATOM     25  C   UNL     1      -2.766  -0.623  26.217  0.00  0.00    +0.006 A 
ATOM     27  C   UNL     1      -2.087  -2.637  24.409  0.00  0.00    +0.019 A 
ATOM     28  C   UNL     1      -1.495  -1.196  26.256  0.00  0.00    +0.019 A 
ATOM     29  C   UNL     1      -1.155  -2.203  25.352  0.00  0.00    +0.052 A 
BRANCH  29  34
ATOM      6  N   UNL     1       1.205  -3.266  25.425  0.00  0.00    -0.191 NA
ATOM     34  C   UNL     1       0.147  -2.789  25.392  0.00  0.00    +0.099 C 
ENDBRANCH  29  34
ENDBRANCH  21  23
ENDBRANCH   5  21
ENDBRANCH  15  19
ENDBRANCH  10  15
TORSDOF 11
ENDMDL
MODEL 3
REMARK VINA RESULT:       0.2      2.860      5.496
REMARK  Name = 38029425
REMARK  14 active torsions:
REMARK  status: ('A' for Active; 'I' for Inactive)
REMARK    1  A    between atoms: O_3  and  C_22
REMARK    2  A    between atoms: O_3  and  C_26
REMARK    3  A    between atoms: N_4  and  C_14
REMARK    4  A    between atoms: N_5  and  C_21
REMARK    5  A    between atoms: C_7  and  C_11
REMARK    6  A    between atoms: C_8  and  C_14
REMARK    7  A    between atoms: C_10  and  C_15
REMARK    8  A    between atoms: C_11  and  C_16
REMARK    9  A    between atoms: C_11  and  C_17
REMARK   10  A    between atoms: C_12  and  C_18
REMARK   11  A    between atoms: C_15  and  C_19
REMARK   12  A    between atoms: C_20  and  C_22
REMARK   13  A    between atoms: C_21  and  C_23
REMARK   14  A    between atoms: C_29  and  C_34
REMARK                            x       y       z     vdW  Elec       q    Type
REMARK                         _______ _______ _______ _____ _____    ______ ____
ROOT
ATOM      7  C   UNL     1      -3.737   2.578  24.161  0.00  0.00    +0.000 C 
ATOM      8  C   UNL     1      -4.389   3.721  24.979  0.00  0.00    +0.032 C 
ATOM      9  C   UNL     1      -4.777   1.499  23.822  0.00  0.00    +0.012 C 
ATOM     10  C   UNL     1      -5.421   0.892  25.083  0.00  0.00    +0.023 C 
ATOM     12  C   UNL     1      -5.850   1.962  26.067  0.00  0.00    -0.073 C 
ATOM     13  C   UNL     1      -5.389   3.223  25.996  0.00  0.00    -0.022 C 
ATOM     18  C   UNL     1      -6.859   1.559  27.106  0.00  0.00    +0.039 C 
ENDROOT
BRANCH   7  11
ATOM     11  C   UNL     1      -3.089   3.097  22.874  0.00  0.00    -0.013 C 
ATOM     16  C   UNL     1      -4.133   3.765  21.984  0.00  0.00    +0.007 C 
ATOM     17  C   UNL     1      -2.393   1.961  22.132  0.00  0.00    +0.007 C 
ENDBRANCH   7  11
BRANCH   8  14
ATOM     14  C   UNL     1      -3.328   4.575  25.681  0.00  0.00    +0.112 C 
BRANCH  14   4
ATOM      2  O   UNL     1      -0.715   5.305  24.679  0.00  0.00    -0.272 OA
ATOM      4  N   UNL     1      -2.109   3.843  25.834  0.00  0.00    -0.312 N 
ATOM     20  C   UNL     1      -0.887   4.269  25.317  0.00  0.00    +0.251 C 
ATOM     36  H   UNL     1      -2.125   2.997  26.397  0.00  0.00    +0.149 HD
BRANCH  20  22
ATOM     22  C   UNL     1       0.236   3.303  25.629  0.00  0.00    +0.324 C 
BRANCH  22   3
ATOM      3  O   UNL     1      -0.095   2.498  26.740  0.00  0.00    -0.483 OA
BRANCH   3  26
ATOM     26  C   UNL     1       0.751   2.548  27.824  0.00  0.00    +0.121 A 
ATOM     30  C   UNL     1       2.097   2.867  27.645  0.00  0.00    +0.045 A 
ATOM     31  C   UNL     1       0.261   2.279  29.102  0.00  0.00    +0.045 A 
ATOM     32  C   UNL     1       2.954   2.916  28.744  0.00  0.00    +0.004 A 
ATOM     33  C   UNL     1       1.119   2.330  30.201  0.00  0.00    +0.004 A 
ATOM     35  C   UNL     1       2.465   2.648  30.023  0.00  0.00    +0.000 A 
ENDBRANCH   3  26
ENDBRANCH  22   3
ENDBRANCH  20  22
ENDBRANCH  14   4
ENDBRANCH   8  14
BRANCH  10  15
ATOM     15  C   UNL     1      -4.482  -0.119  25.748  0.00  0.00    +0.103 C 
BRANCH  15  19
ATOM      1  O   UNL     1      -4.504  -1.854  24.061  0.00  0.00    -0.276 OA
ATOM      5  N   UNL     1      -2.480  -0.911  24.707  0.00  0.00    -0.311 N 
ATOM     19  C   UNL     1      -3.859  -1.063  24.744  0.00  0.00    +0.214 C 
ATOM     37  H   UNL     1      -2.048  -0.176  25.259  0.00  0.00    +0.149 HD
BRANCH   5  21
ATOM     21  C   UNL     1      -1.624  -1.685  23.839  0.00  0.00    +0.139 C 
BRANCH  21  23
ATOM     23  C   UNL     1      -0.341  -0.969  23.531  0.00  0.00    -0.030 A 
ATOM     24  C   UNL     1       0.115   0.041  24.378  0.00  0.00    +0.006 A 
ATOM     25  C   UNL     1       0.397  -1.316  22.399  0.00  0.00    +0.006 A 
ATOM     27  C   UNL     1       1.308   0.706  24.092  0.00  0.00    +0.019 A 
ATOM     28  C   UNL     1       1.590  -0.652  22.113  0.00  0.00    +0.019 A 
ATOM     29  C   UNL     1       2.046   0.360  22.960  0.00  0.00    +0.052 A 
BRANCH  29  34
ATOM      6  N   UNL     1       4.260   1.592  22.430  0.00  0.00    -0.191 NA
ATOM     34  C   UNL     1       3.267   1.040  22.667  0.00  0.00    +0.099 C 
ENDBRANCH  29  34
ENDBRANCH  21  23
ENDBRANCH   5  21
ENDBRANCH  15  19
ENDBRANCH  10  15
TORSDOF 11
ENDMDL
MODEL 4
REMARK VINA RESULT:       0.3      1.889      4.998
REMARK  Name = 38029425
REMARK  14 active torsions:
REMARK  status: ('A' for Active; 'I' for Inactive)
REMARK    1  A    between atoms: O_3  and  C_22
REMARK    2  A    between atoms: O_3  and  C_26
REMARK    3  A    between atoms: N_4  and  C_14
REMARK    4  A    between atoms: N_5  and  C_21
REMARK    5  A    between atoms: C_7  and  C_11
REMARK    6  A    between atoms: C_8  and  C_14
REMARK    7  A    between atoms: C_10  and  C_15
REMARK    8  A    between atoms: C_11  and  C_16
REMARK    9  A    between atoms: C_11  and  C_17
REMARK   10  A    between atoms: C_12  and  C_18
REMARK   11  A    between atoms: C_15  and  C_19
REMARK   12  A    between atoms: C_20  and  C_22
REMARK   13  A    between atoms: C_21  and  C_23
REMARK   14  A    between atoms: C_29  and  C_34
REMARK                            x       y       z     vdW  Elec       q    Type
REMARK                         _______ _______ _______ _____ _____    ______ ____
ROOT
ATOM      7  C   UNL     1      -3.458   2.386  24.973  0.00  0.00    +0.000 C 
ATOM      8  C   UNL     1      -2.932   2.731  23.557  0.00  0.00    +0.032 C 
ATOM      9  C   UNL     1      -3.485   3.642  25.857  0.00  0.00    +0.012 C 
ATOM     10  C   UNL     1      -2.094   4.287  25.997  0.00  0.00    +0.023 C 
ATOM     12  C   UNL     1      -1.395   4.416  24.659  0.00  0.00    -0.073 C 
ATOM     13  C   UNL     1      -1.792   3.723  23.577  0.00  0.00    -0.022 C 
ATOM     18  C   UNL     1      -0.257   5.396  24.582  0.00  0.00    +0.039 C 
ENDROOT
BRANCH   7  11
ATOM     11  C   UNL     1      -4.853   1.756  24.923  0.00  0.00    -0.013 C 
ATOM     16  C   UNL     1      -5.658   2.335  23.763  0.00  0.00    +0.007 C 
ATOM     17  C   UNL     1      -5.581   1.968  26.246  0.00  0.00    +0.007 C 
ENDBRANCH   7  11
BRANCH   8  14
ATOM     14  C   UNL     1      -2.497   1.469  22.805  0.00  0.00    +0.112 C 
BRANCH  14   4
ATOM      2  O   UNL     1      -0.447   0.133  21.262  0.00  0.00    -0.272 OA
ATOM      4  N   UNL     1      -1.224   1.014  23.271  0.00  0.00    -0.312 N 
ATOM     20  C   UNL     1      -0.291   0.376  22.456  0.00  0.00    +0.251 C 
ATOM     36  H   UNL     1      -0.966   1.216  24.233  0.00  0.00    +0.149 HD
BRANCH  20  22
ATOM     22  C   UNL     1       0.969   0.004  23.209  0.00  0.00    +0.324 C 
BRANCH  22   3
ATOM      3  O   UNL     1       2.076  -0.043  22.334  0.00  0.00    -0.483 OA
BRANCH   3  26
ATOM     26  C   UNL     1       3.322  -0.156  22.907  0.00  0.00    +0.121 A 
ATOM     30  C   UNL     1       4.193   0.933  22.901  0.00  0.00    +0.045 A 
ATOM     31  C   UNL     1       3.714  -1.360  23.491  0.00  0.00    +0.045 A 
ATOM     32  C   UNL     1       5.458   0.819  23.479  0.00  0.00    +0.004 A 
ATOM     33  C   UNL     1       4.978  -1.474  24.071  0.00  0.00    +0.004 A 
ATOM     35  C   UNL     1       5.850  -0.385  24.065  0.00  0.00    +0.000 A 
ENDBRANCH   3  26
ENDBRANCH  22   3
ENDBRANCH  20  22
ENDBRANCH  14   4
ENDBRANCH   8  14
BRANCH  10  15
ATOM     15  C   UNL     1      -1.227   3.515  26.996  0.00  0.00    +0.103 C 
BRANCH  15  19
ATOM      1  O   UNL     1       0.350   2.455  25.499  0.00  0.00    -0.276 OA
ATOM      5  N   UNL     1      -1.002   1.139  26.854  0.00  0.00    -0.311 N 
ATOM     19  C   UNL     1      -0.525   2.340  26.352  0.00  0.00    +0.214 C 
ATOM     37  H   UNL     1      -1.676   1.152  27.614  0.00  0.00    +0.149 HD
BRANCH   5  21
ATOM     21  C   UNL     1      -0.513  -0.149  26.419  0.00  0.00    +0.139 C 
BRANCH  21  23
ATOM     23  C   UNL     1      -1.565  -0.933  25.690  0.00  0.00    -0.030 A 
ATOM     24  C   UNL     1      -1.195  -1.981  24.847  0.00  0.00    +0.006 A 
ATOM     25  C   UNL     1      -2.913  -0.616  25.857  0.00  0.00    +0.006 A 
ATOM     27  C   UNL     1      -2.173  -2.711  24.170  0.00  0.00    +0.019 A 
ATOM     28  C   UNL     1      -3.891  -1.345  25.181  0.00  0.00    +0.019 A 
ATOM     29  C   UNL     1      -3.521  -2.393  24.337  0.00  0.00    +0.052 A 
BRANCH  29  34
ATOM      6  N   UNL     1      -5.335  -3.747  23.080  0.00  0.00    -0.191 NA
ATOM     34  C   UNL     1      -4.522  -3.140  23.644  0.00  0.00    +0.099 C 
ENDBRANCH  29  34
ENDBRANCH  21  23
ENDBRANCH   5  21
ENDBRANCH  15  19
ENDBRANCH  10  15
TORSDOF 11
ENDMDL
MODEL 5
REMARK VINA RESULT:       0.3      1.962      7.208
REMARK  Name = 38029425
REMARK  14 active torsions:
REMARK  status: ('A' for Active; 'I' for Inactive)
REMARK    1  A    between atoms: O_3  and  C_22
REMARK    2  A    between atoms: O_3  and  C_26
REMARK    3  A    between atoms: N_4  and  C_14
REMARK    4  A    between atoms: N_5  and  C_21
REMARK    5  A    between atoms: C_7  and  C_11
REMARK    6  A    between atoms: C_8  and  C_14
REMARK    7  A    between atoms: C_10  and  C_15
REMARK    8  A    between atoms: C_11  and  C_16
REMARK    9  A    between atoms: C_11  and  C_17
REMARK   10  A    between atoms: C_12  and  C_18
REMARK   11  A    between atoms: C_15  and  C_19
REMARK   12  A    between atoms: C_20  and  C_22
REMARK   13  A    between atoms: C_21  and  C_23
REMARK   14  A    between atoms: C_29  and  C_34
REMARK                            x       y       z     vdW  Elec       q    Type
REMARK                         _______ _______ _______ _____ _____    ______ ____
ROOT
ATOM      7  C   UNL     1      -2.277   3.778  25.077  0.00  0.00    +0.000 C 
ATOM      8  C   UNL     1      -3.386   3.964  24.011  0.00  0.00    +0.032 C 
ATOM      9  C   UNL     1      -0.970   3.316  24.416  0.00  0.00    +0.012 C 
ATOM     10  C   UNL     1      -1.139   1.990  23.651  0.00  0.00    +0.023 C 
ATOM     12  C   UNL     1      -2.374   1.999  22.774  0.00  0.00    -0.073 C 
ATOM     13  C   UNL     1      -3.362   2.897  22.941  0.00  0.00    -0.022 C 
ATOM     18  C   UNL     1      -2.427   0.981  21.670  0.00  0.00    +0.039 C 
ENDROOT
BRANCH   7  11
ATOM     11  C   UNL     1      -2.031   5.064  25.871  0.00  0.00    -0.013 C 
ATOM     16  C   UNL     1      -3.229   5.377  26.763  0.00  0.00    +0.007 C 
ATOM     17  C   UNL     1      -1.742   6.226  24.927  0.00  0.00    +0.007 C 
ENDBRANCH   7  11
BRANCH   8  14
ATOM     14  C   UNL     1      -4.775   4.005  24.659  0.00  0.00    +0.112 C 
BRANCH  14   4
ATOM      2  O   UNL     1      -6.834   1.997  24.347  0.00  0.00    -0.272 OA
ATOM      4  N   UNL     1      -4.988   2.853  25.477  0.00  0.00    -0.312 N 
ATOM     20  C   UNL     1      -6.009   1.931  25.255  0.00  0.00    +0.251 C 
ATOM     36  H   UNL     1      -4.326   2.668  26.226  0.00  0.00    +0.149 HD
BRANCH  20  22
ATOM     22  C   UNL     1      -6.000   0.809  26.272  0.00  0.00    +0.324 C 
BRANCH  22   3
ATOM      3  O   UNL     1      -4.684   0.344  26.488  0.00  0.00    -0.483 OA
BRANCH   3  26
ATOM     26  C   UNL     1      -4.239  -0.675  25.678  0.00  0.00    +0.121 A 
ATOM     30  C   UNL     1      -3.453  -1.696  26.212  0.00  0.00    +0.045 A 
ATOM     31  C   UNL     1      -4.572  -0.685  24.324  0.00  0.00    +0.045 A 
ATOM     32  C   UNL     1      -2.999  -2.729  25.390  0.00  0.00    +0.004 A 
ATOM     33  C   UNL     1      -4.120  -1.718  23.503  0.00  0.00    +0.004 A 
ATOM     35  C   UNL     1      -3.333  -2.740  24.036  0.00  0.00    +0.000 A 
ENDBRANCH   3  26
ENDBRANCH  22   3
ENDBRANCH  20  22
ENDBRANCH  14   4
ENDBRANCH   8  14
BRANCH  10  15
ATOM     15  C   UNL     1      -1.158   0.798  24.614  0.00  0.00    +0.103 C 
BRANCH  15  19
ATOM      1  O   UNL     1      -0.122  -1.383  24.753  0.00  0.00    -0.276 OA
ATOM      5  N   UNL     1       0.410   0.025  22.983  0.00  0.00    -0.311 N 
ATOM     19  C   UNL     1      -0.248  -0.319  24.155  0.00  0.00    +0.214 C 
ATOM     37  H   UNL     1       0.180   0.902  22.524  0.00  0.00    +0.149 HD
BRANCH   5  21
ATOM     21  C   UNL     1       1.344  -0.852  22.316  0.00  0.00    +0.139 C 
BRANCH  21  23
ATOM     23  C   UNL     1       2.765  -0.556  22.699  0.00  0.00    -0.030 A 
ATOM     24  C   UNL     1       3.499  -1.487  23.434  0.00  0.00    +0.006 A 
ATOM     25  C   UNL     1       3.353   0.651  22.319  0.00  0.00    +0.006 A 
ATOM     27  C   UNL     1       4.819  -1.212  23.789  0.00  0.00    +0.019 A 
ATOM     28  C   UNL     1       4.673   0.926  22.674  0.00  0.00    +0.019 A 
ATOM     29  C   UNL     1       5.407  -0.006  23.409  0.00  0.00    +0.052 A 
BRANCH  29  34
ATOM      6  N   UNL     1       7.858   0.506  24.068  0.00  0.00    -0.191 NA
ATOM     34  C   UNL     1       6.759   0.276  23.773  0.00  0.00    +0.099 C 
ENDBRANCH  29  34
ENDBRANCH  21  23
ENDBRANCH   5  21
ENDBRANCH  15  19
ENDBRANCH  10  15
TORSDOF 11
ENDMDL
MODEL 6
REMARK VINA RESULT:       0.5      1.852      6.570
REMARK  Name = 38029425
REMARK  14 active torsions:
REMARK  status: ('A' for Active; 'I' for Inactive)
REMARK    1  A    between atoms: O_3  and  C_22
REMARK    2  A    between atoms: O_3  and  C_26
REMARK    3  A    between atoms: N_4  and  C_14
REMARK    4  A    between atoms: N_5  and  C_21
REMARK    5  A    between atoms: C_7  and  C_11
REMARK    6  A    between atoms: C_8  and  C_14
REMARK    7  A    between atoms: C_10  and  C_15
REMARK    8  A    between atoms: C_11  and  C_16
REMARK    9  A    between atoms: C_11  and  C_17
REMARK   10  A    between atoms: C_12  and  C_18
REMARK   11  A    between atoms: C_15  and  C_19
REMARK   12  A    between atoms: C_20  and  C_22
REMARK   13  A    between atoms: C_21  and  C_23
REMARK   14  A    between atoms: C_29  and  C_34
REMARK                            x       y       z     vdW  Elec       q    Type
REMARK                         _______ _______ _______ _____ _____    ______ ____
ROOT
ATOM      7  C   UNL     1      -3.182   0.695  24.042  0.00  0.00    +0.000 C 
ATOM      8  C   UNL     1      -4.622   0.218  24.354  0.00  0.00    +0.032 C 
ATOM      9  C   UNL     1      -2.495  -0.274  23.068  0.00  0.00    +0.012 C 
ATOM     10  C   UNL     1      -2.423  -1.708  23.625  0.00  0.00    +0.023 C 
ATOM     12  C   UNL     1      -3.752  -2.156  24.201  0.00  0.00    -0.073 C 
ATOM     13  C   UNL     1      -4.727  -1.281  24.508  0.00  0.00    -0.022 C 
ATOM     18  C   UNL     1      -3.951  -3.636  24.373  0.00  0.00    +0.039 C 
ENDROOT
BRANCH   7  11
ATOM     11  C   UNL     1      -3.166   2.112  23.461  0.00  0.00    -0.013 C 
ATOM     16  C   UNL     1      -4.545   2.483  22.923  0.00  0.00    +0.007 C 
ATOM     17  C   UNL     1      -2.110   2.228  22.367  0.00  0.00    +0.007 C 
ENDBRANCH   7  11
BRANCH   8  14
ATOM     14  C   UNL     1      -5.171   0.899  25.613  0.00  0.00    +0.112 C 
BRANCH  14   4
ATOM      2  O   UNL     1      -6.620   3.395  25.814  0.00  0.00    -0.272 OA
ATOM      4  N   UNL     1      -4.618   2.209  25.761  0.00  0.00    -0.312 N 
ATOM     20  C   UNL     1      -5.393   3.365  25.851  0.00  0.00    +0.251 C 
ATOM     36  H   UNL     1      -3.611   2.296  25.862  0.00  0.00    +0.149 HD
BRANCH  20  22
ATOM     22  C   UNL     1      -4.548   4.611  26.005  0.00  0.00    +0.324 C 
BRANCH  22   3
ATOM      3  O   UNL     1      -3.371   4.328  26.732  0.00  0.00    -0.483 OA
BRANCH   3  26
ATOM     26  C   UNL     1      -2.194   4.269  26.021  0.00  0.00    +0.121 A 
ATOM     30  C   UNL     1      -1.868   5.289  25.127  0.00  0.00    +0.045 A 
ATOM     31  C   UNL     1      -1.329   3.189  26.194  0.00  0.00    +0.045 A 
ATOM     32  C   UNL     1      -0.676   5.228  24.405  0.00  0.00    +0.004 A 
ATOM     33  C   UNL     1      -0.136   3.130  25.473  0.00  0.00    +0.004 A 
ATOM     35  C   UNL     1       0.190   4.149  24.578  0.00  0.00    +0.000 A 
ENDBRANCH   3  26
ENDBRANCH  22   3
ENDBRANCH  20  22
ENDBRANCH  14   4
ENDBRANCH   8  14
BRANCH  10  15
ATOM     15  C   UNL     1      -1.304  -1.841  24.663  0.00  0.00    +0.103 C 
BRANCH  15  19
ATOM      1  O   UNL     1      -0.476   0.105  25.838  0.00  0.00    -0.276 OA
ATOM      5  N   UNL     1       0.167  -0.261  23.635  0.00  0.00    -0.311 N 
ATOM     19  C   UNL     1      -0.508  -0.563  24.809  0.00  0.00    +0.214 C 
ATOM     37  H   UNL     1       0.135  -0.918  22.861  0.00  0.00    +0.149 HD
BRANCH   5  21
ATOM     21  C   UNL     1       1.006   0.906  23.486  0.00  0.00    +0.139 C 
BRANCH  21  23
ATOM     23  C   UNL     1       2.455   0.541  23.346  0.00  0.00    -0.030 A 
ATOM     24  C   UNL     1       2.882  -0.754  23.643  0.00  0.00    +0.006 A 
ATOM     25  C   UNL     1       3.377   1.498  22.918  0.00  0.00    +0.006 A 
ATOM     27  C   UNL     1       4.228  -1.092  23.513  0.00  0.00    +0.019 A 
ATOM     28  C   UNL     1       4.724   1.159  22.788  0.00  0.00    +0.019 A 
ATOM     29  C   UNL     1       5.150  -0.136  23.085  0.00  0.00    +0.052 A 
BRANCH  29  34
ATOM      6  N   UNL     1       7.650  -0.764  22.844  0.00  0.00    -0.191 NA
ATOM     34  C   UNL     1       6.529  -0.483  22.952  0.00  0.00    +0.099 C 
ENDBRANCH  29  34
ENDBRANCH  21  23
ENDBRANCH   5  21
ENDBRANCH  15  19
ENDBRANCH  10  15
TORSDOF 11
ENDMDL
MODEL 7
REMARK VINA RESULT:       0.5      1.738      5.070
REMARK  Name = 38029425
REMARK  14 active torsions:
REMARK  status: ('A' for Active; 'I' for Inactive)
REMARK    1  A    between atoms: O_3  and  C_22
REMARK    2  A    between atoms: O_3  and  C_26
REMARK    3  A    between atoms: N_4  and  C_14
REMARK    4  A    between atoms: N_5  and  C_21
REMARK    5  A    between atoms: C_7  and  C_11
REMARK    6  A    between atoms: C_8  and  C_14
REMARK    7  A    between atoms: C_10  and  C_15
REMARK    8  A    between atoms: C_11  and  C_16
REMARK    9  A    between atoms: C_11  and  C_17
REMARK   10  A    between atoms: C_12  and  C_18
REMARK   11  A    between atoms: C_15  and  C_19
REMARK   12  A    between atoms: C_20  and  C_22
REMARK   13  A    between atoms: C_21  and  C_23
REMARK   14  A    between atoms: C_29  and  C_34
REMARK                            x       y       z     vdW  Elec       q    Type
REMARK                         _______ _______ _______ _____ _____    ______ ____
ROOT
ATOM      7  C   UNL     1      -1.616   3.996  24.631  0.00  0.00    +0.000 C 
ATOM      8  C   UNL     1      -1.713   3.486  26.091  0.00  0.00    +0.032 C 
ATOM      9  C   UNL     1      -2.874   4.793  24.256  0.00  0.00    +0.012 C 
ATOM     10  C   UNL     1      -4.159   3.955  24.396  0.00  0.00    +0.023 C 
ATOM     12  C   UNL     1      -4.201   3.203  25.711  0.00  0.00    -0.073 C 
ATOM     13  C   UNL     1      -3.100   3.016  26.461  0.00  0.00    -0.022 C 
ATOM     18  C   UNL     1      -5.546   2.712  26.167  0.00  0.00    +0.039 C 
ENDROOT
BRANCH   7  11
ATOM     11  C   UNL     1      -0.370   4.860  24.412  0.00  0.00    -0.013 C 
ATOM     16  C   UNL     1      -0.642   6.302  24.828  0.00  0.00    +0.007 C 
ATOM     17  C   UNL     1       0.076   4.792  22.955  0.00  0.00    +0.007 C 
ENDBRANCH   7  11
BRANCH   8  14
ATOM     14  C   UNL     1      -0.705   2.362  26.354  0.00  0.00    +0.112 C 
BRANCH  14   4
ATOM      2  O   UNL     1       1.499   2.006  24.514  0.00  0.00    -0.272 OA
ATOM      4  N   UNL     1      -0.645   1.466  25.242  0.00  0.00    -0.312 N 
ATOM     20  C   UNL     1       0.462   1.357  24.402  0.00  0.00    +0.251 C 
ATOM     36  H   UNL     1      -1.428   0.836  25.091  0.00  0.00    +0.149 HD
BRANCH  20  22
ATOM     22  C   UNL     1       0.254   0.330  23.309  0.00  0.00    +0.324 C 
BRANCH  22   3
ATOM      3  O   UNL     1       1.298   0.393  22.361  0.00  0.00    -0.483 OA
BRANCH   3  26
ATOM     26  C   UNL     1       2.566   0.098  22.804  0.00  0.00    +0.121 A 
ATOM     30  C   UNL     1       3.591   1.033  22.661  0.00  0.00    +0.045 A 
ATOM     31  C   UNL     1       2.827  -1.139  23.395  0.00  0.00    +0.045 A 
ATOM     32  C   UNL     1       4.878   0.732  23.108  0.00  0.00    +0.004 A 
ATOM     33  C   UNL     1       4.113  -1.438  23.843  0.00  0.00    +0.004 A 
ATOM     35  C   UNL     1       5.139  -0.504  23.700  0.00  0.00    +0.000 A 
ENDBRANCH   3  26
ENDBRANCH  22   3
ENDBRANCH  20  22
ENDBRANCH  14   4
ENDBRANCH   8  14
BRANCH  10  15
ATOM     15  C   UNL     1      -4.323   2.996  23.211  0.00  0.00    +0.103 C 
BRANCH  15  19
ATOM      1  O   UNL     1      -3.007   0.985  23.480  0.00  0.00    -0.276 OA
ATOM      5  N   UNL     1      -5.240   0.985  24.122  0.00  0.00    -0.311 N 
ATOM     19  C   UNL     1      -4.086   1.556  23.607  0.00  0.00    +0.214 C 
ATOM     37  H   UNL     1      -6.064   1.565  24.255  0.00  0.00    +0.149 HD
BRANCH   5  21
ATOM     21  C   UNL     1      -5.306  -0.383  24.581  0.00  0.00    +0.139 C 
BRANCH  21  23
ATOM     23  C   UNL     1      -3.942  -0.962  24.823  0.00  0.00    -0.030 A 
ATOM     24  C   UNL     1      -3.413  -1.897  23.933  0.00  0.00    +0.006 A 
ATOM     25  C   UNL     1      -3.203  -0.563  25.937  0.00  0.00    +0.006 A 
ATOM     27  C   UNL     1      -2.146  -2.434  24.158  0.00  0.00    +0.019 A 
ATOM     28  C   UNL     1      -1.935  -1.100  26.161  0.00  0.00    +0.019 A 
ATOM     29  C   UNL     1      -1.406  -2.036  25.271  0.00  0.00    +0.052 A 
BRANCH  29  34
ATOM      6  N   UNL     1       0.946  -3.033  25.689  0.00  0.00    -0.191 NA
ATOM     34  C   UNL     1      -0.108  -2.586  25.502  0.00  0.00    +0.099 C 
ENDBRANCH  29  34
ENDBRANCH  21  23
ENDBRANCH   5  21
ENDBRANCH  15  19
ENDBRANCH  10  15
TORSDOF 11
ENDMDL
MODEL 8
REMARK VINA RESULT:       0.6      1.420      4.539
REMARK  Name = 38029425
REMARK  14 active torsions:
REMARK  status: ('A' for Active; 'I' for Inactive)
REMARK    1  A    between atoms: O_3  and  C_22
REMARK    2  A    between atoms: O_3  and  C_26
REMARK    3  A    between atoms: N_4  and  C_14
REMARK    4  A    between atoms: N_5  and  C_21
REMARK    5  A    between atoms: C_7  and  C_11
REMARK    6  A    between atoms: C_8  and  C_14
REMARK    7  A    between atoms: C_10  and  C_15
REMARK    8  A    between atoms: C_11  and  C_16
REMARK    9  A    between atoms: C_11  and  C_17
REMARK   10  A    between atoms: C_12  and  C_18
REMARK   11  A    between atoms: C_15  and  C_19
REMARK   12  A    between atoms: C_20  and  C_22
REMARK   13  A    between atoms: C_21  and  C_23
REMARK   14  A    between atoms: C_29  and  C_34
REMARK                            x       y       z     vdW  Elec       q    Type
REMARK                         _______ _______ _______ _____ _____    ______ ____
ROOT
ATOM      7  C   UNL     1      -2.285   2.613  23.926  0.00  0.00    +0.000 C 
ATOM      8  C   UNL     1      -0.840   3.169  23.860  0.00  0.00    +0.032 C 
ATOM      9  C   UNL     1      -3.304   3.738  23.692  0.00  0.00    +0.012 C 
ATOM     10  C   UNL     1      -3.170   4.871  24.726  0.00  0.00    +0.023 C 
ATOM     12  C   UNL     1      -1.727   5.294  24.914  0.00  0.00    -0.073 C 
ATOM     13  C   UNL     1      -0.700   4.526  24.508  0.00  0.00    -0.022 C 
ATOM     18  C   UNL     1      -1.492   6.642  25.538  0.00  0.00    +0.039 C 
ENDROOT
BRANCH   7  11
ATOM     11  C   UNL     1      -2.509   1.490  22.910  0.00  0.00    -0.013 C 
ATOM     16  C   UNL     1      -1.988   1.903  21.536  0.00  0.00    +0.007 C 
ATOM     17  C   UNL     1      -3.988   1.122  22.839  0.00  0.00    +0.007 C 
ENDBRANCH   7  11
BRANCH   8  14
ATOM     14  C   UNL     1       0.158   2.194  24.494  0.00  0.00    +0.112 C 
BRANCH  14   4
ATOM      2  O   UNL     1      -0.177  -0.646  24.063  0.00  0.00    -0.272 OA
ATOM      4  N   UNL     1       0.789   1.393  23.492  0.00  0.00    -0.312 N 
ATOM     20  C   UNL     1       0.570   0.023  23.354  0.00  0.00    +0.251 C 
ATOM     36  H   UNL     1       1.385   1.856  22.812  0.00  0.00    +0.149 HD
BRANCH  20  22
ATOM     22  C   UNL     1       1.365  -0.572  22.211  0.00  0.00    +0.324 C 
BRANCH  22   3
ATOM      3  O   UNL     1       2.525   0.193  21.960  0.00  0.00    -0.483 OA
BRANCH   3  26
ATOM     26  C   UNL     1       3.625  -0.060  22.746  0.00  0.00    +0.121 A 
ATOM     30  C   UNL     1       3.803  -1.322  23.310  0.00  0.00    +0.045 A 
ATOM     31  C   UNL     1       4.561   0.948  22.979  0.00  0.00    +0.045 A 
ATOM     32  C   UNL     1       4.918  -1.579  24.109  0.00  0.00    +0.004 A 
ATOM     33  C   UNL     1       5.676   0.691  23.777  0.00  0.00    +0.004 A 
ATOM     35  C   UNL     1       5.855  -0.571  24.342  0.00  0.00    +0.000 A 
ENDBRANCH   3  26
ENDBRANCH  22   3
ENDBRANCH  20  22
ENDBRANCH  14   4
ENDBRANCH   8  14
BRANCH  10  15
ATOM     15  C   UNL     1      -3.804   4.476  26.064  0.00  0.00    +0.103 C 
BRANCH  15  19
ATOM      1  O   UNL     1      -6.062   3.746  25.595  0.00  0.00    -0.276 OA
ATOM      5  N   UNL     1      -4.435   2.170  26.112  0.00  0.00    -0.311 N 
ATOM     19  C   UNL     1      -4.907   3.456  25.891  0.00  0.00    +0.214 C 
ATOM     37  H   UNL     1      -3.443   2.028  26.279  0.00  0.00    +0.149 HD
BRANCH   5  21
ATOM     21  C   UNL     1      -5.270   0.996  26.016  0.00  0.00    +0.139 C 
BRANCH  21  23
ATOM     23  C   UNL     1      -4.535  -0.170  25.421  0.00  0.00    -0.030 A 
ATOM     24  C   UNL     1      -3.312  -0.572  25.957  0.00  0.00    +0.006 A 
ATOM     25  C   UNL     1      -5.077  -0.853  24.331  0.00  0.00    +0.006 A 
ATOM     27  C   UNL     1      -2.629  -1.655  25.404  0.00  0.00    +0.019 A 
ATOM     28  C   UNL     1      -4.394  -1.936  23.777  0.00  0.00    +0.019 A 
ATOM     29  C   UNL     1      -3.170  -2.338  24.314  0.00  0.00    +0.052 A 
BRANCH  29  34
ATOM      6  N   UNL     1      -1.904  -4.349  23.286  0.00  0.00    -0.191 NA
ATOM     34  C   UNL     1      -2.471  -3.447  23.747  0.00  0.00    +0.099 C 
ENDBRANCH  29  34
ENDBRANCH  21  23
ENDBRANCH   5  21
ENDBRANCH  15  19
ENDBRANCH  10  15
TORSDOF 11
ENDMDL
MODEL 9
REMARK VINA RESULT:       1.1      2.189      6.174
REMARK  Name = 38029425
REMARK  14 active torsions:
REMARK  status: ('A' for Active; 'I' for Inactive)
REMARK    1  A    between atoms: O_3  and  C_22
REMARK    2  A    between atoms: O_3  and  C_26
REMARK    3  A    between atoms: N_4  and  C_14
REMARK    4  A    between atoms: N_5  and  C_21
REMARK    5  A    between atoms: C_7  and  C_11
REMARK    6  A    between atoms: C_8  and  C_14
REMARK    7  A    between atoms: C_10  and  C_15
REMARK    8  A    between atoms: C_11  and  C_16
REMARK    9  A    between atoms: C_11  and  C_17
REMARK   10  A    between atoms: C_12  and  C_18
REMARK   11  A    between atoms: C_15  and  C_19
REMARK   12  A    between atoms: C_20  and  C_22
REMARK   13  A    between atoms: C_21  and  C_23
REMARK   14  A    between atoms: C_29  and  C_34
REMARK                            x       y       z     vdW  Elec       q    Type
REMARK                         _______ _______ _______ _____ _____    ______ ____
ROOT
ATOM      7  C   UNL     1      -3.700   3.369  25.610  0.00  0.00    +0.000 C 
ATOM      8  C   UNL     1      -3.695   3.952  24.175  0.00  0.00    +0.032 C 
ATOM      9  C   UNL     1      -2.674   4.100  26.490  0.00  0.00    +0.012 C 
ATOM     10  C   UNL     1      -1.244   3.996  25.926  0.00  0.00    +0.023 C 
ATOM     12  C   UNL     1      -1.200   4.298  24.441  0.00  0.00    -0.073 C 
ATOM     13  C   UNL     1      -2.308   4.287  23.678  0.00  0.00    -0.022 C 
ATOM     18  C   UNL     1       0.140   4.659  23.864  0.00  0.00    +0.039 C 
ENDROOT
BRANCH   7  11
ATOM     11  C   UNL     1      -5.088   3.454  26.253  0.00  0.00    -0.013 C 
ATOM     16  C   UNL     1      -5.793   2.103  26.177  0.00  0.00    +0.007 C 
ATOM     17  C   UNL     1      -5.922   4.539  25.579  0.00  0.00    +0.007 C 
ENDBRANCH   7  11
BRANCH   8  14
ATOM     14  C   UNL     1      -4.374   2.997  23.187  0.00  0.00    +0.112 C 
BRANCH  14   4
ATOM      2  O   UNL     1      -3.415   0.325  22.629  0.00  0.00    -0.272 OA
ATOM      4  N   UNL     1      -4.764   1.786  23.839  0.00  0.00    -0.312 N 
ATOM     20  C   UNL     1      -4.249   0.534  23.506  0.00  0.00    +0.251 C 
ATOM     36  H   UNL     1      -5.408   1.849  24.623  0.00  0.00    +0.149 HD
BRANCH  20  22
ATOM     22  C   UNL     1      -4.836  -0.572  24.358  0.00  0.00    +0.324 C 
BRANCH  22   3
ATOM      3  O   UNL     1      -4.093  -1.763  24.207  0.00  0.00    -0.483 OA
BRANCH   3  26
ATOM     26  C   UNL     1      -2.838  -1.794  24.770  0.00  0.00    +0.121 A 
ATOM     30  C   UNL     1      -2.611  -1.183  26.003  0.00  0.00    +0.045 A 
ATOM     31  C   UNL     1      -1.792  -2.435  24.105  0.00  0.00    +0.045 A 
ATOM     32  C   UNL     1      -1.337  -1.213  26.573  0.00  0.00    +0.004 A 
ATOM     33  C   UNL     1      -0.519  -2.465  24.676  0.00  0.00    +0.004 A 
ATOM     35  C   UNL     1      -0.292  -1.854  25.909  0.00  0.00    +0.000 A 
ENDBRANCH   3  26
ENDBRANCH  22   3
ENDBRANCH  20  22
ENDBRANCH  14   4
ENDBRANCH   8  14
BRANCH  10  15
ATOM     15  C   UNL     1      -0.632   2.624  26.224  0.00  0.00    +0.103 C 
BRANCH  15  19
ATOM      1  O   UNL     1      -1.650   1.286  24.485  0.00  0.00    -0.276 OA
ATOM      5  N   UNL     1       0.664   1.471  24.579  0.00  0.00    -0.311 N 
ATOM     19  C   UNL     1      -0.630   1.724  25.008  0.00  0.00    +0.214 C 
ATOM     37  H   UNL     1       1.440   1.942  25.037  0.00  0.00    +0.149 HD
BRANCH   5  21
ATOM     21  C   UNL     1       0.968   0.640  23.437  0.00  0.00    +0.139 C 
BRANCH  21  23
ATOM     23  C   UNL     1       2.440   0.369  23.316  0.00  0.00    -0.030 A 
ATOM     24  C   UNL     1       2.946  -0.892  23.635  0.00  0.00    +0.006 A 
ATOM     25  C   UNL     1       3.302   1.377  22.881  0.00  0.00    +0.006 A 
ATOM     27  C   UNL     1       4.313  -1.144  23.521  0.00  0.00    +0.019 A 
ATOM     28  C   UNL     1       4.669   1.124  22.767  0.00  0.00    +0.019 A 
ATOM     29  C   UNL     1       5.175  -0.137  23.087  0.00  0.00    +0.052 A 
BRANCH  29  34
ATOM      6  N   UNL     1       7.712  -0.605  22.877  0.00  0.00    -0.191 NA
ATOM     34  C   UNL     1       6.575  -0.395  22.971  0.00  0.00    +0.099 C 
ENDBRANCH  29  34
ENDBRANCH  21  23
ENDBRANCH   5  21
ENDBRANCH  15  19
ENDBRANCH  10  15
TORSDOF 11
ENDMDL
MODEL 10
REMARK VINA RESULT:       2.2      1.535      4.903
REMARK  Name = 38029425
REMARK  14 active torsions:
REMARK  status: ('A' for Active; 'I' for Inactive)
REMARK    1  A    between atoms: O_3  and  C_22
REMARK    2  A    between atoms: O_3  and  C_26
REMARK    3  A    between atoms: N_4  and  C_14
REMARK    4  A    between atoms: N_5  and  C_21
REMARK    5  A    between atoms: C_7  and  C_11
REMARK    6  A    between atoms: C_8  and  C_14
REMARK    7  A    between atoms: C_10  and  C_15
REMARK    8  A    between atoms: C_11  and  C_16
REMARK    9  A    between atoms: C_11  and  C_17
REMARK   10  A    between atoms: C_12  and  C_18
REMARK   11  A    between atoms: C_15  and  C_19
REMARK   12  A    between atoms: C_20  and  C_22
REMARK   13  A    between atoms: C_21  and  C_23
REMARK   14  A    between atoms: C_29  and  C_34
REMARK                            x       y       z     vdW  Elec       q    Type
REMARK                         _______ _______ _______ _____ _____    ______ ____
ROOT
ATOM      7  C   UNL     1      -1.220   3.418  24.379  0.00  0.00    +0.000 C 
ATOM      8  C   UNL     1      -1.061   2.525  25.636  0.00  0.00    +0.032 C 
ATOM      9  C   UNL     1      -1.461   4.880  24.786  0.00  0.00    +0.012 C 
ATOM     10  C   UNL     1      -2.718   5.041  25.661  0.00  0.00    +0.023 C 
ATOM     12  C   UNL     1      -2.767   4.012  26.773  0.00  0.00    -0.073 C 
ATOM     13  C   UNL     1      -2.009   2.901  26.750  0.00  0.00    -0.022 C 
ATOM     18  C   UNL     1      -3.673   4.313  27.934  0.00  0.00    +0.039 C 
ENDROOT
BRANCH   7  11
ATOM     11  C   UNL     1       0.004   3.330  23.462  0.00  0.00    -0.013 C 
ATOM     16  C   UNL     1       1.206   2.787  24.228  0.00  0.00    +0.007 C 
ATOM     17  C   UNL     1       0.317   4.696  22.860  0.00  0.00    +0.007 C 
ENDBRANCH   7  11
BRANCH   8  14
ATOM     14  C   UNL     1      -1.242   1.044  25.289  0.00  0.00    +0.112 C 
BRANCH  14   4
ATOM      2  O   UNL     1       0.111  -1.450  24.727  0.00  0.00    -0.272 OA
ATOM      4  N   UNL     1      -0.510   0.706  24.109  0.00  0.00    -0.312 N 
ATOM     20  C   UNL     1       0.115  -0.525  23.919  0.00  0.00    +0.251 C 
ATOM     36  H   UNL     1      -0.491   1.379  23.348  0.00  0.00    +0.149 HD
BRANCH  20  22
ATOM     22  C   UNL     1       0.817  -0.611  22.580  0.00  0.00    +0.324 C 
BRANCH  22   3
ATOM      3  O   UNL     1       1.826   0.371  22.483  0.00  0.00    -0.483 OA
BRANCH   3  26
ATOM     26  C   UNL     1       3.074   0.035  22.954  0.00  0.00    +0.121 A 
ATOM     30  C   UNL     1       4.099   0.981  22.948  0.00  0.00    +0.045 A 
ATOM     31  C   UNL     1       3.314  -1.251  23.436  0.00  0.00    +0.045 A 
ATOM     32  C   UNL     1       5.366   0.640  23.425  0.00  0.00    +0.004 A 
ATOM     33  C   UNL     1       4.580  -1.591  23.913  0.00  0.00    +0.004 A 
ATOM     35  C   UNL     1       5.606  -0.646  23.907  0.00  0.00    +0.000 A 
ENDBRANCH   3  26
ENDBRANCH  22   3
ENDBRANCH  20  22
ENDBRANCH  14   4
ENDBRANCH   8  14
BRANCH  10  15
ATOM     15  C   UNL     1      -3.992   4.991  24.811  0.00  0.00    +0.103 C 
BRANCH  15  19
ATOM      1  O   UNL     1      -6.018   4.246  25.904  0.00  0.00    -0.276 OA
ATOM      5  N   UNL     1      -4.540   2.675  25.039  0.00  0.00    -0.311 N 
ATOM     19  C   UNL     1      -4.976   3.962  25.320  0.00  0.00    +0.214 C 
ATOM     37  H   UNL     1      -3.698   2.547  24.485  0.00  0.00    +0.149 HD
BRANCH   5  21
ATOM     21  C   UNL     1      -5.281   1.492  25.411  0.00  0.00    +0.139 C 
BRANCH  21  23
ATOM     23  C   UNL     1      -4.571   0.233  25.006  0.00  0.00    -0.030 A 
ATOM     24  C   UNL     1      -4.064  -0.627  25.980  0.00  0.00    +0.006 A 
ATOM     25  C   UNL     1      -4.419  -0.078  23.654  0.00  0.00    +0.006 A 
ATOM     27  C   UNL     1      -3.405  -1.797  25.603  0.00  0.00    +0.019 A 
ATOM     28  C   UNL     1      -3.760  -1.248  23.277  0.00  0.00    +0.019 A 
ATOM     29  C   UNL     1      -3.252  -2.108  24.252  0.00  0.00    +0.052 A 
BRANCH  29  34
ATOM      6  N   UNL     1      -2.028  -4.279  23.553  0.00  0.00    -0.191 NA
ATOM     34  C   UNL     1      -2.577  -3.306  23.866  0.00  0.00    +0.099 C 
ENDBRANCH  29  34
ENDBRANCH  21  23
ENDBRANCH   5  21
ENDBRANCH  15  19
ENDBRANCH  10  15
TORSDOF 11
ENDMDL
