MODEL 1
REMARK VINA RESULT:       1.9      0.000      0.000
REMARK  Name = 25338516
REMARK  7 active torsions:
REMARK  status: ('A' for Active; 'I' for Inactive)
REMARK    1  A    between atoms: O_3  and  C_16
REMARK    2  A    between atoms: O_3  and  C_23
REMARK    3  A    between atoms: N_4  and  C_13
REMARK    4  A    between atoms: N_5  and  C_8
REMARK    5  A    between atoms: C_9  and  C_12
REMARK    6  A    between atoms: C_14  and  C_16
REMARK    7  A    between atoms: C_15  and  C_17
REMARK                            x       y       z     vdW  Elec       q    Type
REMARK                         _______ _______ _______ _____ _____    ______ ____
ROOT
ATOM      4  N   UNL     1      -3.208  -0.566  25.800  0.00  0.00    -0.293 NA
ATOM      8  C   UNL     1      -5.193   0.369  25.013  0.00  0.00    +0.089 C 
ATOM      9  C   UNL     1      -3.059  -0.607  24.333  0.00  0.00    +0.147 C 
ATOM     10  C   UNL     1      -4.294   0.144  23.797  0.00  0.00    +0.052 C 
ATOM     11  C   UNL     1      -4.651  -0.594  26.058  0.00  0.00    +0.107 C 
ATOM     13  C   UNL     1      -2.512  -1.653  26.478  0.00  0.00    +0.105 C 
ENDROOT
BRANCH   9  12
ATOM      1  O   UNL     1      -1.855   1.096  23.060  0.00  0.00    -0.336 OA
ATOM      6  N   UNL     1      -0.529  -0.409  24.057  0.00  0.00    -0.190 NA
ATOM      7  N   UNL     1      -0.541   1.459  22.734  0.00  0.00    -0.056 NA
ATOM     12  C   UNL     1      -1.757  -0.011  23.841  0.00  0.00    +0.245 A 
ATOM     15  C   UNL     1       0.182   0.524  23.357  0.00  0.00    +0.202 A 
BRANCH  15  17
ATOM     17  C   UNL     1       1.615   0.493  23.304  0.00  0.00    +0.023 A 
ATOM     18  C   UNL     1       2.299  -0.681  23.619  0.00  0.00    +0.020 A 
ATOM     19  C   UNL     1       2.321   1.635  22.937  0.00  0.00    +0.012 A 
ATOM     20  C   UNL     1       3.703  -0.727  23.570  0.00  0.00    -0.017 A 
ATOM     21  C   UNL     1       4.421   0.435  23.197  0.00  0.00    -0.018 A 
ATOM     22  C   UNL     1       3.715   1.607  22.884  0.00  0.00    +0.009 A 
ATOM     24  C   UNL     1       4.408  -1.899  23.884  0.00  0.00    +0.008 A 
ATOM     25  C   UNL     1       5.824   0.388  23.149  0.00  0.00    +0.008 A 
ATOM     26  C   UNL     1       5.803  -1.928  23.831  0.00  0.00    +0.001 A 
ATOM     27  C   UNL     1       6.508  -0.785  23.464  0.00  0.00    +0.001 A 
ENDBRANCH  15  17
ENDBRANCH   9  12
BRANCH   8   5
ATOM      2  O   UNL     1      -4.463   2.701  23.467  0.00  0.00    -0.272 OA
ATOM      5  N   UNL     1      -5.131   1.735  25.474  0.00  0.00    -0.308 N 
ATOM     14  C   UNL     1      -4.768   2.792  24.653  0.00  0.00    +0.251 C 
ATOM     33  H   UNL     1      -5.310   1.915  26.458  0.00  0.00    +0.149 HD
BRANCH  14  16
ATOM     16  C   UNL     1      -4.789   4.111  25.395  0.00  0.00    +0.324 C 
BRANCH  16   3
ATOM      3  O   UNL     1      -3.774   4.148  26.375  0.00  0.00    -0.483 OA
BRANCH   3  23
ATOM     23  C   UNL     1      -2.474   4.047  25.938  0.00  0.00    +0.121 A 
ATOM     28  C   UNL     1      -1.710   2.931  26.278  0.00  0.00    +0.045 A 
ATOM     29  C   UNL     1      -1.921   5.059  25.155  0.00  0.00    +0.045 A 
ATOM     30  C   UNL     1      -0.392   2.827  25.834  0.00  0.00    +0.004 A 
ATOM     31  C   UNL     1      -0.603   4.955  24.711  0.00  0.00    +0.004 A 
ATOM     32  C   UNL     1       0.162   3.840  25.051  0.00  0.00    +0.000 A 
ENDBRANCH   3  23
ENDBRANCH  16   3
ENDBRANCH  14  16
ENDBRANCH   8   5
TORSDOF 6
ENDMDL
MODEL 2
REMARK VINA RESULT:       4.8      1.782      4.240
REMARK  Name = 25338516
REMARK  7 active torsions:
REMARK  status: ('A' for Active; 'I' for Inactive)
REMARK    1  A    between atoms: O_3  and  C_16
REMARK    2  A    between atoms: O_3  and  C_23
REMARK    3  A    between atoms: N_4  and  C_13
REMARK    4  A    between atoms: N_5  and  C_8
REMARK    5  A    between atoms: C_9  and  C_12
REMARK    6  A    between atoms: C_14  and  C_16
REMARK    7  A    between atoms: C_15  and  C_17
REMARK                            x       y       z     vdW  Elec       q    Type
REMARK                         _______ _______ _______ _____ _____    ______ ____
ROOT
ATOM      4  N   UNL     1      -4.317   4.406  24.390  0.00  0.00    -0.293 NA
ATOM      8  C   UNL     1      -5.199   3.401  26.299  0.00  0.00    +0.089 C 
ATOM      9  C   UNL     1      -3.239   4.540  25.387  0.00  0.00    +0.147 C 
ATOM     10  C   UNL     1      -3.743   3.749  26.611  0.00  0.00    +0.052 C 
ATOM     11  C   UNL     1      -5.566   4.333  25.155  0.00  0.00    +0.107 C 
ATOM     13  C   UNL     1      -4.337   5.492  23.417  0.00  0.00    +0.105 C 
ENDROOT
BRANCH   9  12
ATOM      1  O   UNL     1      -0.951   5.003  24.666  0.00  0.00    -0.336 OA
ATOM      6  N   UNL     1      -1.495   2.830  24.644  0.00  0.00    -0.190 NA
ATOM      7  N   UNL     1       0.190   4.321  24.221  0.00  0.00    -0.056 NA
ATOM     12  C   UNL     1      -1.894   4.052  24.892  0.00  0.00    +0.245 A 
ATOM     15  C   UNL     1      -0.210   3.046  24.234  0.00  0.00    +0.202 A 
BRANCH  15  17
ATOM     17  C   UNL     1       0.648   1.964  23.846  0.00  0.00    +0.023 A 
ATOM     18  C   UNL     1       2.032   2.141  23.836  0.00  0.00    +0.020 A 
ATOM     19  C   UNL     1       0.100   0.738  23.480  0.00  0.00    +0.012 A 
ATOM     20  C   UNL     1       2.885   1.091  23.460  0.00  0.00    -0.017 A 
ATOM     21  C   UNL     1       2.328  -0.156  23.088  0.00  0.00    -0.018 A 
ATOM     22  C   UNL     1       0.933  -0.315  23.104  0.00  0.00    +0.009 A 
ATOM     24  C   UNL     1       4.280   1.252  23.444  0.00  0.00    +0.008 A 
ATOM     25  C   UNL     1       3.182  -1.205  22.712  0.00  0.00    +0.008 A 
ATOM     26  C   UNL     1       5.115   0.198  23.067  0.00  0.00    +0.001 A 
ATOM     27  C   UNL     1       4.565  -1.028  22.702  0.00  0.00    +0.001 A 
ENDBRANCH  15  17
ENDBRANCH   9  12
BRANCH   8   5
ATOM      2  O   UNL     1      -4.439   2.196  23.783  0.00  0.00    -0.272 OA
ATOM      5  N   UNL     1      -5.345   2.017  25.917  0.00  0.00    -0.308 N 
ATOM     14  C   UNL     1      -4.949   1.531  24.681  0.00  0.00    +0.251 C 
ATOM     33  H   UNL     1      -5.810   1.389  26.567  0.00  0.00    +0.149 HD
BRANCH  14  16
ATOM     16  C   UNL     1      -5.217   0.047  24.550  0.00  0.00    +0.324 C 
BRANCH  16   3
ATOM      3  O   UNL     1      -4.617  -0.663  25.612  0.00  0.00    -0.483 OA
BRANCH   3  23
ATOM     23  C   UNL     1      -3.405  -1.263  25.361  0.00  0.00    +0.121 A 
ATOM     28  C   UNL     1      -3.329  -2.336  24.472  0.00  0.00    +0.045 A 
ATOM     29  C   UNL     1      -2.252  -0.800  25.994  0.00  0.00    +0.045 A 
ATOM     30  C   UNL     1      -2.100  -2.944  24.217  0.00  0.00    +0.004 A 
ATOM     31  C   UNL     1      -1.024  -1.408  25.739  0.00  0.00    +0.004 A 
ATOM     32  C   UNL     1      -0.947  -2.481  24.851  0.00  0.00    +0.000 A 
ENDBRANCH   3  23
ENDBRANCH  16   3
ENDBRANCH  14  16
ENDBRANCH   8   5
TORSDOF 6
ENDMDL
