MODEL 1
REMARK VINA RESULT:       4.1      0.000      0.000
REMARK  Name = 7165013
REMARK  9 active torsions:
REMARK  status: ('A' for Active; 'I' for Inactive)
REMARK    1  A    between atoms: N_7  and  C_24
REMARK    2  A    between atoms: N_8  and  C_26
REMARK    3  A    between atoms: C_11  and  C_18
REMARK    4  A    between atoms: C_14  and  C_22
REMARK    5  A    between atoms: C_24  and  C_25
REMARK    6  A    between atoms: C_24  and  C_28
REMARK    7  A    between atoms: C_25  and  C_27
REMARK    8  A    between atoms: C_26  and  C_31
REMARK    9  A    between atoms: C_26  and  C_32
REMARK                            x       y       z     vdW  Elec       q    Type
REMARK                         _______ _______ _______ _____ _____    ______ ____
ROOT
ATOM      1  O   UNL     1       1.762  -0.278  21.233  0.00  0.00    -0.275 OA
ATOM      3  O   UNL     1      -3.472  -0.747  26.324  0.00  0.00    -0.253 OA
ATOM      5  N   UNL     1       0.448  -0.226  23.149  0.00  0.00    -0.287 N 
ATOM      6  N   UNL     1      -2.164  -0.316  24.453  0.00  0.00    -0.282 N 
ATOM      8  N   UNL     1      -4.418   0.374  24.550  0.00  0.00    -0.297 N 
ATOM     14  C   UNL     1       0.320  -0.292  24.612  0.00  0.00    +0.179 C 
ATOM     18  C   UNL     1       1.666  -0.213  22.461  0.00  0.00    +0.219 C 
ATOM     19  C   UNL     1      -0.790  -0.323  22.374  0.00  0.00    +0.127 C 
ATOM     20  C   UNL     1      -0.986  -0.960  25.046  0.00  0.00    +0.141 C 
ATOM     21  C   UNL     1      -2.000   0.245  23.106  0.00  0.00    +0.128 C 
ATOM     23  C   UNL     1      -3.361  -0.267  25.191  0.00  0.00    +0.303 C 
ATOM     39  H   UNL     1      -4.253   0.886  23.691  0.00  0.00    +0.150 HD
ENDROOT
BRANCH  18  11
ATOM     11  C   UNL     1       2.912  -0.128  23.292  0.00  0.00    +0.075 C 
ATOM     12  C   UNL     1       3.593  -1.497  23.349  0.00  0.00    +0.013 C 
ATOM     13  C   UNL     1       3.846   0.940  22.723  0.00  0.00    +0.013 C 
ATOM     15  C   UNL     1       4.917  -1.436  24.108  0.00  0.00    +0.001 C 
ATOM     16  C   UNL     1       5.169   0.995  23.483  0.00  0.00    +0.001 C 
ATOM     17  C   UNL     1       5.846  -0.371  23.535  0.00  0.00    +0.000 C 
ENDBRANCH  18  11
BRANCH  14  22
ATOM      2  O   UNL     1       0.924   2.020  24.520  0.00  0.00    -0.274 OA
ATOM      7  N   UNL     1      -0.194   1.223  26.400  0.00  0.00    -0.302 N 
ATOM     22  C   UNL     1       0.386   1.111  25.148  0.00  0.00    +0.236 C 
ATOM     38  H   UNL     1      -0.647   0.416  26.813  0.00  0.00    +0.150 HD
BRANCH   7  24
ATOM     24  C   UNL     1      -0.241   2.461  27.143  0.00  0.00    +0.163 C 
BRANCH  24  28
ATOM      4  O   UNL     1       2.108   3.023  27.415  0.00  0.00    -0.274 OA
ATOM     10  N   UNL     1       0.966   2.175  29.218  0.00  0.00    -0.328 N 
ATOM     28  C   UNL     1       1.072   2.577  27.904  0.00  0.00    +0.231 C 
ATOM     41  H   UNL     1       0.097   1.830  29.614  0.00  0.00    +0.145 HD
ATOM     42  H   UNL     1       1.765   2.214  29.841  0.00  0.00    +0.145 HD
ENDBRANCH  24  28
BRANCH  24  25
ATOM     25  C   UNL     1      -0.441   3.678  26.231  0.00  0.00    +0.069 C 
BRANCH  25  27
ATOM      9  N   UNL     1      -4.030   4.368  25.833  0.00  0.00    -0.360 N 
ATOM     27  C   UNL     1      -1.868   3.864  25.801  0.00  0.00    -0.020 A 
ATOM     29  C   UNL     1      -2.413   3.569  24.520  0.00  0.00    +0.003 A 
ATOM     30  C   UNL     1      -2.886   4.353  26.586  0.00  0.00    +0.087 A 
ATOM     33  C   UNL     1      -3.771   3.895  24.568  0.00  0.00    +0.047 A 
ATOM     34  C   UNL     1      -1.880   3.055  23.322  0.00  0.00    +0.010 A 
ATOM     35  C   UNL     1      -4.625   3.731  23.471  0.00  0.00    +0.026 A 
ATOM     36  C   UNL     1      -2.723   2.886  22.216  0.00  0.00    +0.001 A 
ATOM     37  C   UNL     1      -4.074   3.219  22.293  0.00  0.00    +0.002 A 
ATOM     40  H   UNL     1      -4.934   4.680  26.160  0.00  0.00    +0.165 HD
ENDBRANCH  25  27
ENDBRANCH  24  25
ENDBRANCH   7  24
ENDBRANCH  14  22
BRANCH   8  26
ATOM     26  C   UNL     1      -5.718   0.524  25.163  0.00  0.00    +0.068 C 
ATOM     31  C   UNL     1      -5.621   1.374  26.423  0.00  0.00    +0.027 C 
ATOM     32  C   UNL     1      -6.705   1.122  24.169  0.00  0.00    +0.027 C 
ENDBRANCH   8  26
TORSDOF 7
ENDMDL
MODEL 2
REMARK VINA RESULT:       7.4      1.483      5.754
REMARK  Name = 7165013
REMARK  9 active torsions:
REMARK  status: ('A' for Active; 'I' for Inactive)
REMARK    1  A    between atoms: N_7  and  C_24
REMARK    2  A    between atoms: N_8  and  C_26
REMARK    3  A    between atoms: C_11  and  C_18
REMARK    4  A    between atoms: C_14  and  C_22
REMARK    5  A    between atoms: C_24  and  C_25
REMARK    6  A    between atoms: C_24  and  C_28
REMARK    7  A    between atoms: C_25  and  C_27
REMARK    8  A    between atoms: C_26  and  C_31
REMARK    9  A    between atoms: C_26  and  C_32
REMARK                            x       y       z     vdW  Elec       q    Type
REMARK                         _______ _______ _______ _____ _____    ______ ____
ROOT
ATOM      1  O   UNL     1      -3.227  -3.659  24.742  0.00  0.00    -0.275 OA
ATOM      3  O   UNL     1       2.030   0.916  22.516  0.00  0.00    -0.253 OA
ATOM      5  N   UNL     1      -1.815  -1.866  24.299  0.00  0.00    -0.287 N 
ATOM      6  N   UNL     1       0.759  -0.805  23.418  0.00  0.00    -0.282 N 
ATOM      8  N   UNL     1       3.117  -0.874  23.472  0.00  0.00    -0.297 N 
ATOM     14  C   UNL     1      -1.606  -0.426  24.092  0.00  0.00    +0.179 C 
ATOM     18  C   UNL     1      -3.030  -2.442  24.688  0.00  0.00    +0.219 C 
ATOM     19  C   UNL     1      -0.709  -2.753  23.933  0.00  0.00    +0.127 C 
ATOM     20  C   UNL     1      -0.504  -0.145  23.070  0.00  0.00    +0.141 C 
ATOM     21  C   UNL     1       0.658  -2.102  24.101  0.00  0.00    +0.128 C 
ATOM     23  C   UNL     1       1.974  -0.176  23.091  0.00  0.00    +0.303 C 
ATOM     39  H   UNL     1       3.037  -1.686  24.072  0.00  0.00    +0.150 HD
ENDROOT
BRANCH  18  11
ATOM     11  C   UNL     1      -4.143  -1.501  25.040  0.00  0.00    +0.075 C 
ATOM     12  C   UNL     1      -3.815  -0.773  26.346  0.00  0.00    +0.013 C 
ATOM     13  C   UNL     1      -4.377  -0.517  23.894  0.00  0.00    +0.013 C 
ATOM     15  C   UNL     1      -4.879   0.265  26.695  0.00  0.00    +0.001 C 
ATOM     16  C   UNL     1      -5.440   0.520  24.249  0.00  0.00    +0.001 C 
ATOM     17  C   UNL     1      -5.107   1.245  25.549  0.00  0.00    +0.000 C 
ENDBRANCH  18  11
BRANCH  14  22
ATOM      2  O   UNL     1      -1.005  -0.503  26.405  0.00  0.00    -0.274 OA
ATOM      7  N   UNL     1      -1.261   1.570  25.377  0.00  0.00    -0.302 N 
ATOM     22  C   UNL     1      -1.250   0.186  25.418  0.00  0.00    +0.236 C 
ATOM     38  H   UNL     1      -1.438   2.041  24.498  0.00  0.00    +0.150 HD
BRANCH   7  24
ATOM     24  C   UNL     1      -0.976   2.398  26.527  0.00  0.00    +0.163 C 
BRANCH  24  28
ATOM      4  O   UNL     1       1.127   2.701  27.706  0.00  0.00    -0.274 OA
ATOM     10  N   UNL     1       1.186   2.257  25.454  0.00  0.00    -0.328 N 
ATOM     28  C   UNL     1       0.539   2.489  26.648  0.00  0.00    +0.231 C 
ATOM     41  H   UNL     1       0.686   2.060  24.592  0.00  0.00    +0.145 HD
ATOM     42  H   UNL     1       2.198   2.275  25.398  0.00  0.00    +0.145 HD
ENDBRANCH  24  28
BRANCH  24  25
ATOM     25  C   UNL     1      -1.588   3.798  26.401  0.00  0.00    +0.069 C 
BRANCH  25  27
ATOM      9  N   UNL     1      -4.792   4.190  24.642  0.00  0.00    -0.360 N 
ATOM     27  C   UNL     1      -2.756   3.848  25.458  0.00  0.00    -0.020 A 
ATOM     29  C   UNL     1      -2.767   3.430  24.098  0.00  0.00    +0.003 A 
ATOM     30  C   UNL     1      -4.015   4.311  25.763  0.00  0.00    +0.087 A 
ATOM     33  C   UNL     1      -4.056   3.655  23.610  0.00  0.00    +0.047 A 
ATOM     34  C   UNL     1      -1.801   2.879  23.233  0.00  0.00    +0.010 A 
ATOM     35  C   UNL     1      -4.428   3.357  22.294  0.00  0.00    +0.026 A 
ATOM     36  C   UNL     1      -2.159   2.575  21.914  0.00  0.00    +0.001 A 
ATOM     37  C   UNL     1      -3.453   2.811  21.455  0.00  0.00    +0.002 A 
ATOM     40  H   UNL     1      -5.766   4.455  24.582  0.00  0.00    +0.165 HD
ENDBRANCH  25  27
ENDBRANCH  24  25
ENDBRANCH   7  24
ENDBRANCH  14  22
BRANCH   8  26
ATOM     26  C   UNL     1       4.449  -0.371  23.224  0.00  0.00    +0.068 C 
ATOM     31  C   UNL     1       4.429   1.143  23.066  0.00  0.00    +0.027 C 
ATOM     32  C   UNL     1       5.392  -0.798  24.341  0.00  0.00    +0.027 C 
ENDBRANCH   8  26
TORSDOF 7
ENDMDL
MODEL 3
REMARK VINA RESULT:       8.0      1.928      7.300
REMARK  Name = 7165013
REMARK  9 active torsions:
REMARK  status: ('A' for Active; 'I' for Inactive)
REMARK    1  A    between atoms: N_7  and  C_24
REMARK    2  A    between atoms: N_8  and  C_26
REMARK    3  A    between atoms: C_11  and  C_18
REMARK    4  A    between atoms: C_14  and  C_22
REMARK    5  A    between atoms: C_24  and  C_25
REMARK    6  A    between atoms: C_24  and  C_28
REMARK    7  A    between atoms: C_25  and  C_27
REMARK    8  A    between atoms: C_26  and  C_31
REMARK    9  A    between atoms: C_26  and  C_32
REMARK                            x       y       z     vdW  Elec       q    Type
REMARK                         _______ _______ _______ _____ _____    ______ ____
ROOT
ATOM      1  O   UNL     1      -2.309   2.965  22.183  0.00  0.00    -0.275 OA
ATOM      3  O   UNL     1       0.203   2.536  29.041  0.00  0.00    -0.253 OA
ATOM      5  N   UNL     1      -1.771   2.400  24.372  0.00  0.00    -0.287 N 
ATOM      6  N   UNL     1      -0.091   2.697  26.743  0.00  0.00    -0.282 N 
ATOM      8  N   UNL     1       2.053   2.864  27.712  0.00  0.00    -0.297 N 
ATOM     14  C   UNL     1      -2.119   1.757  25.647  0.00  0.00    +0.179 C 
ATOM     18  C   UNL     1      -2.547   2.325  23.211  0.00  0.00    +0.219 C 
ATOM     19  C   UNL     1      -0.607   3.288  24.377  0.00  0.00    +0.127 C 
ATOM     20  C   UNL     1      -1.542   2.509  26.847  0.00  0.00    +0.141 C 
ATOM     21  C   UNL     1       0.453   2.877  25.391  0.00  0.00    +0.128 C 
ATOM     23  C   UNL     1       0.687   2.691  27.915  0.00  0.00    +0.303 C 
ATOM     39  H   UNL     1       2.433   2.836  26.773  0.00  0.00    +0.150 HD
ENDROOT
BRANCH  18  11
ATOM     11  C   UNL     1      -3.739   1.416  23.250  0.00  0.00    +0.075 C 
ATOM     12  C   UNL     1      -3.279  -0.043  23.294  0.00  0.00    +0.013 C 
ATOM     13  C   UNL     1      -4.620   1.762  24.451  0.00  0.00    +0.013 C 
ATOM     15  C   UNL     1      -4.460  -1.003  23.430  0.00  0.00    +0.001 C 
ATOM     16  C   UNL     1      -5.797   0.799  24.584  0.00  0.00    +0.001 C 
ATOM     17  C   UNL     1      -5.333  -0.654  24.631  0.00  0.00    +0.000 C 
ENDBRANCH  18  11
BRANCH  14  22
ATOM      2  O   UNL     1      -2.029  -0.525  26.359  0.00  0.00    -0.274 OA
ATOM      7  N   UNL     1      -0.568   0.193  24.695  0.00  0.00    -0.302 N 
ATOM     22  C   UNL     1      -1.589   0.349  25.616  0.00  0.00    +0.236 C 
ATOM     38  H   UNL     1      -0.308   0.973  24.102  0.00  0.00    +0.150 HD
BRANCH   7  24
ATOM     24  C   UNL     1       0.125  -1.057  24.487  0.00  0.00    +0.163 C 
BRANCH  24  28
ATOM      4  O   UNL     1      -1.745  -2.379  23.672  0.00  0.00    -0.274 OA
ATOM     10  N   UNL     1      -0.804  -2.936  25.692  0.00  0.00    -0.328 N 
ATOM     28  C   UNL     1      -0.917  -2.164  24.556  0.00  0.00    +0.231 C 
ATOM     41  H   UNL     1      -0.099  -2.760  26.402  0.00  0.00    +0.145 HD
ATOM     42  H   UNL     1      -1.429  -3.717  25.856  0.00  0.00    +0.145 HD
ENDBRANCH  24  28
BRANCH  24  25
ATOM     25  C   UNL     1       0.861  -1.098  23.142  0.00  0.00    +0.069 C 
BRANCH  25  27
ATOM      9  N   UNL     1       3.304   1.630  22.815  0.00  0.00    -0.360 N 
ATOM     27  C   UNL     1       2.050  -0.181  23.093  0.00  0.00    -0.020 A 
ATOM     29  C   UNL     1       3.397  -0.521  23.402  0.00  0.00    +0.003 A 
ATOM     30  C   UNL     1       2.025   1.147  22.735  0.00  0.00    +0.087 A 
ATOM     33  C   UNL     1       4.163   0.633  23.220  0.00  0.00    +0.047 A 
ATOM     34  C   UNL     1       4.039  -1.702  23.821  0.00  0.00    +0.010 A 
ATOM     35  C   UNL     1       5.545   0.664  23.437  0.00  0.00    +0.026 A 
ATOM     36  C   UNL     1       5.422  -1.687  24.042  0.00  0.00    +0.001 A 
ATOM     37  C   UNL     1       6.161  -0.521  23.852  0.00  0.00    +0.002 A 
ATOM     40  H   UNL     1       3.579   2.580  22.606  0.00  0.00    +0.165 HD
ENDBRANCH  25  27
ENDBRANCH  24  25
ENDBRANCH   7  24
ENDBRANCH  14  22
BRANCH   8  26
ATOM     26  C   UNL     1       3.002   2.875  28.802  0.00  0.00    +0.068 C 
ATOM     31  C   UNL     1       3.189   4.290  29.334  0.00  0.00    +0.027 C 
ATOM     32  C   UNL     1       2.552   1.926  29.905  0.00  0.00    +0.027 C 
ENDBRANCH   8  26
TORSDOF 7
ENDMDL
