MODEL 1
REMARK VINA RESULT:       9.1      0.000      0.000
REMARK  Name = 25314818
REMARK  7 active torsions:
REMARK  status: ('A' for Active; 'I' for Inactive)
REMARK    1  A    between atoms: O_3  and  C_11
REMARK    2  A    between atoms: O_5  and  C_28
REMARK    3  A    between atoms: O_5  and  C_33
REMARK    4  A    between atoms: N_6  and  C_10
REMARK    5  A    between atoms: N_7  and  C_12
REMARK    6  A    between atoms: N_8  and  C_24
REMARK    7  A    between atoms: N_9  and  C_21
REMARK                            x       y       z     vdW  Elec       q    Type
REMARK                         _______ _______ _______ _____ _____    ______ ____
ROOT
ATOM      1  O   UNL     1      -4.162   3.798  23.562  0.00  0.00    -0.342 OA
ATOM      2  O   UNL     1      -4.309   5.322  25.305  0.00  0.00    -0.347 OA
ATOM     10  C   UNL     1      -2.591   3.619  25.384  0.00  0.00    +0.144 C 
ATOM     11  C   UNL     1      -3.544   2.664  26.136  0.00  0.00    +0.159 C 
ATOM     12  C   UNL     1      -4.803   2.284  25.326  0.00  0.00    +0.136 C 
ATOM     13  C   UNL     1      -5.272   3.403  24.373  0.00  0.00    +0.170 C 
ATOM     14  C   UNL     1      -3.391   4.580  24.483  0.00  0.00    +0.270 C 
ATOM     15  C   UNL     1      -5.588   4.716  25.067  0.00  0.00    +0.196 C 
ENDROOT
BRANCH  12   7
ATOM      4  O   UNL     1      -4.188  -0.311  26.399  0.00  0.00    -0.253 OA
ATOM      7  N   UNL     1      -4.564   1.070  24.573  0.00  0.00    -0.291 N 
ATOM      9  N   UNL     1      -4.086  -1.149  24.236  0.00  0.00    -0.297 N 
ATOM     20  C   UNL     1      -4.271  -0.145  25.183  0.00  0.00    +0.300 C 
ATOM     34  H   UNL     1      -4.533   1.126  23.560  0.00  0.00    +0.151 HD
ATOM     36  H   UNL     1      -4.106  -0.887  23.256  0.00  0.00    +0.151 HD
BRANCH   9  21
ATOM     21  C   UNL     1      -3.771  -2.516  24.585  0.00  0.00    +0.074 C 
ATOM     22  C   UNL     1      -2.864  -3.159  23.529  0.00  0.00    +0.022 C 
ATOM     23  C   UNL     1      -3.142  -2.598  25.981  0.00  0.00    +0.022 C 
ATOM     25  C   UNL     1      -1.439  -2.605  23.568  0.00  0.00    +0.002 C 
ATOM     26  C   UNL     1      -1.718  -2.046  26.014  0.00  0.00    +0.002 C 
ATOM     27  C   UNL     1      -0.832  -2.708  24.963  0.00  0.00    +0.000 C 
ENDBRANCH   9  21
ENDBRANCH  12   7
BRANCH  10   6
ATOM      6  N   UNL     1      -1.646   2.853  24.571  0.00  0.00    -0.290 NA
ATOM      8  N   UNL     1       0.886   1.716  23.893  0.00  0.00    -0.325 N 
ATOM     16  C   UNL     1      -1.110   1.720  25.337  0.00  0.00    +0.104 C 
ATOM     17  C   UNL     1      -0.546   3.710  24.113  0.00  0.00    +0.104 C 
ATOM     18  C   UNL     1      -0.163   0.876  24.481  0.00  0.00    +0.120 C 
ATOM     19  C   UNL     1       0.420   2.933  23.216  0.00  0.00    +0.120 C 
BRANCH   8  24
ATOM     24  C   UNL     1       2.076   1.130  23.447  0.00  0.00    +0.072 A 
ATOM     28  C   UNL     1       2.050  -0.034  22.678  0.00  0.00    +0.141 A 
ATOM     29  C   UNL     1       3.295   1.722  23.776  0.00  0.00    +0.027 A 
ATOM     30  C   UNL     1       3.243  -0.606  22.239  0.00  0.00    +0.047 A 
ATOM     31  C   UNL     1       4.489   1.150  23.336  0.00  0.00    +0.002 A 
ATOM     32  C   UNL     1       4.464  -0.014  22.568  0.00  0.00    +0.004 A 
BRANCH  28   5
ATOM      5  O   UNL     1       0.869  -0.628  22.347  0.00  0.00    -0.493 OA
ATOM     33  C   UNL     1       0.566  -0.736  20.958  0.00  0.00    +0.277 C 
ENDBRANCH  28   5
ENDBRANCH   8  24
ENDBRANCH  10   6
BRANCH  11   3
ATOM      3  O   UNL     1      -3.956   3.318  27.345  0.00  0.00    -0.388 OA
ATOM     35  H   UNL     1      -3.390   2.989  28.064  0.00  0.00    +0.210 HD
ENDBRANCH  11   3
TORSDOF 6
ENDMDL
MODEL 2
REMARK VINA RESULT:       9.1      1.681      6.442
REMARK  Name = 25314818
REMARK  7 active torsions:
REMARK  status: ('A' for Active; 'I' for Inactive)
REMARK    1  A    between atoms: O_3  and  C_11
REMARK    2  A    between atoms: O_5  and  C_28
REMARK    3  A    between atoms: O_5  and  C_33
REMARK    4  A    between atoms: N_6  and  C_10
REMARK    5  A    between atoms: N_7  and  C_12
REMARK    6  A    between atoms: N_8  and  C_24
REMARK    7  A    between atoms: N_9  and  C_21
REMARK                            x       y       z     vdW  Elec       q    Type
REMARK                         _______ _______ _______ _____ _____    ______ ____
ROOT
ATOM      1  O   UNL     1       3.145   0.408  24.482  0.00  0.00    -0.342 OA
ATOM      2  O   UNL     1       4.071   0.723  22.379  0.00  0.00    -0.347 OA
ATOM     10  C   UNL     1       1.775   1.385  22.753  0.00  0.00    +0.144 C 
ATOM     11  C   UNL     1       1.280  -0.016  22.327  0.00  0.00    +0.159 C 
ATOM     12  C   UNL     1       1.789  -1.153  23.241  0.00  0.00    +0.136 C 
ATOM     13  C   UNL     1       3.181  -0.870  23.842  0.00  0.00    +0.170 C 
ATOM     14  C   UNL     1       3.189   1.297  23.358  0.00  0.00    +0.270 C 
ATOM     15  C   UNL     1       4.267  -0.632  22.809  0.00  0.00    +0.196 C 
ENDROOT
BRANCH  12   7
ATOM      4  O   UNL     1      -0.841  -2.280  22.965  0.00  0.00    -0.253 OA
ATOM      7  N   UNL     1       0.838  -1.402  24.304  0.00  0.00    -0.291 N 
ATOM      9  N   UNL     1      -1.132  -2.086  25.261  0.00  0.00    -0.297 N 
ATOM     20  C   UNL     1      -0.418  -1.953  24.073  0.00  0.00    +0.300 C 
ATOM     34  H   UNL     1       1.069  -1.091  25.242  0.00  0.00    +0.151 HD
ATOM     36  H   UNL     1      -0.715  -1.717  26.110  0.00  0.00    +0.151 HD
BRANCH   9  21
ATOM     21  C   UNL     1      -2.469  -2.633  25.322  0.00  0.00    +0.074 C 
ATOM     22  C   UNL     1      -3.290  -1.955  26.425  0.00  0.00    +0.022 C 
ATOM     23  C   UNL     1      -3.170  -2.526  23.963  0.00  0.00    +0.022 C 
ATOM     25  C   UNL     1      -3.673  -0.518  26.070  0.00  0.00    +0.002 C 
ATOM     26  C   UNL     1      -3.553  -1.089  23.613  0.00  0.00    +0.002 C 
ATOM     27  C   UNL     1      -4.379  -0.440  24.720  0.00  0.00    +0.000 C 
ENDBRANCH   9  21
ENDBRANCH  12   7
BRANCH  10   6
ATOM      6  N   UNL     1       0.855   1.969  23.730  0.00  0.00    -0.290 NA
ATOM      8  N   UNL     1      -1.656   2.928  24.699  0.00  0.00    -0.325 N 
ATOM     16  C   UNL     1      -0.230   1.030  24.040  0.00  0.00    +0.104 C 
ATOM     17  C   UNL     1       0.296   3.228  23.223  0.00  0.00    +0.104 C 
ATOM     18  C   UNL     1      -1.170   1.605  25.103  0.00  0.00    +0.120 C 
ATOM     19  C   UNL     1      -0.625   3.877  24.259  0.00  0.00    +0.120 C 
BRANCH   8  24
ATOM     24  C   UNL     1      -2.822   3.445  25.273  0.00  0.00    +0.072 A 
ATOM     28  C   UNL     1      -4.067   3.208  24.689  0.00  0.00    +0.141 A 
ATOM     29  C   UNL     1      -2.733   4.200  26.443  0.00  0.00    +0.027 A 
ATOM     30  C   UNL     1      -5.221   3.727  25.274  0.00  0.00    +0.047 A 
ATOM     31  C   UNL     1      -3.888   4.718  27.028  0.00  0.00    +0.002 A 
ATOM     32  C   UNL     1      -5.132   4.483  26.444  0.00  0.00    +0.004 A 
BRANCH  28   5
ATOM      5  O   UNL     1      -4.176   2.474  23.547  0.00  0.00    -0.493 OA
ATOM     33  C   UNL     1      -3.663   3.058  22.350  0.00  0.00    +0.277 C 
ENDBRANCH  28   5
ENDBRANCH   8  24
ENDBRANCH  10   6
BRANCH  11   3
ATOM      3  O   UNL     1       1.745  -0.257  20.991  0.00  0.00    -0.388 OA
ATOM     35  H   UNL     1       1.114  -0.863  20.566  0.00  0.00    +0.210 HD
ENDBRANCH  11   3
TORSDOF 6
ENDMDL
MODEL 3
REMARK VINA RESULT:      10.4      1.676      5.233
REMARK  Name = 25314818
REMARK  7 active torsions:
REMARK  status: ('A' for Active; 'I' for Inactive)
REMARK    1  A    between atoms: O_3  and  C_11
REMARK    2  A    between atoms: O_5  and  C_28
REMARK    3  A    between atoms: O_5  and  C_33
REMARK    4  A    between atoms: N_6  and  C_10
REMARK    5  A    between atoms: N_7  and  C_12
REMARK    6  A    between atoms: N_8  and  C_24
REMARK    7  A    between atoms: N_9  and  C_21
REMARK                            x       y       z     vdW  Elec       q    Type
REMARK                         _______ _______ _______ _____ _____    ______ ____
ROOT
ATOM      1  O   UNL     1      -2.633   3.519  26.120  0.00  0.00    -0.342 OA
ATOM      2  O   UNL     1      -3.770   5.533  26.302  0.00  0.00    -0.347 OA
ATOM     10  C   UNL     1      -4.406   3.987  24.553  0.00  0.00    +0.144 C 
ATOM     11  C   UNL     1      -3.398   4.641  23.580  0.00  0.00    +0.159 C 
ATOM     12  C   UNL     1      -1.930   4.530  24.047  0.00  0.00    +0.136 C 
ATOM     13  C   UNL     1      -1.780   4.533  25.582  0.00  0.00    +0.170 C 
ATOM     14  C   UNL     1      -3.924   4.134  26.008  0.00  0.00    +0.270 C 
ATOM     15  C   UNL     1      -2.353   5.765  26.259  0.00  0.00    +0.196 C 
ENDROOT
BRANCH  12   7
ATOM      4  O   UNL     1       0.032   2.859  25.321  0.00  0.00    -0.253 OA
ATOM      7  N   UNL     1      -1.322   3.336  23.498  0.00  0.00    -0.291 N 
ATOM      9  N   UNL     1       0.047   1.496  23.441  0.00  0.00    -0.297 N 
ATOM     20  C   UNL     1      -0.376   2.589  24.192  0.00  0.00    +0.300 C 
ATOM     34  H   UNL     1      -1.538   3.080  22.539  0.00  0.00    +0.151 HD
ATOM     36  H   UNL     1      -0.300   1.408  22.492  0.00  0.00    +0.151 HD
BRANCH   9  21
ATOM     21  C   UNL     1       1.027   0.544  23.915  0.00  0.00    +0.074 C 
ATOM     22  C   UNL     1       1.009  -0.732  23.066  0.00  0.00    +0.022 C 
ATOM     23  C   UNL     1       2.427   1.167  23.951  0.00  0.00    +0.022 C 
ATOM     25  C   UNL     1       1.595  -0.515  21.671  0.00  0.00    +0.002 C 
ATOM     26  C   UNL     1       3.009   1.381  22.555  0.00  0.00    +0.002 C 
ATOM     27  C   UNL     1       2.992   0.095  21.734  0.00  0.00    +0.000 C 
ENDBRANCH   9  21
ENDBRANCH  12   7
BRANCH  10   6
ATOM      6  N   UNL     1      -4.573   2.570  24.228  0.00  0.00    -0.290 NA
ATOM      8  N   UNL     1      -3.867  -0.198  24.191  0.00  0.00    -0.325 N 
ATOM     16  C   UNL     1      -4.649   1.767  25.455  0.00  0.00    +0.104 C 
ATOM     17  C   UNL     1      -3.465   2.098  23.390  0.00  0.00    +0.104 C 
ATOM     18  C   UNL     1      -4.880   0.289  25.132  0.00  0.00    +0.120 C 
ATOM     19  C   UNL     1      -3.657   0.632  22.997  0.00  0.00    +0.120 C 
BRANCH   8  24
ATOM     24  C   UNL     1      -3.616  -1.571  24.090  0.00  0.00    +0.072 A 
ATOM     28  C   UNL     1      -2.366  -2.091  24.427  0.00  0.00    +0.141 A 
ATOM     29  C   UNL     1      -4.629  -2.422  23.650  0.00  0.00    +0.027 A 
ATOM     30  C   UNL     1      -2.130  -3.461  24.323  0.00  0.00    +0.047 A 
ATOM     31  C   UNL     1      -4.394  -3.792  23.547  0.00  0.00    +0.002 A 
ATOM     32  C   UNL     1      -3.144  -4.313  23.883  0.00  0.00    +0.004 A 
BRANCH  28   5
ATOM      5  O   UNL     1      -1.362  -1.277  24.858  0.00  0.00    -0.493 OA
ATOM     33  C   UNL     1      -1.443  -0.804  26.201  0.00  0.00    +0.277 C 
ENDBRANCH  28   5
ENDBRANCH   8  24
ENDBRANCH  10   6
BRANCH  11   3
ATOM      3  O   UNL     1      -3.740   6.029  23.464  0.00  0.00    -0.388 OA
ATOM     35  H   UNL     1      -4.173   6.154  22.602  0.00  0.00    +0.210 HD
ENDBRANCH  11   3
TORSDOF 6
ENDMDL
MODEL 4
REMARK VINA RESULT:      12.4      1.300      1.686
REMARK  Name = 25314818
REMARK  7 active torsions:
REMARK  status: ('A' for Active; 'I' for Inactive)
REMARK    1  A    between atoms: O_3  and  C_11
REMARK    2  A    between atoms: O_5  and  C_28
REMARK    3  A    between atoms: O_5  and  C_33
REMARK    4  A    between atoms: N_6  and  C_10
REMARK    5  A    between atoms: N_7  and  C_12
REMARK    6  A    between atoms: N_8  and  C_24
REMARK    7  A    between atoms: N_9  and  C_21
REMARK                            x       y       z     vdW  Elec       q    Type
REMARK                         _______ _______ _______ _____ _____    ______ ____
ROOT
ATOM      1  O   UNL     1      -3.030   3.523  22.972  0.00  0.00    -0.342 OA
ATOM      2  O   UNL     1      -3.523   5.367  24.290  0.00  0.00    -0.347 OA
ATOM     10  C   UNL     1      -2.535   3.419  25.330  0.00  0.00    +0.144 C 
ATOM     11  C   UNL     1      -3.937   2.836  25.618  0.00  0.00    +0.159 C 
ATOM     12  C   UNL     1      -4.758   2.548  24.342  0.00  0.00    +0.136 C 
ATOM     13  C   UNL     1      -4.444   3.520  23.187  0.00  0.00    +0.170 C 
ATOM     14  C   UNL     1      -2.569   4.313  24.076  0.00  0.00    +0.270 C 
ATOM     15  C   UNL     1      -4.675   4.982  23.525  0.00  0.00    +0.196 C 
ENDROOT
BRANCH  12   7
ATOM      4  O   UNL     1      -4.191   0.279  26.014  0.00  0.00    -0.253 OA
ATOM      7  N   UNL     1      -4.541   1.184  23.907  0.00  0.00    -0.291 N 
ATOM      9  N   UNL     1      -4.104  -1.058  24.118  0.00  0.00    -0.297 N 
ATOM     20  C   UNL     1      -4.271   0.148  24.794  0.00  0.00    +0.300 C 
ATOM     34  H   UNL     1      -4.509   0.994  22.910  0.00  0.00    +0.151 HD
ATOM     36  H   UNL     1      -4.119  -1.041  23.104  0.00  0.00    +0.151 HD
BRANCH   9  21
ATOM     21  C   UNL     1      -3.814  -2.306  24.789  0.00  0.00    +0.074 C 
ATOM     22  C   UNL     1      -2.944  -3.213  23.912  0.00  0.00    +0.022 C 
ATOM     23  C   UNL     1      -3.160  -2.059  26.153  0.00  0.00    +0.022 C 
ATOM     25  C   UNL     1      -1.506  -2.707  23.793  0.00  0.00    +0.002 C 
ATOM     26  C   UNL     1      -1.723  -1.556  26.030  0.00  0.00    +0.002 C 
ATOM     27  C   UNL     1      -0.874  -2.480  25.163  0.00  0.00    +0.000 C 
ENDBRANCH   9  21
ENDBRANCH  12   7
BRANCH  10   6
ATOM      6  N   UNL     1      -1.567   2.338  25.140  0.00  0.00    -0.290 NA
ATOM      8  N   UNL     1       0.839   1.129  24.185  0.00  0.00    -0.325 N 
ATOM     16  C   UNL     1      -0.270   2.699  25.726  0.00  0.00    +0.104 C 
ATOM     17  C   UNL     1      -1.404   2.037  23.713  0.00  0.00    +0.104 C 
ATOM     18  C   UNL     1       0.736   1.554  25.584  0.00  0.00    +0.120 C 
ATOM     19  C   UNL     1      -0.437   0.869  23.504  0.00  0.00    +0.120 C 
BRANCH   8  24
ATOM     24  C   UNL     1       1.968   0.425  23.754  0.00  0.00    +0.072 A 
ATOM     28  C   UNL     1       3.023   1.089  23.126  0.00  0.00    +0.141 A 
ATOM     29  C   UNL     1       2.036  -0.953  23.959  0.00  0.00    +0.027 A 
ATOM     30  C   UNL     1       4.143   0.376  22.704  0.00  0.00    +0.047 A 
ATOM     31  C   UNL     1       3.157  -1.666  23.537  0.00  0.00    +0.002 A 
ATOM     32  C   UNL     1       4.211  -1.003  22.909  0.00  0.00    +0.004 A 
BRANCH  28   5
ATOM      5  O   UNL     1       2.975   2.435  22.916  0.00  0.00    -0.493 OA
ATOM     33  C   UNL     1       3.903   2.976  21.977  0.00  0.00    +0.277 C 
ENDBRANCH  28   5
ENDBRANCH   8  24
ENDBRANCH  10   6
BRANCH  11   3
ATOM      3  O   UNL     1      -4.650   3.788  26.420  0.00  0.00    -0.388 OA
ATOM     35  H   UNL     1      -4.908   4.525  25.840  0.00  0.00    +0.210 HD
ENDBRANCH  11   3
TORSDOF 6
ENDMDL
MODEL 5
REMARK VINA RESULT:      12.5      1.786      5.098
REMARK  Name = 25314818
REMARK  7 active torsions:
REMARK  status: ('A' for Active; 'I' for Inactive)
REMARK    1  A    between atoms: O_3  and  C_11
REMARK    2  A    between atoms: O_5  and  C_28
REMARK    3  A    between atoms: O_5  and  C_33
REMARK    4  A    between atoms: N_6  and  C_10
REMARK    5  A    between atoms: N_7  and  C_12
REMARK    6  A    between atoms: N_8  and  C_24
REMARK    7  A    between atoms: N_9  and  C_21
REMARK                            x       y       z     vdW  Elec       q    Type
REMARK                         _______ _______ _______ _____ _____    ______ ____
ROOT
ATOM      1  O   UNL     1      -2.577  -0.671  26.001  0.00  0.00    -0.342 OA
ATOM      2  O   UNL     1      -3.347  -2.859  26.001  0.00  0.00    -0.347 OA
ATOM     10  C   UNL     1      -2.237  -2.014  24.025  0.00  0.00    +0.144 C 
ATOM     11  C   UNL     1      -3.588  -1.536  23.446  0.00  0.00    +0.159 C 
ATOM     12  C   UNL     1      -4.285  -0.464  24.311  0.00  0.00    +0.136 C 
ATOM     13  C   UNL     1      -3.994  -0.618  25.819  0.00  0.00    +0.170 C 
ATOM     14  C   UNL     1      -2.277  -2.004  25.565  0.00  0.00    +0.270 C 
ATOM     15  C   UNL     1      -4.398  -1.963  26.394  0.00  0.00    +0.196 C 
ENDROOT
BRANCH  12   7
ATOM      4  O   UNL     1      -4.532   1.982  25.801  0.00  0.00    -0.253 OA
ATOM      7  N   UNL     1      -3.899   0.861  23.871  0.00  0.00    -0.291 N 
ATOM      9  N   UNL     1      -3.610   3.133  24.007  0.00  0.00    -0.297 N 
ATOM     20  C   UNL     1      -4.058   1.991  24.665  0.00  0.00    +0.300 C 
ATOM     34  H   UNL     1      -3.572   0.977  22.917  0.00  0.00    +0.151 HD
ATOM     36  H   UNL     1      -3.305   3.036  23.044  0.00  0.00    +0.151 HD
BRANCH   9  21
ATOM     21  C   UNL     1      -3.653   4.453  24.596  0.00  0.00    +0.074 C 
ATOM     22  C   UNL     1      -3.116   4.433  26.031  0.00  0.00    +0.022 C 
ATOM     23  C   UNL     1      -2.891   5.465  23.732  0.00  0.00    +0.022 C 
ATOM     25  C   UNL     1      -1.601   4.234  26.087  0.00  0.00    +0.002 C 
ATOM     26  C   UNL     1      -1.378   5.264  23.792  0.00  0.00    +0.002 C 
ATOM     27  C   UNL     1      -0.867   5.260  25.230  0.00  0.00    +0.000 C 
ENDBRANCH   9  21
ENDBRANCH  12   7
BRANCH  10   6
ATOM      6  N   UNL     1      -1.152  -1.151  23.554  0.00  0.00    -0.290 NA
ATOM      8  N   UNL     1       1.548  -0.249  23.322  0.00  0.00    -0.325 N 
ATOM     16  C   UNL     1      -0.171  -1.931  22.789  0.00  0.00    +0.104 C 
ATOM     17  C   UNL     1      -0.491  -0.489  24.685  0.00  0.00    +0.104 C 
ATOM     18  C   UNL     1       0.940  -1.032  22.242  0.00  0.00    +0.120 C 
ATOM     19  C   UNL     1       0.608   0.459  24.201  0.00  0.00    +0.120 C 
BRANCH   8  24
ATOM     24  C   UNL     1       2.825   0.297  23.150  0.00  0.00    +0.072 A 
ATOM     28  C   UNL     1       3.964  -0.453  23.446  0.00  0.00    +0.141 A 
ATOM     29  C   UNL     1       2.954   1.602  22.675  0.00  0.00    +0.027 A 
ATOM     30  C   UNL     1       5.230   0.103  23.269  0.00  0.00    +0.047 A 
ATOM     31  C   UNL     1       4.220   2.157  22.496  0.00  0.00    +0.002 A 
ATOM     32  C   UNL     1       5.359   1.409  22.793  0.00  0.00    +0.004 A 
BRANCH  28   5
ATOM      5  O   UNL     1       3.860  -1.729  23.912  0.00  0.00    -0.493 OA
ATOM     33  C   UNL     1       5.056  -2.505  23.947  0.00  0.00    +0.277 C 
ENDBRANCH  28   5
ENDBRANCH   8  24
ENDBRANCH  10   6
BRANCH  11   3
ATOM      3  O   UNL     1      -4.449  -2.679  23.346  0.00  0.00    -0.388 OA
ATOM     35  H   UNL     1      -5.359  -2.352  23.241  0.00  0.00    +0.210 HD
ENDBRANCH  11   3
TORSDOF 6
ENDMDL
MODEL 6
REMARK VINA RESULT:      12.9      2.837      5.066
REMARK  Name = 25314818
REMARK  7 active torsions:
REMARK  status: ('A' for Active; 'I' for Inactive)
REMARK    1  A    between atoms: O_3  and  C_11
REMARK    2  A    between atoms: O_5  and  C_28
REMARK    3  A    between atoms: O_5  and  C_33
REMARK    4  A    between atoms: N_6  and  C_10
REMARK    5  A    between atoms: N_7  and  C_12
REMARK    6  A    between atoms: N_8  and  C_24
REMARK    7  A    between atoms: N_9  and  C_21
REMARK                            x       y       z     vdW  Elec       q    Type
REMARK                         _______ _______ _______ _____ _____    ______ ____
ROOT
ATOM      1  O   UNL     1      -2.594  -1.044  25.351  0.00  0.00    -0.342 OA
ATOM      2  O   UNL     1      -4.431  -0.591  24.009  0.00  0.00    -0.347 OA
ATOM     10  C   UNL     1      -2.215  -0.174  23.133  0.00  0.00    +0.144 C 
ATOM     11  C   UNL     1      -2.250   1.273  23.674  0.00  0.00    +0.159 C 
ATOM     12  C   UNL     1      -2.369   1.353  25.211  0.00  0.00    +0.136 C 
ATOM     13  C   UNL     1      -3.165   0.180  25.820  0.00  0.00    +0.170 C 
ATOM     14  C   UNL     1      -3.085  -1.098  24.005  0.00  0.00    +0.270 C 
ATOM     15  C   UNL     1      -4.580   0.047  25.287  0.00  0.00    +0.196 C 
ENDROOT
BRANCH  12   7
ATOM      4  O   UNL     1      -1.320   3.475  26.842  0.00  0.00    -0.253 OA
ATOM      7  N   UNL     1      -1.053   1.414  25.811  0.00  0.00    -0.291 N 
ATOM      9  N   UNL     1       0.671   2.297  27.042  0.00  0.00    -0.297 N 
ATOM     20  C   UNL     1      -0.631   2.488  26.588  0.00  0.00    +0.300 C 
ATOM     34  H   UNL     1      -0.386   0.681  25.591  0.00  0.00    +0.151 HD
ATOM     36  H   UNL     1       1.174   1.480  26.712  0.00  0.00    +0.151 HD
BRANCH   9  21
ATOM     21  C   UNL     1       1.366   3.254  27.873  0.00  0.00    +0.074 C 
ATOM     22  C   UNL     1       0.643   3.449  29.211  0.00  0.00    +0.022 C 
ATOM     23  C   UNL     1       2.826   2.839  28.087  0.00  0.00    +0.022 C 
ATOM     25  C   UNL     1       0.783   2.237  30.133  0.00  0.00    +0.002 C 
ATOM     26  C   UNL     1       2.962   1.629  29.011  0.00  0.00    +0.002 C 
ATOM     27  C   UNL     1       2.245   1.852  30.339  0.00  0.00    +0.000 C 
ENDBRANCH   9  21
ENDBRANCH  12   7
BRANCH  10   6
ATOM      6  N   UNL     1      -0.838  -0.671  23.109  0.00  0.00    -0.290 NA
ATOM      8  N   UNL     1       1.995  -0.519  23.448  0.00  0.00    -0.325 N 
ATOM     16  C   UNL     1      -0.251  -0.624  24.455  0.00  0.00    +0.104 C 
ATOM     17  C   UNL     1      -0.020   0.119  22.180  0.00  0.00    +0.104 C 
ATOM     18  C   UNL     1       1.170  -1.192  24.456  0.00  0.00    +0.120 C 
ATOM     19  C   UNL     1       1.408  -0.425  22.105  0.00  0.00    +0.120 C 
BRANCH   8  24
ATOM     24  C   UNL     1       3.389  -0.558  23.555  0.00  0.00    +0.072 A 
ATOM     28  C   UNL     1       4.149   0.595  23.355  0.00  0.00    +0.141 A 
ATOM     29  C   UNL     1       4.020  -1.762  23.867  0.00  0.00    +0.027 A 
ATOM     30  C   UNL     1       5.538   0.544  23.465  0.00  0.00    +0.047 A 
ATOM     31  C   UNL     1       5.409  -1.814  23.978  0.00  0.00    +0.002 A 
ATOM     32  C   UNL     1       6.169  -0.662  23.777  0.00  0.00    +0.004 A 
BRANCH  28   5
ATOM      5  O   UNL     1       3.553   1.782  23.048  0.00  0.00    -0.493 OA
ATOM     33  C   UNL     1       4.085   2.507  21.941  0.00  0.00    +0.277 C 
ENDBRANCH  28   5
ENDBRANCH   8  24
ENDBRANCH  10   6
BRANCH  11   3
ATOM      3  O   UNL     1      -3.383   1.931  23.089  0.00  0.00    -0.388 OA
ATOM     35  H   UNL     1      -3.052   2.517  22.388  0.00  0.00    +0.210 HD
ENDBRANCH  11   3
TORSDOF 6
ENDMDL
