MODEL 1
REMARK VINA RESULT:       9.7      0.000      0.000
REMARK  Name = 7155600
REMARK  5 active torsions:
REMARK  status: ('A' for Active; 'I' for Inactive)
REMARK    1  A    between atoms: O_4  and  C_29
REMARK    2  A    between atoms: O_4  and  C_34
REMARK    3  A    between atoms: N_7  and  C_22
REMARK    4  A    between atoms: N_8  and  C_20
REMARK    5  A    between atoms: C_23  and  C_26
REMARK                            x       y       z     vdW  Elec       q    Type
REMARK                         _______ _______ _______ _____ _____    ______ ____
ROOT
ATOM      1  O   UNL     1       0.059   2.526  26.323  0.00  0.00    -0.266 OA
ATOM      2  O   UNL     1      -4.603   0.187  26.616  0.00  0.00    -0.252 OA
ATOM      5  N   UNL     1      -4.843   2.122  25.372  0.00  0.00    -0.284 N 
ATOM      6  N   UNL     1      -1.869   3.271  25.235  0.00  0.00    -0.310 N 
ATOM      7  N   UNL     1      -4.674   0.025  24.303  0.00  0.00    -0.269 N 
ATOM     10  C   UNL     1      -3.915   4.154  26.494  0.00  0.00    +0.027 C 
ATOM     11  C   UNL     1      -3.954   4.031  24.040  0.00  0.00    +0.054 C 
ATOM     12  C   UNL     1      -4.174   4.963  25.228  0.00  0.00    +0.018 C 
ATOM     13  C   UNL     1      -4.882   2.961  26.574  0.00  0.00    +0.114 C 
ATOM     14  C   UNL     1      -2.448   3.711  26.511  0.00  0.00    +0.130 C 
ATOM     15  C   UNL     1      -4.958   2.859  24.100  0.00  0.00    +0.119 C 
ATOM     16  C   UNL     1      -2.537   3.487  24.025  0.00  0.00    +0.027 A 
ATOM     17  C   UNL     1      -1.940   3.182  22.860  0.00  0.00    +0.024 A 
ATOM     18  C   UNL     1      -0.573   2.719  25.284  0.00  0.00    +0.273 A 
ATOM     19  C   UNL     1      -4.692   0.725  25.510  0.00  0.00    +0.306 C 
ATOM     20  C   UNL     1       0.047   2.370  23.967  0.00  0.00    +0.099 A 
ATOM     21  C   UNL     1      -0.623   2.611  22.834  0.00  0.00    +0.030 A 
ATOM     35  H   UNL     1      -5.169   0.419  23.512  0.00  0.00    +0.156 HD
ENDROOT
BRANCH   7  22
ATOM     22  C   UNL     1      -4.073  -1.233  24.053  0.00  0.00    +0.035 A 
ATOM     24  C   UNL     1      -4.837  -2.275  23.535  0.00  0.00    +0.027 A 
ATOM     25  C   UNL     1      -2.721  -1.421  24.327  0.00  0.00    +0.027 A 
ATOM     27  C   UNL     1      -4.246  -3.514  23.289  0.00  0.00    +0.047 A 
ATOM     28  C   UNL     1      -2.129  -2.660  24.081  0.00  0.00    +0.047 A 
ATOM     29  C   UNL     1      -2.891  -3.705  23.561  0.00  0.00    +0.120 A 
BRANCH  29   4
ATOM      4  O   UNL     1      -2.313  -4.914  23.320  0.00  0.00    -0.495 OA
ATOM     34  C   UNL     1      -1.146  -4.925  22.500  0.00  0.00    +0.277 C 
ENDBRANCH  29   4
ENDBRANCH   7  22
BRANCH  20   8
ATOM      3  O   UNL     1       0.828  -0.041  22.654  0.00  0.00    -0.268 OA
ATOM      8  N   UNL     1       1.293   1.818  23.972  0.00  0.00    -0.276 N 
ATOM     23  C   UNL     1       1.611   0.639  23.312  0.00  0.00    +0.267 C 
ATOM     36  H   UNL     1       1.964   2.192  24.639  0.00  0.00    +0.155 HD
BRANCH  23  26
ATOM      9  N   UNL     1       3.921   1.186  23.227  0.00  0.00    -0.250 NA
ATOM     26  C   UNL     1       3.029   0.206  23.413  0.00  0.00    +0.126 A 
ATOM     30  C   UNL     1       3.306  -1.109  23.677  0.00  0.00    +0.033 A 
ATOM     31  C   UNL     1       4.648  -1.461  23.760  0.00  0.00    +0.004 A 
ATOM     32  C   UNL     1       5.216   0.806  23.314  0.00  0.00    +0.111 A 
ATOM     33  C   UNL     1       5.628  -0.492  23.576  0.00  0.00    +0.020 A 
ENDBRANCH  23  26
ENDBRANCH  20   8
TORSDOF 4
ENDMDL
