MODEL 1
REMARK VINA RESULT:       1.7      0.000      0.000
REMARK  Name = 45361530
REMARK  12 active torsions:
REMARK  status: ('A' for Active; 'I' for Inactive)
REMARK    1  A    between atoms: O_1  and  C_10
REMARK    2  A    between atoms: N_4  and  C_14
REMARK    3  A    between atoms: N_5  and  C_24
REMARK    4  A    between atoms: N_5  and  C_25
REMARK    5  A    between atoms: C_7  and  C_17
REMARK    6  A    between atoms: C_9  and  C_19
REMARK    7  A    between atoms: C_12  and  C_18
REMARK    8  A    between atoms: C_18  and  C_20
REMARK    9  A    between atoms: C_18  and  C_21
REMARK   10  A    between atoms: C_22  and  C_23
REMARK   11  A    between atoms: C_23  and  C_26
REMARK   12  A    between atoms: C_24  and  C_27
REMARK                            x       y       z     vdW  Elec       q    Type
REMARK                         _______ _______ _______ _____ _____    ______ ____
ROOT
ATOM      7  C   UNL     1      -2.001  -1.057  25.447  0.00  0.00    -0.027 C 
ATOM      8  C   UNL     1      -2.213   0.100  24.414  0.00  0.00    +0.028 C 
ATOM      9  C   UNL     1      -0.835   0.633  23.881  0.00  0.00    +0.012 C 
ATOM     10  C   UNL     1      -3.178   1.184  24.973  0.00  0.00    +0.122 C 
ATOM     11  C   UNL     1      -3.374  -1.633  25.865  0.00  0.00    +0.007 C 
ATOM     12  C   UNL     1      -4.510   0.588  25.486  0.00  0.00    +0.029 C 
ATOM     13  C   UNL     1      -1.198  -2.193  24.772  0.00  0.00    +0.009 C 
ATOM     14  C   UNL     1      -0.006  -0.533  23.273  0.00  0.00    +0.076 C 
ATOM     15  C   UNL     1      -4.307  -0.581  26.450  0.00  0.00    +0.007 C 
ATOM     16  C   UNL     1       0.138  -1.730  24.211  0.00  0.00    +0.023 C 
ATOM     17  C   UNL     1      -1.249  -0.587  26.718  0.00  0.00    +0.011 C 
ATOM     19  C   UNL     1      -0.971   1.755  22.837  0.00  0.00    +0.010 C 
ENDROOT
BRANCH  14   4
ATOM      3  O   UNL     1       1.149  -0.709  20.643  0.00  0.00    -0.275 OA
ATOM      4  N   UNL     1       1.318  -0.100  22.875  0.00  0.00    -0.312 N 
ATOM     22  C   UNL     1       1.785  -0.229  21.577  0.00  0.00    +0.218 C 
ATOM     37  H   UNL     1       1.936   0.251  23.601  0.00  0.00    +0.149 HD
BRANCH  22  23
ATOM     23  C   UNL     1       3.196   0.310  21.441  0.00  0.00    +0.130 C 
BRANCH  23  26
ATOM     26  C   UNL     1       4.083  -0.038  22.607  0.00  0.00    -0.039 A 
ATOM     28  C   UNL     1       4.905   0.937  23.171  0.00  0.00    +0.004 A 
ATOM     29  C   UNL     1       4.082  -1.333  23.123  0.00  0.00    +0.004 A 
ATOM     32  C   UNL     1       5.727   0.616  24.252  0.00  0.00    +0.000 A 
ATOM     33  C   UNL     1       4.904  -1.654  24.203  0.00  0.00    +0.000 A 
ATOM     34  C   UNL     1       5.726  -0.680  24.768  0.00  0.00    +0.000 A 
ENDBRANCH  23  26
ENDBRANCH  22  23
ENDBRANCH  14   4
BRANCH  10   1
ATOM      1  O   UNL     1      -3.516   2.104  23.934  0.00  0.00    -0.391 OA
ATOM     38  H   UNL     1      -4.474   2.270  23.976  0.00  0.00    +0.210 HD
ENDBRANCH  10   1
BRANCH  12  18
ATOM     18  C   UNL     1      -5.391   1.653  26.151  0.00  0.00    +0.078 C 
ATOM     20  C   UNL     1      -6.724   1.028  26.563  0.00  0.00    +0.017 C 
BRANCH  18  21
ATOM      2  O   UNL     1      -6.399   2.697  24.247  0.00  0.00    -0.275 OA
ATOM      5  N   UNL     1      -4.873   3.993  25.406  0.00  0.00    -0.300 N 
ATOM     21  C   UNL     1      -5.607   2.823  25.187  0.00  0.00    +0.219 C 
ATOM     25  C   UNL     1      -5.039   5.119  24.492  0.00  0.00    +0.132 C 
BRANCH   5  24
ATOM     24  C   UNL     1      -3.946   4.236  26.510  0.00  0.00    +0.144 C 
BRANCH  24  27
ATOM      6  N   UNL     1      -0.389   2.986  26.219  0.00  0.00    -0.263 NA
ATOM     27  C   UNL     1      -2.513   4.131  26.074  0.00  0.00    -0.012 A 
ATOM     30  C   UNL     1      -1.973   5.032  25.163  0.00  0.00    +0.008 A 
ATOM     31  C   UNL     1      -1.687   3.135  26.568  0.00  0.00    +0.115 A 
ATOM     35  C   UNL     1      -0.642   4.911  24.779  0.00  0.00    +0.020 A 
ATOM     36  C   UNL     1       0.100   3.880  25.331  0.00  0.00    +0.111 A 
ENDBRANCH  24  27
ENDBRANCH   5  24
ENDBRANCH  18  21
ENDBRANCH  12  18
TORSDOF 8
ENDMDL
