MODEL 1
REMARK VINA RESULT:      -1.4      0.000      0.000
REMARK  Name = 7672458
REMARK  4 active torsions:
REMARK  status: ('A' for Active; 'I' for Inactive)
REMARK    1  A    between atoms: N_6  and  C_20
REMARK    2  A    between atoms: C_17  and  C_19
REMARK    3  A    between atoms: C_20  and  C_22
REMARK    4  A    between atoms: C_20  and  C_23
REMARK                            x       y       z     vdW  Elec       q    Type
REMARK                         _______ _______ _______ _____ _____    ______ ____
ROOT
ATOM      2  O   UNL     1      14.066  -7.086  26.997  0.00  0.00    -0.267 OA
ATOM      3  O   UNL     1      15.211  -6.449  32.842  0.00  0.00    -0.253 OA
ATOM      4  N   UNL     1      14.241  -8.328  31.883  0.00  0.00    -0.285 N 
ATOM      5  N   UNL     1      14.882  -8.412  28.734  0.00  0.00    -0.311 N 
ATOM      6  N   UNL     1      12.982  -6.370  32.304  0.00  0.00    -0.297 N 
ATOM      7  C   UNL     1      13.370  -9.917  30.145  0.00  0.00    +0.027 C 
ATOM      8  C   UNL     1      15.777  -9.829  30.614  0.00  0.00    +0.054 C 
ATOM      9  C   UNL     1      14.615 -10.774  30.327  0.00  0.00    +0.018 C 
ATOM     10  C   UNL     1      13.074  -9.092  31.413  0.00  0.00    +0.114 C 
ATOM     11  C   UNL     1      13.560  -9.025  28.913  0.00  0.00    +0.130 C 
ATOM     12  C   UNL     1      15.504  -9.075  31.927  0.00  0.00    +0.119 C 
ATOM     13  C   UNL     1      15.981  -8.838  29.483  0.00  0.00    +0.027 A 
ATOM     14  C   UNL     1      17.205  -8.352  29.221  0.00  0.00    +0.022 A 
ATOM     15  C   UNL     1      15.004  -7.461  27.701  0.00  0.00    +0.260 A 
ATOM     16  C   UNL     1      14.214  -7.009  32.374  0.00  0.00    +0.302 C 
ATOM     17  C   UNL     1      16.382  -6.908  27.461  0.00  0.00    +0.053 A 
ATOM     18  C   UNL     1      17.405  -7.368  28.195  0.00  0.00    +0.016 A 
ATOM     30  H   UNL     1      12.142  -6.877  32.063  0.00  0.00    +0.150 HD
ENDROOT
BRANCH  17  19
ATOM      1  S   UNL     1      16.919  -6.384  24.850  0.00  0.00    -0.088 S 
ATOM     19  C   UNL     1      16.603  -5.912  26.461  0.00  0.00    +0.026 A 
ATOM     21  C   UNL     1      16.600  -4.538  26.594  0.00  0.00    +0.024 A 
ATOM     24  C   UNL     1      16.861  -3.851  25.362  0.00  0.00    -0.010 A 
ATOM     25  C   UNL     1      17.057  -4.753  24.311  0.00  0.00    +0.020 A 
ATOM     26  C   UNL     1      16.943  -2.466  25.080  0.00  0.00    +0.009 A 
ATOM     27  C   UNL     1      17.330  -4.309  23.003  0.00  0.00    +0.015 A 
ATOM     28  C   UNL     1      17.213  -2.023  23.782  0.00  0.00    +0.001 A 
ATOM     29  C   UNL     1      17.404  -2.937  22.756  0.00  0.00    +0.001 A 
ENDBRANCH  17  19
BRANCH   6  20
ATOM     20  C   UNL     1      12.790  -5.016  32.772  0.00  0.00    +0.068 C 
ATOM     22  C   UNL     1      11.340  -4.590  32.580  0.00  0.00    +0.027 C 
ATOM     23  C   UNL     1      13.744  -4.064  32.063  0.00  0.00    +0.027 C 
ENDBRANCH   6  20
TORSDOF 2
ENDMDL
