MODEL 1
REMARK VINA RESULT:      -6.4      0.000      0.000
REMARK  Name = 75536814
REMARK  7 active torsions:
REMARK  status: ('A' for Active; 'I' for Inactive)
REMARK    1  A    between atoms: O_2  and  C_8
REMARK    2  A    between atoms: N_4  and  C_16
REMARK    3  A    between atoms: N_5  and  C_10
REMARK    4  A    between atoms: N_5  and  C_18
REMARK    5  A    between atoms: C_7  and  C_16
REMARK    6  A    between atoms: C_9  and  C_17
REMARK    7  A    between atoms: C_18  and  C_19
REMARK                            x       y       z     vdW  Elec       q    Type
REMARK                         _______ _______ _______ _____ _____    ______ ____
ROOT
ATOM      1  O   UNL     1       0.310   2.718  23.465  0.00  0.00    -0.371 OA
ATOM      7  C   UNL     1       0.359   1.658  24.434  0.00  0.00    +0.165 C 
ATOM      8  C   UNL     1      -0.679   2.006  25.493  0.00  0.00    +0.164 C 
ATOM     10  C   UNL     1      -0.570   3.520  25.520  0.00  0.00    +0.111 C 
ATOM     15  C   UNL     1      -0.386   3.835  24.045  0.00  0.00    +0.181 C 
ENDROOT
BRANCH   8   2
ATOM      2  O   UNL     1      -0.378   1.415  26.741  0.00  0.00    -0.388 OA
ATOM     26  H   UNL     1      -0.507   2.083  27.435  0.00  0.00    +0.210 HD
ENDBRANCH   8   2
BRANCH  10   5
ATOM      5  N   UNL     1      -1.732   4.177  26.098  0.00  0.00    -0.305 NA
ATOM     25  H   UNL     1      -1.428   5.017  26.590  0.00  0.00    +0.123 HD
BRANCH   5  18
ATOM     18  C   UNL     1      -2.689   4.556  25.065  0.00  0.00    +0.116 C 
BRANCH  18  19
ATOM      6  N   UNL     1      -6.074   1.905  24.967  0.00  0.00    -0.263 NA
ATOM     19  C   UNL     1      -3.874   3.628  25.031  0.00  0.00    -0.031 A 
ATOM     20  C   UNL     1      -4.739   3.560  26.117  0.00  0.00    +0.024 A 
ATOM     21  C   UNL     1      -4.107   2.836  23.913  0.00  0.00    +0.024 A 
ATOM     22  C   UNL     1      -5.814   2.690  26.037  0.00  0.00    +0.111 A 
ATOM     23  C   UNL     1      -5.212   1.999  23.930  0.00  0.00    +0.111 A 
ENDBRANCH  18  19
ENDBRANCH   5  18
ENDBRANCH  10   5
BRANCH   7  16
ATOM     16  C   UNL     1       0.098   0.327  23.752  0.00  0.00    +0.138 C 
BRANCH  16   4
ATOM      3  O   UNL     1      -0.085  -2.016  25.457  0.00  0.00    -0.276 OA
ATOM      4  N   UNL     1      -1.094  -0.293  24.256  0.00  0.00    -0.313 N 
ATOM     17  C   UNL     1      -1.087  -1.420  25.072  0.00  0.00    +0.216 C 
ATOM     24  H   UNL     1      -1.983   0.125  23.998  0.00  0.00    +0.149 HD
BRANCH  17   9
ATOM      9  C   UNL     1      -2.465  -1.846  25.474  0.00  0.00    +0.075 C 
ATOM     11  C   UNL     1      -2.947  -2.998  24.585  0.00  0.00    +0.013 C 
ATOM     12  C   UNL     1      -3.464  -0.705  25.274  0.00  0.00    +0.013 C 
ATOM     13  C   UNL     1      -4.263  -2.529  23.973  0.00  0.00    +0.001 C 
ATOM     14  C   UNL     1      -4.143  -1.017  23.949  0.00  0.00    +0.001 C 
ENDBRANCH  17   9
ENDBRANCH  16   4
ENDBRANCH   7  16
TORSDOF 7
ENDMDL
MODEL 2
REMARK VINA RESULT:      -5.8      2.104      4.842
REMARK  Name = 75536814
REMARK  7 active torsions:
REMARK  status: ('A' for Active; 'I' for Inactive)
REMARK    1  A    between atoms: O_2  and  C_8
REMARK    2  A    between atoms: N_4  and  C_16
REMARK    3  A    between atoms: N_5  and  C_10
REMARK    4  A    between atoms: N_5  and  C_18
REMARK    5  A    between atoms: C_7  and  C_16
REMARK    6  A    between atoms: C_9  and  C_17
REMARK    7  A    between atoms: C_18  and  C_19
REMARK                            x       y       z     vdW  Elec       q    Type
REMARK                         _______ _______ _______ _____ _____    ______ ____
ROOT
ATOM      1  O   UNL     1      -4.008   3.777  25.760  0.00  0.00    -0.371 OA
ATOM      7  C   UNL     1      -4.251   3.046  24.548  0.00  0.00    +0.165 C 
ATOM      8  C   UNL     1      -2.890   2.553  24.073  0.00  0.00    +0.164 C 
ATOM     10  C   UNL     1      -1.999   3.706  24.496  0.00  0.00    +0.111 C 
ATOM     15  C   UNL     1      -2.603   4.077  25.840  0.00  0.00    +0.181 C 
ENDROOT
BRANCH   8   2
ATOM      2  O   UNL     1      -2.868   2.329  22.677  0.00  0.00    -0.388 OA
ATOM     26  H   UNL     1      -2.257   1.596  22.494  0.00  0.00    +0.210 HD
ENDBRANCH   8   2
BRANCH  10   5
ATOM      5  N   UNL     1      -0.591   3.351  24.587  0.00  0.00    -0.305 NA
ATOM     25  H   UNL     1      -0.150   3.920  25.309  0.00  0.00    +0.123 HD
BRANCH   5  18
ATOM     18  C   UNL     1      -0.427   1.944  24.933  0.00  0.00    +0.116 C 
BRANCH  18  19
ATOM      6  N   UNL     1       2.246  -0.069  22.230  0.00  0.00    -0.263 NA
ATOM     19  C   UNL     1       0.508   1.239  23.986  0.00  0.00    -0.031 A 
ATOM     20  C   UNL     1       0.057   0.163  23.230  0.00  0.00    +0.024 A 
ATOM     21  C   UNL     1       1.827   1.662  23.865  0.00  0.00    +0.024 A 
ATOM     22  C   UNL     1       0.956  -0.452  22.375  0.00  0.00    +0.111 A 
ATOM     23  C   UNL     1       2.648   0.981  22.979  0.00  0.00    +0.111 A 
ENDBRANCH  18  19
ENDBRANCH   5  18
ENDBRANCH  10   5
BRANCH   7  16
ATOM     16  C   UNL     1      -5.237   1.924  24.813  0.00  0.00    +0.138 C 
BRANCH  16   4
ATOM      3  O   UNL     1      -4.256  -0.468  23.492  0.00  0.00    -0.276 OA
ATOM      4  N   UNL     1      -4.592   0.794  25.421  0.00  0.00    -0.313 N 
ATOM     17  C   UNL     1      -4.153  -0.314  24.705  0.00  0.00    +0.216 C 
ATOM     24  H   UNL     1      -4.453   0.821  26.426  0.00  0.00    +0.149 HD
BRANCH  17   9
ATOM      9  C   UNL     1      -3.493  -1.337  25.579  0.00  0.00    +0.075 C 
ATOM     11  C   UNL     1      -2.066  -0.899  25.927  0.00  0.00    +0.013 C 
ATOM     12  C   UNL     1      -3.362  -2.671  24.843  0.00  0.00    +0.013 C 
ATOM     13  C   UNL     1      -1.158  -2.036  25.474  0.00  0.00    +0.001 C 
ATOM     14  C   UNL     1      -1.925  -2.695  24.343  0.00  0.00    +0.001 C 
ENDBRANCH  17   9
ENDBRANCH  16   4
ENDBRANCH   7  16
TORSDOF 7
ENDMDL
MODEL 3
REMARK VINA RESULT:      -5.4      1.755      4.804
REMARK  Name = 75536814
REMARK  7 active torsions:
REMARK  status: ('A' for Active; 'I' for Inactive)
REMARK    1  A    between atoms: O_2  and  C_8
REMARK    2  A    between atoms: N_4  and  C_16
REMARK    3  A    between atoms: N_5  and  C_10
REMARK    4  A    between atoms: N_5  and  C_18
REMARK    5  A    between atoms: C_7  and  C_16
REMARK    6  A    between atoms: C_9  and  C_17
REMARK    7  A    between atoms: C_18  and  C_19
REMARK                            x       y       z     vdW  Elec       q    Type
REMARK                         _______ _______ _______ _____ _____    ______ ____
ROOT
ATOM      1  O   UNL     1      -0.418   3.084  26.374  0.00  0.00    -0.371 OA
ATOM      7  C   UNL     1      -0.353   3.948  25.228  0.00  0.00    +0.165 C 
ATOM      8  C   UNL     1      -0.512   3.047  24.011  0.00  0.00    +0.164 C 
ATOM     10  C   UNL     1       0.205   1.795  24.480  0.00  0.00    +0.111 C 
ATOM     15  C   UNL     1      -0.225   1.728  25.936  0.00  0.00    +0.181 C 
ENDROOT
BRANCH   8   2
ATOM      2  O   UNL     1       0.075   3.612  22.856  0.00  0.00    -0.388 OA
ATOM     26  H   UNL     1       0.854   3.083  22.618  0.00  0.00    +0.210 HD
ENDBRANCH   8   2
BRANCH  10   5
ATOM      5  N   UNL     1      -0.153   0.602  23.728  0.00  0.00    -0.305 NA
ATOM     25  H   UNL     1       0.455   0.527  22.913  0.00  0.00    +0.123 HD
BRANCH   5  18
ATOM     18  C   UNL     1       0.002  -0.598  24.542  0.00  0.00    +0.116 C 
BRANCH  18  19
ATOM      6  N   UNL     1      -3.768  -2.534  25.278  0.00  0.00    -0.263 NA
ATOM     19  C   UNL     1      -1.318  -1.275  24.800  0.00  0.00    -0.031 A 
ATOM     20  C   UNL     1      -2.177  -0.783  25.776  0.00  0.00    +0.024 A 
ATOM     21  C   UNL     1      -1.682  -2.395  24.062  0.00  0.00    +0.024 A 
ATOM     22  C   UNL     1      -3.379  -1.442  25.976  0.00  0.00    +0.111 A 
ATOM     23  C   UNL     1      -2.908  -2.983  24.337  0.00  0.00    +0.111 A 
ENDBRANCH  18  19
ENDBRANCH   5  18
ENDBRANCH  10   5
BRANCH   7  16
ATOM     16  C   UNL     1      -1.426   5.017  25.329  0.00  0.00    +0.138 C 
BRANCH  16   4
ATOM      3  O   UNL     1      -3.486   3.862  27.018  0.00  0.00    -0.276 OA
ATOM      4  N   UNL     1      -2.706   4.512  24.922  0.00  0.00    -0.313 N 
ATOM     17  C   UNL     1      -3.635   3.974  25.805  0.00  0.00    +0.216 C 
ATOM     24  H   UNL     1      -2.933   4.560  23.933  0.00  0.00    +0.149 HD
BRANCH  17   9
ATOM      9  C   UNL     1      -4.896   3.545  25.121  0.00  0.00    +0.075 C 
ATOM     11  C   UNL     1      -5.781   2.747  26.086  0.00  0.00    +0.013 C 
ATOM     12  C   UNL     1      -4.586   2.608  23.953  0.00  0.00    +0.013 C 
ATOM     13  C   UNL     1      -6.039   1.408  25.404  0.00  0.00    +0.001 C 
ATOM     14  C   UNL     1      -4.834   1.211  24.504  0.00  0.00    +0.001 C 
ENDBRANCH  17   9
ENDBRANCH  16   4
ENDBRANCH   7  16
TORSDOF 7
ENDMDL
MODEL 4
REMARK VINA RESULT:      -5.3      2.962      6.754
REMARK  Name = 75536814
REMARK  7 active torsions:
REMARK  status: ('A' for Active; 'I' for Inactive)
REMARK    1  A    between atoms: O_2  and  C_8
REMARK    2  A    between atoms: N_4  and  C_16
REMARK    3  A    between atoms: N_5  and  C_10
REMARK    4  A    between atoms: N_5  and  C_18
REMARK    5  A    between atoms: C_7  and  C_16
REMARK    6  A    between atoms: C_9  and  C_17
REMARK    7  A    between atoms: C_18  and  C_19
REMARK                            x       y       z     vdW  Elec       q    Type
REMARK                         _______ _______ _______ _____ _____    ______ ____
ROOT
ATOM      1  O   UNL     1      -1.888  -1.974  24.262  0.00  0.00    -0.371 OA
ATOM      7  C   UNL     1      -2.115  -1.032  25.323  0.00  0.00    +0.165 C 
ATOM      8  C   UNL     1      -1.259   0.185  24.996  0.00  0.00    +0.164 C 
ATOM     10  C   UNL     1      -0.050  -0.473  24.355  0.00  0.00    +0.111 C 
ATOM     15  C   UNL     1      -0.703  -1.582  23.547  0.00  0.00    +0.181 C 
ENDROOT
BRANCH   8   2
ATOM      2  O   UNL     1      -0.928   0.924  26.154  0.00  0.00    -0.388 OA
ATOM     26  H   UNL     1       0.032   0.860  26.295  0.00  0.00    +0.210 HD
ENDBRANCH   8   2
BRANCH  10   5
ATOM      5  N   UNL     1       0.741   0.433  23.538  0.00  0.00    -0.305 NA
ATOM     25  H   UNL     1       1.333   0.999  24.146  0.00  0.00    +0.123 HD
BRANCH   5  18
ATOM     18  C   UNL     1       1.589  -0.304  22.608  0.00  0.00    +0.116 C 
BRANCH  18  19
ATOM      6  N   UNL     1       5.721  -0.220  23.799  0.00  0.00    -0.263 NA
ATOM     19  C   UNL     1       3.035  -0.275  23.025  0.00  0.00    -0.031 A 
ATOM     20  C   UNL     1       3.613  -1.390  23.621  0.00  0.00    +0.024 A 
ATOM     21  C   UNL     1       3.799   0.868  22.815  0.00  0.00    +0.024 A 
ATOM     22  C   UNL     1       4.947  -1.313  23.987  0.00  0.00    +0.111 A 
ATOM     23  C   UNL     1       5.126   0.844  23.216  0.00  0.00    +0.111 A 
ENDBRANCH  18  19
ENDBRANCH   5  18
ENDBRANCH  10   5
BRANCH   7  16
ATOM     16  C   UNL     1      -3.596  -0.716  25.421  0.00  0.00    +0.138 C 
BRANCH  16   4
ATOM      3  O   UNL     1      -5.891   0.934  26.086  0.00  0.00    -0.276 OA
ATOM      4  N   UNL     1      -3.878   0.613  24.957  0.00  0.00    -0.313 N 
ATOM     17  C   UNL     1      -5.009   1.332  25.330  0.00  0.00    +0.216 C 
ATOM     24  H   UNL     1      -3.207   1.039  24.325  0.00  0.00    +0.149 HD
BRANCH  17   9
ATOM      9  C   UNL     1      -5.046   2.700  24.722  0.00  0.00    +0.075 C 
ATOM     11  C   UNL     1      -3.845   2.901  23.790  0.00  0.00    +0.013 C 
ATOM     12  C   UNL     1      -4.931   3.775  25.803  0.00  0.00    +0.013 C 
ATOM     13  C   UNL     1      -3.127   4.146  24.298  0.00  0.00    +0.001 C 
ATOM     14  C   UNL     1      -3.469   4.194  25.776  0.00  0.00    +0.001 C 
ENDBRANCH  17   9
ENDBRANCH  16   4
ENDBRANCH   7  16
TORSDOF 7
ENDMDL
MODEL 5
REMARK VINA RESULT:      -4.9      1.893      4.719
REMARK  Name = 75536814
REMARK  7 active torsions:
REMARK  status: ('A' for Active; 'I' for Inactive)
REMARK    1  A    between atoms: O_2  and  C_8
REMARK    2  A    between atoms: N_4  and  C_16
REMARK    3  A    between atoms: N_5  and  C_10
REMARK    4  A    between atoms: N_5  and  C_18
REMARK    5  A    between atoms: C_7  and  C_16
REMARK    6  A    between atoms: C_9  and  C_17
REMARK    7  A    between atoms: C_18  and  C_19
REMARK                            x       y       z     vdW  Elec       q    Type
REMARK                         _______ _______ _______ _____ _____    ______ ____
ROOT
ATOM      1  O   UNL     1      -3.207   3.810  23.530  0.00  0.00    -0.371 OA
ATOM      7  C   UNL     1      -3.384   4.308  24.866  0.00  0.00    +0.165 C 
ATOM      8  C   UNL     1      -4.174   3.241  25.612  0.00  0.00    +0.164 C 
ATOM     10  C   UNL     1      -5.077   2.722  24.509  0.00  0.00    +0.111 C 
ATOM     15  C   UNL     1      -4.133   2.730  23.318  0.00  0.00    +0.181 C 
ENDROOT
BRANCH   8   2
ATOM      2  O   UNL     1      -4.896   3.784  26.700  0.00  0.00    -0.388 OA
ATOM     26  H   UNL     1      -4.319   3.783  27.482  0.00  0.00    +0.210 HD
ENDBRANCH   8   2
BRANCH  10   5
ATOM      5  N   UNL     1      -5.632   1.406  24.782  0.00  0.00    -0.305 NA
ATOM     25  H   UNL     1      -5.625   0.856  23.923  0.00  0.00    +0.123 HD
BRANCH   5  18
ATOM     18  C   UNL     1      -4.850   0.706  25.794  0.00  0.00    +0.116 C 
BRANCH  18  19
ATOM      6  N   UNL     1      -3.233  -2.989  24.300  0.00  0.00    -0.263 NA
ATOM     19  C   UNL     1      -4.284  -0.587  25.271  0.00  0.00    -0.031 A 
ATOM     20  C   UNL     1      -3.490  -1.384  26.090  0.00  0.00    +0.024 A 
ATOM     21  C   UNL     1      -4.553  -0.990  23.968  0.00  0.00    +0.024 A 
ATOM     22  C   UNL     1      -2.993  -2.564  25.561  0.00  0.00    +0.111 A 
ATOM     23  C   UNL     1      -4.009  -2.189  23.535  0.00  0.00    +0.111 A 
ENDBRANCH  18  19
ENDBRANCH   5  18
ENDBRANCH  10   5
BRANCH   7  16
ATOM     16  C   UNL     1      -2.031   4.600  25.488  0.00  0.00    +0.138 C 
BRANCH  16   4
ATOM      3  O   UNL     1      -0.040   3.700  23.576  0.00  0.00    -0.276 OA
ATOM      4  N   UNL     1      -1.224   3.416  25.563  0.00  0.00    -0.313 N 
ATOM     17  C   UNL     1      -0.289   3.062  24.595  0.00  0.00    +0.216 C 
ATOM     24  H   UNL     1      -1.349   2.815  26.372  0.00  0.00    +0.149 HD
BRANCH  17   9
ATOM      9  C   UNL     1       0.432   1.793  24.930  0.00  0.00    +0.075 C 
ATOM     11  C   UNL     1       1.162   1.254  23.694  0.00  0.00    +0.013 C 
ATOM     12  C   UNL     1      -0.556   0.704  25.350  0.00  0.00    +0.013 C 
ATOM     13  C   UNL     1       0.649  -0.168  23.494  0.00  0.00    +0.001 C 
ATOM     14  C   UNL     1      -0.740  -0.150  24.105  0.00  0.00    +0.001 C 
ENDBRANCH  17   9
ENDBRANCH  16   4
ENDBRANCH   7  16
TORSDOF 7
ENDMDL
MODEL 6
REMARK VINA RESULT:      -4.9      2.919      6.048
REMARK  Name = 75536814
REMARK  7 active torsions:
REMARK  status: ('A' for Active; 'I' for Inactive)
REMARK    1  A    between atoms: O_2  and  C_8
REMARK    2  A    between atoms: N_4  and  C_16
REMARK    3  A    between atoms: N_5  and  C_10
REMARK    4  A    between atoms: N_5  and  C_18
REMARK    5  A    between atoms: C_7  and  C_16
REMARK    6  A    between atoms: C_9  and  C_17
REMARK    7  A    between atoms: C_18  and  C_19
REMARK                            x       y       z     vdW  Elec       q    Type
REMARK                         _______ _______ _______ _____ _____    ______ ____
ROOT
ATOM      1  O   UNL     1      -0.873   2.876  25.703  0.00  0.00    -0.371 OA
ATOM      7  C   UNL     1      -1.643   2.927  24.491  0.00  0.00    +0.165 C 
ATOM      8  C   UNL     1      -1.255   1.688  23.693  0.00  0.00    +0.164 C 
ATOM     10  C   UNL     1       0.213   1.558  24.054  0.00  0.00    +0.111 C 
ATOM     15  C   UNL     1       0.197   1.931  25.526  0.00  0.00    +0.181 C 
ENDROOT
BRANCH   8   2
ATOM      2  O   UNL     1      -1.464   1.867  22.307  0.00  0.00    -0.388 OA
ATOM     26  H   UNL     1      -2.221   2.464  22.185  0.00  0.00    +0.210 HD
ENDBRANCH   8   2
BRANCH  10   5
ATOM      5  N   UNL     1       0.756   0.230  23.812  0.00  0.00    -0.305 NA
ATOM     25  H   UNL     1      -0.013  -0.416  23.631  0.00  0.00    +0.123 HD
BRANCH   5  18
ATOM     18  C   UNL     1       1.650   0.230  22.660  0.00  0.00    +0.116 C 
BRANCH  18  19
ATOM      6  N   UNL     1       5.738  -0.463  23.805  0.00  0.00    -0.263 NA
ATOM     19  C   UNL     1       3.081  -0.012  23.061  0.00  0.00    -0.031 A 
ATOM     20  C   UNL     1       3.466  -1.253  23.558  0.00  0.00    +0.024 A 
ATOM     21  C   UNL     1       4.022   1.002  22.935  0.00  0.00    +0.024 A 
ATOM     22  C   UNL     1       4.793  -1.426  23.914  0.00  0.00    +0.111 A 
ATOM     23  C   UNL     1       5.326   0.728  23.317  0.00  0.00    +0.111 A 
ENDBRANCH  18  19
ENDBRANCH   5  18
ENDBRANCH  10   5
BRANCH   7  16
ATOM     16  C   UNL     1      -3.122   2.989  24.824  0.00  0.00    +0.138 C 
BRANCH  16   4
ATOM      3  O   UNL     1      -3.842   0.810  23.045  0.00  0.00    -0.276 OA
ATOM      4  N   UNL     1      -3.630   1.697  25.189  0.00  0.00    -0.313 N 
ATOM     17  C   UNL     1      -3.950   0.709  24.264  0.00  0.00    +0.216 C 
ATOM     24  H   UNL     1      -3.754   1.507  26.178  0.00  0.00    +0.149 HD
BRANCH  17   9
ATOM      9  C   UNL     1      -4.435  -0.551  24.913  0.00  0.00    +0.075 C 
ATOM     11  C   UNL     1      -3.474  -0.979  26.029  0.00  0.00    +0.013 C 
ATOM     12  C   UNL     1      -4.460  -1.702  23.907  0.00  0.00    +0.013 C 
ATOM     13  C   UNL     1      -3.049  -2.403  25.689  0.00  0.00    +0.001 C 
ATOM     14  C   UNL     1      -3.181  -2.479  24.179  0.00  0.00    +0.001 C 
ENDBRANCH  17   9
ENDBRANCH  16   4
ENDBRANCH   7  16
TORSDOF 7
ENDMDL
MODEL 7
REMARK VINA RESULT:      -3.8      1.848      4.219
REMARK  Name = 75536814
REMARK  7 active torsions:
REMARK  status: ('A' for Active; 'I' for Inactive)
REMARK    1  A    between atoms: O_2  and  C_8
REMARK    2  A    between atoms: N_4  and  C_16
REMARK    3  A    between atoms: N_5  and  C_10
REMARK    4  A    between atoms: N_5  and  C_18
REMARK    5  A    between atoms: C_7  and  C_16
REMARK    6  A    between atoms: C_9  and  C_17
REMARK    7  A    between atoms: C_18  and  C_19
REMARK                            x       y       z     vdW  Elec       q    Type
REMARK                         _______ _______ _______ _____ _____    ______ ____
ROOT
ATOM      1  O   UNL     1      -4.750   3.511  26.501  0.00  0.00    -0.371 OA
ATOM      7  C   UNL     1      -4.982   3.244  25.109  0.00  0.00    +0.165 C 
ATOM      8  C   UNL     1      -3.606   3.164  24.460  0.00  0.00    +0.164 C 
ATOM     10  C   UNL     1      -2.845   4.202  25.264  0.00  0.00    +0.111 C 
ATOM     15  C   UNL     1      -3.394   3.965  26.661  0.00  0.00    +0.181 C 
ENDROOT
BRANCH   8   2
ATOM      2  O   UNL     1      -3.655   3.470  23.081  0.00  0.00    -0.388 OA
ATOM     26  H   UNL     1      -3.073   4.231  22.915  0.00  0.00    +0.210 HD
ENDBRANCH   8   2
BRANCH  10   5
ATOM      5  N   UNL     1      -1.400   4.050  25.191  0.00  0.00    -0.305 NA
ATOM     25  H   UNL     1      -1.078   3.525  26.005  0.00  0.00    +0.123 HD
BRANCH   5  18
ATOM     18  C   UNL     1      -1.009   3.330  23.984  0.00  0.00    +0.116 C 
BRANCH  18  19
ATOM      6  N   UNL     1      -0.003  -0.768  24.817  0.00  0.00    -0.263 NA
ATOM     19  C   UNL     1      -0.657   1.896  24.275  0.00  0.00    -0.031 A 
ATOM     20  C   UNL     1      -0.898   1.360  25.536  0.00  0.00    +0.024 A 
ATOM     21  C   UNL     1      -0.090   1.102  23.286  0.00  0.00    +0.024 A 
ATOM     22  C   UNL     1      -0.555   0.036  25.755  0.00  0.00    +0.111 A 
ATOM     23  C   UNL     1       0.215  -0.213  23.604  0.00  0.00    +0.111 A 
ENDBRANCH  18  19
ENDBRANCH   5  18
ENDBRANCH  10   5
BRANCH   7  16
ATOM     16  C   UNL     1      -5.792   1.970  24.958  0.00  0.00    +0.138 C 
BRANCH  16   4
ATOM      3  O   UNL     1      -4.239  -0.129  26.228  0.00  0.00    -0.276 OA
ATOM      4  N   UNL     1      -5.029   0.939  24.314  0.00  0.00    -0.313 N 
ATOM     17  C   UNL     1      -4.312  -0.031  25.006  0.00  0.00    +0.216 C 
ATOM     24  H   UNL     1      -5.025   0.927  23.299  0.00  0.00    +0.149 HD
BRANCH  17   9
ATOM      9  C   UNL     1      -3.626  -0.999  24.092  0.00  0.00    +0.075 C 
ATOM     11  C   UNL     1      -4.652  -1.936  23.443  0.00  0.00    +0.013 C 
ATOM     12  C   UNL     1      -2.666  -1.895  24.876  0.00  0.00    +0.013 C 
ATOM     13  C   UNL     1      -4.199  -3.351  23.787  0.00  0.00    +0.001 C 
ATOM     14  C   UNL     1      -3.435  -3.191  25.088  0.00  0.00    +0.001 C 
ENDBRANCH  17   9
ENDBRANCH  16   4
ENDBRANCH   7  16
TORSDOF 7
ENDMDL
MODEL 8
REMARK VINA RESULT:      -3.6      2.535      6.304
REMARK  Name = 75536814
REMARK  7 active torsions:
REMARK  status: ('A' for Active; 'I' for Inactive)
REMARK    1  A    between atoms: O_2  and  C_8
REMARK    2  A    between atoms: N_4  and  C_16
REMARK    3  A    between atoms: N_5  and  C_10
REMARK    4  A    between atoms: N_5  and  C_18
REMARK    5  A    between atoms: C_7  and  C_16
REMARK    6  A    between atoms: C_9  and  C_17
REMARK    7  A    between atoms: C_18  and  C_19
REMARK                            x       y       z     vdW  Elec       q    Type
REMARK                         _______ _______ _______ _____ _____    ______ ____
ROOT
ATOM      1  O   UNL     1      -0.577   2.832  26.462  0.00  0.00    -0.371 OA
ATOM      7  C   UNL     1      -0.298   3.678  25.335  0.00  0.00    +0.165 C 
ATOM      8  C   UNL     1      -0.210   2.755  24.127  0.00  0.00    +0.164 C 
ATOM     10  C   UNL     1       0.414   1.520  24.749  0.00  0.00    +0.111 C 
ATOM     15  C   UNL     1      -0.290   1.471  26.095  0.00  0.00    +0.181 C 
ENDROOT
BRANCH   8   2
ATOM      2  O   UNL     1       0.585   3.309  23.097  0.00  0.00    -0.388 OA
ATOM     26  H   UNL     1       1.203   2.626  22.787  0.00  0.00    +0.210 HD
ENDBRANCH   8   2
BRANCH  10   5
ATOM      5  N   UNL     1       0.219   0.311  23.965  0.00  0.00    -0.305 NA
ATOM     25  H   UNL     1      -0.766   0.236  23.708  0.00  0.00    +0.123 HD
BRANCH   5  18
ATOM     18  C   UNL     1       1.020   0.341  22.747  0.00  0.00    +0.116 C 
BRANCH  18  19
ATOM      6  N   UNL     1       5.181  -0.396  23.549  0.00  0.00    -0.263 NA
ATOM     19  C   UNL     1       2.477   0.083  23.028  0.00  0.00    -0.031 A 
ATOM     20  C   UNL     1       2.884  -1.150  23.524  0.00  0.00    +0.024 A 
ATOM     21  C   UNL     1       3.419   1.077  22.792  0.00  0.00    +0.024 A 
ATOM     22  C   UNL     1       4.235  -1.338  23.767  0.00  0.00    +0.111 A 
ATOM     23  C   UNL     1       4.748   0.790  23.066  0.00  0.00    +0.111 A 
ENDBRANCH  18  19
ENDBRANCH   5  18
ENDBRANCH  10   5
BRANCH   7  16
ATOM     16  C   UNL     1      -1.380   4.735  25.206  0.00  0.00    +0.138 C 
BRANCH  16   4
ATOM      3  O   UNL     1      -3.641   3.983  26.865  0.00  0.00    -0.276 OA
ATOM      4  N   UNL     1      -2.623   4.161  24.777  0.00  0.00    -0.313 N 
ATOM     17  C   UNL     1      -3.657   3.830  25.646  0.00  0.00    +0.216 C 
ATOM     24  H   UNL     1      -2.741   3.995  23.782  0.00  0.00    +0.149 HD
BRANCH  17   9
ATOM      9  C   UNL     1      -4.849   3.270  24.934  0.00  0.00    +0.075 C 
ATOM     11  C   UNL     1      -5.833   2.662  25.941  0.00  0.00    +0.013 C 
ATOM     12  C   UNL     1      -4.436   2.132  24.001  0.00  0.00    +0.013 C 
ATOM     13  C   UNL     1      -6.038   1.216  25.502  0.00  0.00    +0.001 C 
ATOM     14  C   UNL     1      -4.752   0.863  24.778  0.00  0.00    +0.001 C 
ENDBRANCH  17   9
ENDBRANCH  16   4
ENDBRANCH   7  16
TORSDOF 7
ENDMDL
MODEL 9
REMARK VINA RESULT:      -3.1      2.990      5.328
REMARK  Name = 75536814
REMARK  7 active torsions:
REMARK  status: ('A' for Active; 'I' for Inactive)
REMARK    1  A    between atoms: O_2  and  C_8
REMARK    2  A    between atoms: N_4  and  C_16
REMARK    3  A    between atoms: N_5  and  C_10
REMARK    4  A    between atoms: N_5  and  C_18
REMARK    5  A    between atoms: C_7  and  C_16
REMARK    6  A    between atoms: C_9  and  C_17
REMARK    7  A    between atoms: C_18  and  C_19
REMARK                            x       y       z     vdW  Elec       q    Type
REMARK                         _______ _______ _______ _____ _____    ______ ____
ROOT
ATOM      1  O   UNL     1      -1.374   1.741  22.670  0.00  0.00    -0.371 OA
ATOM      7  C   UNL     1      -0.424   1.511  23.723  0.00  0.00    +0.165 C 
ATOM      8  C   UNL     1      -1.242   1.295  24.989  0.00  0.00    +0.164 C 
ATOM     10  C   UNL     1      -2.404   2.241  24.750  0.00  0.00    +0.111 C 
ATOM     15  C   UNL     1      -2.648   2.050  23.262  0.00  0.00    +0.181 C 
ENDROOT
BRANCH   8   2
ATOM      2  O   UNL     1      -0.507   1.615  26.153  0.00  0.00    -0.388 OA
ATOM     26  H   UNL     1       0.420   1.358  26.011  0.00  0.00    +0.210 HD
ENDBRANCH   8   2
BRANCH  10   5
ATOM      5  N   UNL     1      -3.575   1.940  25.559  0.00  0.00    -0.305 NA
ATOM     25  H   UNL     1      -4.029   2.814  25.826  0.00  0.00    +0.123 HD
BRANCH   5  18
ATOM     18  C   UNL     1      -4.529   1.123  24.817  0.00  0.00    +0.116 C 
BRANCH  18  19
ATOM      6  N   UNL     1      -3.448  -3.039  24.861  0.00  0.00    -0.263 NA
ATOM     19  C   UNL     1      -4.150  -0.334  24.833  0.00  0.00    -0.031 A 
ATOM     20  C   UNL     1      -3.544  -0.886  25.956  0.00  0.00    +0.024 A 
ATOM     21  C   UNL     1      -4.406  -1.133  23.724  0.00  0.00    +0.024 A 
ATOM     22  C   UNL     1      -3.214  -2.231  25.920  0.00  0.00    +0.111 A 
ATOM     23  C   UNL     1      -4.040  -2.468  23.788  0.00  0.00    +0.111 A 
ENDBRANCH  18  19
ENDBRANCH   5  18
ENDBRANCH  10   5
BRANCH   7  16
ATOM     16  C   UNL     1       0.460   0.329  23.369  0.00  0.00    +0.138 C 
BRANCH  16   4
ATOM      3  O   UNL     1       2.538  -0.169  21.403  0.00  0.00    -0.276 OA
ATOM      4  N   UNL     1       1.851   0.668  23.466  0.00  0.00    -0.313 N 
ATOM     17  C   UNL     1       2.780   0.390  22.469  0.00  0.00    +0.216 C 
ATOM     24  H   UNL     1       2.158   1.140  24.311  0.00  0.00    +0.149 HD
BRANCH  17   9
ATOM      9  C   UNL     1       4.155   0.872  22.815  0.00  0.00    +0.075 C 
ATOM     11  C   UNL     1       5.209   0.078  22.034  0.00  0.00    +0.013 C 
ATOM     12  C   UNL     1       4.454   0.636  24.296  0.00  0.00    +0.013 C 
ATOM     13  C   UNL     1       6.147  -0.512  23.082  0.00  0.00    +0.001 C 
ATOM     14  C   UNL     1       5.283  -0.639  24.323  0.00  0.00    +0.001 C 
ENDBRANCH  17   9
ENDBRANCH  16   4
ENDBRANCH   7  16
TORSDOF 7
ENDMDL
MODEL 10
REMARK VINA RESULT:      -2.6      2.738      4.889
REMARK  Name = 75536814
REMARK  7 active torsions:
REMARK  status: ('A' for Active; 'I' for Inactive)
REMARK    1  A    between atoms: O_2  and  C_8
REMARK    2  A    between atoms: N_4  and  C_16
REMARK    3  A    between atoms: N_5  and  C_10
REMARK    4  A    between atoms: N_5  and  C_18
REMARK    5  A    between atoms: C_7  and  C_16
REMARK    6  A    between atoms: C_9  and  C_17
REMARK    7  A    between atoms: C_18  and  C_19
REMARK                            x       y       z     vdW  Elec       q    Type
REMARK                         _______ _______ _______ _____ _____    ______ ____
ROOT
ATOM      1  O   UNL     1      -3.873   4.086  25.746  0.00  0.00    -0.371 OA
ATOM      7  C   UNL     1      -3.813   3.206  24.612  0.00  0.00    +0.165 C 
ATOM      8  C   UNL     1      -2.386   2.676  24.565  0.00  0.00    +0.164 C 
ATOM     10  C   UNL     1      -1.610   3.885  25.055  0.00  0.00    +0.111 C 
ATOM     15  C   UNL     1      -2.530   4.413  26.144  0.00  0.00    +0.181 C 
ENDROOT
BRANCH   8   2
ATOM      2  O   UNL     1      -2.013   2.280  23.261  0.00  0.00    -0.388 OA
ATOM     26  H   UNL     1      -2.787   1.879  22.829  0.00  0.00    +0.210 HD
ENDBRANCH   8   2
BRANCH  10   5
ATOM      5  N   UNL     1      -0.279   3.562  25.546  0.00  0.00    -0.305 NA
ATOM     25  H   UNL     1       0.079   4.353  26.081  0.00  0.00    +0.123 HD
BRANCH   5  18
ATOM     18  C   UNL     1      -0.309   2.387  26.408  0.00  0.00    +0.116 C 
BRANCH  18  19
ATOM      6  N   UNL     1       2.346   2.796  29.767  0.00  0.00    -0.263 NA
ATOM     19  C   UNL     1       0.621   2.530  27.583  0.00  0.00    -0.031 A 
ATOM     20  C   UNL     1       0.172   2.239  28.867  0.00  0.00    +0.024 A 
ATOM     21  C   UNL     1       1.930   2.953  27.390  0.00  0.00    +0.024 A 
ATOM     22  C   UNL     1       1.065   2.387  29.916  0.00  0.00    +0.111 A 
ATOM     23  C   UNL     1       2.746   3.069  28.505  0.00  0.00    +0.111 A 
ENDBRANCH  18  19
ENDBRANCH   5  18
ENDBRANCH  10   5
BRANCH   7  16
ATOM     16  C   UNL     1      -4.856   2.113  24.755  0.00  0.00    +0.138 C 
BRANCH  16   4
ATOM      3  O   UNL     1      -4.015  -0.305  23.384  0.00  0.00    -0.276 OA
ATOM      4  N   UNL     1      -4.295   0.929  25.341  0.00  0.00    -0.313 N 
ATOM     17  C   UNL     1      -3.918  -0.188  24.603  0.00  0.00    +0.216 C 
ATOM     24  H   UNL     1      -4.168   0.921  26.349  0.00  0.00    +0.149 HD
BRANCH  17   9
ATOM      9  C   UNL     1      -3.339  -1.273  25.458  0.00  0.00    +0.075 C 
ATOM     11  C   UNL     1      -1.913  -0.909  25.887  0.00  0.00    +0.013 C 
ATOM     12  C   UNL     1      -3.227  -2.579  24.670  0.00  0.00    +0.013 C 
ATOM     13  C   UNL     1      -1.031  -2.062  25.424  0.00  0.00    +0.001 C 
ATOM     14  C   UNL     1      -1.771  -2.640  24.232  0.00  0.00    +0.001 C 
ENDBRANCH  17   9
ENDBRANCH  16   4
ENDBRANCH   7  16
TORSDOF 7
ENDMDL
