MODEL 1
REMARK VINA RESULT:       6.1      0.000      0.000
REMARK  Name = 11883015
REMARK  15 active torsions:
REMARK  status: ('A' for Active; 'I' for Inactive)
REMARK    1  A    between atoms: O_2  and  C_15
REMARK    2  A    between atoms: O_3  and  C_20
REMARK    3  A    between atoms: O_6  and  C_29
REMARK    4  A    between atoms: O_6  and  C_33
REMARK    5  A    between atoms: N_8  and  C_26
REMARK    6  A    between atoms: C_10  and  C_18
REMARK    7  A    between atoms: C_12  and  C_20
REMARK    8  A    between atoms: C_12  and  C_21
REMARK    9  A    between atoms: C_13  and  C_23
REMARK   10  A    between atoms: C_23  and  C_24
REMARK   11  A    between atoms: C_26  and  C_29
REMARK   12  A    between atoms: C_27  and  C_28
REMARK   13  A    between atoms: C_28  and  C_30
REMARK   14  A    between atoms: C_28  and  C_31
REMARK   15  A    between atoms: C_28  and  C_32
REMARK                            x       y       z     vdW  Elec       q    Type
REMARK                         _______ _______ _______ _____ _____    ______ ____
ROOT
ATOM      1  S   UNL     1       0.609   2.148  25.698  0.00  0.00    -0.057 S 
ATOM      5  O   UNL     1       2.049  -0.051  21.873  0.00  0.00    -0.275 OA
ATOM      7  N   UNL     1      -0.124   1.213  23.400  0.00  0.00    -0.229 NA
ATOM      9  N   UNL     1       2.195   0.939  23.996  0.00  0.00    -0.264 N 
ATOM     10  C   UNL     1      -3.756   2.096  24.346  0.00  0.00    -0.019 C 
ATOM     11  C   UNL     1      -3.306   3.336  25.237  0.00  0.00    +0.011 C 
ATOM     12  C   UNL     1      -4.436   4.087  26.041  0.00  0.00    +0.021 C 
ATOM     13  C   UNL     1      -2.580   1.780  23.311  0.00  0.00    +0.054 C 
ATOM     14  C   UNL     1      -5.027   2.473  23.541  0.00  0.00    +0.010 C 
ATOM     15  C   UNL     1      -5.649   4.345  25.103  0.00  0.00    +0.123 C 
ATOM     16  C   UNL     1      -2.048   2.997  26.090  0.00  0.00    +0.049 C 
ATOM     17  C   UNL     1      -6.133   3.089  24.387  0.00  0.00    +0.032 C 
ATOM     18  C   UNL     1      -4.058   0.829  25.185  0.00  0.00    +0.012 C 
ATOM     19  C   UNL     1      -1.241   1.764  24.001  0.00  0.00    +0.058 A 
ATOM     21  C   UNL     1      -3.899   5.474  26.495  0.00  0.00    +0.016 C 
ATOM     22  C   UNL     1      -1.021   2.331  25.239  0.00  0.00    +0.015 A 
ATOM     25  C   UNL     1       0.906   1.352  24.205  0.00  0.00    +0.165 A 
ATOM     27  C   UNL     1       2.701   0.269  22.864  0.00  0.00    +0.224 C 
ATOM     37  H   UNL     1       2.831   1.152  24.758  0.00  0.00    +0.157 HD
ENDROOT
BRANCH  27  28
ATOM     28  C   UNL     1       4.214  -0.056  22.955  0.00  0.00    +0.039 C 
ATOM     30  C   UNL     1       4.422  -1.430  23.614  0.00  0.00    +0.020 C 
ATOM     31  C   UNL     1       4.846  -0.039  21.554  0.00  0.00    +0.020 C 
ATOM     32  C   UNL     1       4.916   1.008  23.818  0.00  0.00    +0.020 C 
ENDBRANCH  27  28
BRANCH  15   2
ATOM      2  O   UNL     1      -6.739   4.907  25.832  0.00  0.00    -0.391 OA
ATOM     34  H   UNL     1      -7.554   4.480  25.520  0.00  0.00    +0.210 HD
ENDBRANCH  15   2
BRANCH  12  20
ATOM     20  C   UNL     1      -4.884   3.372  27.335  0.00  0.00    +0.165 C 
BRANCH  20   3
ATOM      3  O   UNL     1      -6.028   2.605  27.030  0.00  0.00    -0.394 OA
ATOM     35  H   UNL     1      -6.256   2.097  27.827  0.00  0.00    +0.209 HD
ENDBRANCH  20   3
ENDBRANCH  12  20
BRANCH  13  23
ATOM     23  C   UNL     1      -2.794   0.514  22.469  0.00  0.00    +0.106 C 
BRANCH  23  24
ATOM      4  O   UNL     1      -3.944  -1.261  23.642  0.00  0.00    -0.276 OA
ATOM      8  N   UNL     1      -1.622  -1.170  23.694  0.00  0.00    -0.313 N 
ATOM     24  C   UNL     1      -2.884  -0.728  23.325  0.00  0.00    +0.214 C 
ATOM     36  H   UNL     1      -0.804  -0.662  23.370  0.00  0.00    +0.149 HD
BRANCH   8  26
ATOM     26  C   UNL     1      -1.404  -2.337  24.517  0.00  0.00    +0.132 C 
BRANCH  26  29
ATOM     29  C   UNL     1      -0.621  -1.995  25.771  0.00  0.00    +0.178 C 
BRANCH  29   6
ATOM      6  O   UNL     1      -1.315  -0.995  26.504  0.00  0.00    -0.381 OA
ATOM     33  C   UNL     1      -2.630  -1.416  26.843  0.00  0.00    +0.194 C 
ENDBRANCH  29   6
ENDBRANCH  26  29
ENDBRANCH   8  26
ENDBRANCH  23  24
ENDBRANCH  13  23
TORSDOF 9
ENDMDL
MODEL 2
REMARK VINA RESULT:       8.1      2.600      3.807
REMARK  Name = 11883015
REMARK  15 active torsions:
REMARK  status: ('A' for Active; 'I' for Inactive)
REMARK    1  A    between atoms: O_2  and  C_15
REMARK    2  A    between atoms: O_3  and  C_20
REMARK    3  A    between atoms: O_6  and  C_29
REMARK    4  A    between atoms: O_6  and  C_33
REMARK    5  A    between atoms: N_8  and  C_26
REMARK    6  A    between atoms: C_10  and  C_18
REMARK    7  A    between atoms: C_12  and  C_20
REMARK    8  A    between atoms: C_12  and  C_21
REMARK    9  A    between atoms: C_13  and  C_23
REMARK   10  A    between atoms: C_23  and  C_24
REMARK   11  A    between atoms: C_26  and  C_29
REMARK   12  A    between atoms: C_27  and  C_28
REMARK   13  A    between atoms: C_28  and  C_30
REMARK   14  A    between atoms: C_28  and  C_31
REMARK   15  A    between atoms: C_28  and  C_32
REMARK                            x       y       z     vdW  Elec       q    Type
REMARK                         _______ _______ _______ _____ _____    ______ ____
ROOT
ATOM      1  S   UNL     1      -0.885  -0.821  23.644  0.00  0.00    -0.057 S 
ATOM      5  O   UNL     1       2.886   1.883  23.603  0.00  0.00    -0.275 OA
ATOM      7  N   UNL     1       0.005   1.563  24.104  0.00  0.00    -0.229 NA
ATOM      9  N   UNL     1       1.607  -0.066  23.337  0.00  0.00    -0.264 N 
ATOM     10  C   UNL     1      -3.637   2.663  24.723  0.00  0.00    -0.019 C 
ATOM     11  C   UNL     1      -4.060   1.231  25.277  0.00  0.00    +0.011 C 
ATOM     12  C   UNL     1      -5.585   1.015  25.611  0.00  0.00    +0.021 C 
ATOM     13  C   UNL     1      -2.053   2.802  24.873  0.00  0.00    +0.054 C 
ATOM     14  C   UNL     1      -4.308   3.766  25.584  0.00  0.00    +0.010 C 
ATOM     15  C   UNL     1      -6.107   2.227  26.434  0.00  0.00    +0.123 C 
ATOM     16  C   UNL     1      -3.435   0.087  24.425  0.00  0.00    +0.049 C 
ATOM     17  C   UNL     1      -5.805   3.571  25.780  0.00  0.00    +0.032 C 
ATOM     18  C   UNL     1      -4.036   2.879  23.242  0.00  0.00    +0.012 C 
ATOM     19  C   UNL     1      -1.351   1.566  24.373  0.00  0.00    +0.058 A 
ATOM     21  C   UNL     1      -5.734  -0.249  26.506  0.00  0.00    +0.016 C 
ATOM     22  C   UNL     1      -1.987   0.354  24.196  0.00  0.00    +0.015 A 
ATOM     25  C   UNL     1       0.359   0.361  23.707  0.00  0.00    +0.165 A 
ATOM     27  C   UNL     1       2.791   0.696  23.301  0.00  0.00    +0.224 C 
ATOM     37  H   UNL     1       1.649  -1.043  23.064  0.00  0.00    +0.157 HD
ENDROOT
BRANCH  27  28
ATOM     28  C   UNL     1       4.033  -0.102  22.829  0.00  0.00    +0.039 C 
ATOM     30  C   UNL     1       3.946  -1.557  23.318  0.00  0.00    +0.020 C 
ATOM     31  C   UNL     1       4.139  -0.063  21.296  0.00  0.00    +0.020 C 
ATOM     32  C   UNL     1       5.306   0.533  23.420  0.00  0.00    +0.020 C 
ENDBRANCH  27  28
BRANCH  15   2
ATOM      2  O   UNL     1      -7.516   2.125  26.643  0.00  0.00    -0.391 OA
ATOM     34  H   UNL     1      -7.949   2.197  25.776  0.00  0.00    +0.210 HD
ENDBRANCH  15   2
BRANCH  12  20
ATOM     20  C   UNL     1      -6.482   0.758  24.379  0.00  0.00    +0.165 C 
BRANCH  20   3
ATOM      3  O   UNL     1      -7.443   1.788  24.324  0.00  0.00    -0.394 OA
ATOM     35  H   UNL     1      -7.620   2.069  25.238  0.00  0.00    +0.209 HD
ENDBRANCH  20   3
ENDBRANCH  12  20
BRANCH  13  23
ATOM     23  C   UNL     1      -1.462   4.075  24.250  0.00  0.00    +0.106 C 
BRANCH  23  24
ATOM      4  O   UNL     1       0.278   5.659  24.809  0.00  0.00    -0.276 OA
ATOM      8  N   UNL     1       0.152   3.642  25.957  0.00  0.00    -0.313 N 
ATOM     24  C   UNL     1      -0.256   4.572  25.012  0.00  0.00    +0.214 C 
ATOM     36  H   UNL     1      -0.365   2.773  26.054  0.00  0.00    +0.149 HD
BRANCH   8  26
ATOM     26  C   UNL     1       1.284   3.849  26.831  0.00  0.00    +0.132 C 
BRANCH  26  29
ATOM     29  C   UNL     1       1.558   2.627  27.688  0.00  0.00    +0.178 C 
BRANCH  29   6
ATOM      6  O   UNL     1       2.341   3.004  28.812  0.00  0.00    -0.381 OA
ATOM     33  C   UNL     1       1.890   2.364  29.999  0.00  0.00    +0.194 C 
ENDBRANCH  29   6
ENDBRANCH  26  29
ENDBRANCH   8  26
ENDBRANCH  23  24
ENDBRANCH  13  23
TORSDOF 9
ENDMDL
MODEL 3
REMARK VINA RESULT:       8.2      2.144      4.324
REMARK  Name = 11883015
REMARK  15 active torsions:
REMARK  status: ('A' for Active; 'I' for Inactive)
REMARK    1  A    between atoms: O_2  and  C_15
REMARK    2  A    between atoms: O_3  and  C_20
REMARK    3  A    between atoms: O_6  and  C_29
REMARK    4  A    between atoms: O_6  and  C_33
REMARK    5  A    between atoms: N_8  and  C_26
REMARK    6  A    between atoms: C_10  and  C_18
REMARK    7  A    between atoms: C_12  and  C_20
REMARK    8  A    between atoms: C_12  and  C_21
REMARK    9  A    between atoms: C_13  and  C_23
REMARK   10  A    between atoms: C_23  and  C_24
REMARK   11  A    between atoms: C_26  and  C_29
REMARK   12  A    between atoms: C_27  and  C_28
REMARK   13  A    between atoms: C_28  and  C_30
REMARK   14  A    between atoms: C_28  and  C_31
REMARK   15  A    between atoms: C_28  and  C_32
REMARK                            x       y       z     vdW  Elec       q    Type
REMARK                         _______ _______ _______ _____ _____    ______ ____
ROOT
ATOM      1  S   UNL     1       0.992  -1.627  24.056  0.00  0.00    -0.057 S 
ATOM      5  O   UNL     1       4.248   1.579  23.247  0.00  0.00    -0.275 OA
ATOM      7  N   UNL     1       1.417   0.893  23.654  0.00  0.00    -0.229 NA
ATOM      9  N   UNL     1       3.347  -0.551  23.644  0.00  0.00    -0.264 N 
ATOM     10  C   UNL     1      -2.405   1.396  23.598  0.00  0.00    -0.019 C 
ATOM     11  C   UNL     1      -2.658   0.197  24.615  0.00  0.00    +0.011 C 
ATOM     12  C   UNL     1      -4.158  -0.185  24.913  0.00  0.00    +0.021 C 
ATOM     13  C   UNL     1      -0.897   1.889  23.782  0.00  0.00    +0.054 C 
ATOM     14  C   UNL     1      -3.351   2.575  23.946  0.00  0.00    +0.010 C 
ATOM     15  C   UNL     1      -4.971   1.110  25.195  0.00  0.00    +0.123 C 
ATOM     16  C   UNL     1      -1.751  -1.026  24.288  0.00  0.00    +0.049 C 
ATOM     17  C   UNL     1      -4.809   2.169  24.109  0.00  0.00    +0.032 C 
ATOM     18  C   UNL     1      -2.639   0.992  22.121  0.00  0.00    +0.012 C 
ATOM     19  C   UNL     1       0.055   0.721  23.819  0.00  0.00    +0.058 A 
ATOM     21  C   UNL     1      -4.214  -1.055  26.201  0.00  0.00    +0.016 C 
ATOM     22  C   UNL     1      -0.348  -0.575  24.065  0.00  0.00    +0.015 A 
ATOM     25  C   UNL     1       2.009  -0.277  23.752  0.00  0.00    +0.165 A 
ATOM     27  C   UNL     1       4.387   0.368  23.401  0.00  0.00    +0.224 C 
ATOM     37  H   UNL     1       3.582  -1.533  23.755  0.00  0.00    +0.157 HD
ENDROOT
BRANCH  27  28
ATOM     28  C   UNL     1       5.792  -0.282  23.335  0.00  0.00    +0.039 C 
ATOM     30  C   UNL     1       6.146  -0.635  21.881  0.00  0.00    +0.020 C 
ATOM     31  C   UNL     1       6.847   0.671  23.921  0.00  0.00    +0.020 C 
ATOM     32  C   UNL     1       5.796  -1.580  24.164  0.00  0.00    +0.020 C 
ENDBRANCH  27  28
BRANCH  15   2
ATOM      2  O   UNL     1      -6.360   0.811  25.340  0.00  0.00    -0.391 OA
ATOM     34  H   UNL     1      -6.571   0.845  26.288  0.00  0.00    +0.210 HD
ENDBRANCH  15   2
BRANCH  12  20
ATOM     20  C   UNL     1      -4.835  -1.031  23.811  0.00  0.00    +0.165 C 
BRANCH  20   3
ATOM      3  O   UNL     1      -4.427  -2.370  23.984  0.00  0.00    -0.394 OA
ATOM     35  H   UNL     1      -5.051  -2.929  23.491  0.00  0.00    +0.209 HD
ENDBRANCH  20   3
ENDBRANCH  12  20
BRANCH  13  23
ATOM     23  C   UNL     1      -0.444   2.951  22.770  0.00  0.00    +0.106 C 
BRANCH  23  24
ATOM      4  O   UNL     1       0.256   5.261  22.926  0.00  0.00    -0.276 OA
ATOM      8  N   UNL     1      -1.244   4.409  24.485  0.00  0.00    -0.313 N 
ATOM     24  C   UNL     1      -0.417   4.336  23.374  0.00  0.00    +0.214 C 
ATOM     36  H   UNL     1      -1.768   3.586  24.769  0.00  0.00    +0.149 HD
BRANCH   8  26
ATOM     26  C   UNL     1      -1.412   5.613  25.266  0.00  0.00    +0.132 C 
BRANCH  26  29
ATOM     29  C   UNL     1      -2.710   5.592  26.050  0.00  0.00    +0.178 C 
BRANCH  29   6
ATOM      6  O   UNL     1      -2.935   4.284  26.557  0.00  0.00    -0.381 OA
ATOM     33  C   UNL     1      -4.313   4.058  26.826  0.00  0.00    +0.194 C 
ENDBRANCH  29   6
ENDBRANCH  26  29
ENDBRANCH   8  26
ENDBRANCH  23  24
ENDBRANCH  13  23
TORSDOF 9
ENDMDL
MODEL 4
REMARK VINA RESULT:       8.3      1.623      2.516
REMARK  Name = 11883015
REMARK  15 active torsions:
REMARK  status: ('A' for Active; 'I' for Inactive)
REMARK    1  A    between atoms: O_2  and  C_15
REMARK    2  A    between atoms: O_3  and  C_20
REMARK    3  A    between atoms: O_6  and  C_29
REMARK    4  A    between atoms: O_6  and  C_33
REMARK    5  A    between atoms: N_8  and  C_26
REMARK    6  A    between atoms: C_10  and  C_18
REMARK    7  A    between atoms: C_12  and  C_20
REMARK    8  A    between atoms: C_12  and  C_21
REMARK    9  A    between atoms: C_13  and  C_23
REMARK   10  A    between atoms: C_23  and  C_24
REMARK   11  A    between atoms: C_26  and  C_29
REMARK   12  A    between atoms: C_27  and  C_28
REMARK   13  A    between atoms: C_28  and  C_30
REMARK   14  A    between atoms: C_28  and  C_31
REMARK   15  A    between atoms: C_28  and  C_32
REMARK                            x       y       z     vdW  Elec       q    Type
REMARK                         _______ _______ _______ _____ _____    ______ ____
ROOT
ATOM      1  S   UNL     1       1.193   2.822  23.438  0.00  0.00    -0.057 S 
ATOM      5  O   UNL     1       3.240  -1.311  23.949  0.00  0.00    -0.275 OA
ATOM      7  N   UNL     1       0.838   0.371  24.182  0.00  0.00    -0.229 NA
ATOM      9  N   UNL     1       3.042   0.964  23.409  0.00  0.00    -0.264 N 
ATOM     10  C   UNL     1      -2.700   1.371  25.340  0.00  0.00    -0.019 C 
ATOM     11  C   UNL     1      -2.837   2.492  24.218  0.00  0.00    +0.011 C 
ATOM     12  C   UNL     1      -4.129   3.394  24.261  0.00  0.00    +0.021 C 
ATOM     13  C   UNL     1      -1.591   0.326  24.861  0.00  0.00    +0.054 C 
ATOM     14  C   UNL     1      -4.050   0.619  25.484  0.00  0.00    +0.010 C 
ATOM     15  C   UNL     1      -5.380   2.490  24.454  0.00  0.00    +0.123 C 
ATOM     16  C   UNL     1      -1.514   3.298  24.057  0.00  0.00    +0.049 C 
ATOM     17  C   UNL     1      -5.255   1.537  25.638  0.00  0.00    +0.032 C 
ATOM     18  C   UNL     1      -2.304   1.946  26.722  0.00  0.00    +0.012 C 
ATOM     19  C   UNL     1      -0.362   1.036  24.354  0.00  0.00    +0.058 A 
ATOM     21  C   UNL     1      -4.289   4.117  22.893  0.00  0.00    +0.016 C 
ATOM     22  C   UNL     1      -0.354   2.364  23.982  0.00  0.00    +0.015 A 
ATOM     25  C   UNL     1       1.730   1.215  23.712  0.00  0.00    +0.165 A 
ATOM     27  C   UNL     1       3.728  -0.260  23.538  0.00  0.00    +0.224 C 
ATOM     37  H   UNL     1       3.550   1.770  23.056  0.00  0.00    +0.157 HD
ENDROOT
BRANCH  27  28
ATOM     28  C   UNL     1       5.214  -0.193  23.106  0.00  0.00    +0.039 C 
ATOM     30  C   UNL     1       5.948  -1.476  23.529  0.00  0.00    +0.020 C 
ATOM     31  C   UNL     1       5.318   0.001  21.585  0.00  0.00    +0.020 C 
ATOM     32  C   UNL     1       5.895   1.005  23.795  0.00  0.00    +0.020 C 
ENDBRANCH  27  28
BRANCH  15   2
ATOM      2  O   UNL     1      -6.553   3.284  24.627  0.00  0.00    -0.391 OA
ATOM     34  H   UNL     1      -7.019   3.311  23.775  0.00  0.00    +0.210 HD
ENDBRANCH  15   2
BRANCH  12  20
ATOM     20  C   UNL     1      -4.093   4.517  25.322  0.00  0.00    +0.165 C 
BRANCH  20   3
ATOM      3  O   UNL     1      -4.736   4.037  26.480  0.00  0.00    -0.394 OA
ATOM     35  H   UNL     1      -4.210   4.328  27.245  0.00  0.00    +0.209 HD
ENDBRANCH  20   3
ENDBRANCH  12  20
BRANCH  13  23
ATOM     23  C   UNL     1      -1.232  -0.746  25.899  0.00  0.00    +0.106 C 
BRANCH  23  24
ATOM      4  O   UNL     1      -0.700  -2.956  25.072  0.00  0.00    -0.276 OA
ATOM      8  N   UNL     1      -2.923  -2.358  25.400  0.00  0.00    -0.313 N 
ATOM     24  C   UNL     1      -1.553  -2.139  25.411  0.00  0.00    +0.214 C 
ATOM     36  H   UNL     1      -3.546  -1.618  25.710  0.00  0.00    +0.149 HD
BRANCH   8  26
ATOM     26  C   UNL     1      -3.519  -3.604  24.976  0.00  0.00    +0.132 C 
BRANCH  26  29
ATOM     29  C   UNL     1      -4.199  -3.464  23.626  0.00  0.00    +0.178 C 
BRANCH  29   6
ATOM      6  O   UNL     1      -4.890  -2.223  23.571  0.00  0.00    -0.381 OA
ATOM     33  C   UNL     1      -4.067  -1.192  23.043  0.00  0.00    +0.194 C 
ENDBRANCH  29   6
ENDBRANCH  26  29
ENDBRANCH   8  26
ENDBRANCH  23  24
ENDBRANCH  13  23
TORSDOF 9
ENDMDL
MODEL 5
REMARK VINA RESULT:       8.7      1.828      2.699
REMARK  Name = 11883015
REMARK  15 active torsions:
REMARK  status: ('A' for Active; 'I' for Inactive)
REMARK    1  A    between atoms: O_2  and  C_15
REMARK    2  A    between atoms: O_3  and  C_20
REMARK    3  A    between atoms: O_6  and  C_29
REMARK    4  A    between atoms: O_6  and  C_33
REMARK    5  A    between atoms: N_8  and  C_26
REMARK    6  A    between atoms: C_10  and  C_18
REMARK    7  A    between atoms: C_12  and  C_20
REMARK    8  A    between atoms: C_12  and  C_21
REMARK    9  A    between atoms: C_13  and  C_23
REMARK   10  A    between atoms: C_23  and  C_24
REMARK   11  A    between atoms: C_26  and  C_29
REMARK   12  A    between atoms: C_27  and  C_28
REMARK   13  A    between atoms: C_28  and  C_30
REMARK   14  A    between atoms: C_28  and  C_31
REMARK   15  A    between atoms: C_28  and  C_32
REMARK                            x       y       z     vdW  Elec       q    Type
REMARK                         _______ _______ _______ _____ _____    ______ ____
ROOT
ATOM      1  S   UNL     1       0.382   2.814  24.124  0.00  0.00    -0.057 S 
ATOM      5  O   UNL     1       2.861  -0.969  23.089  0.00  0.00    -0.275 OA
ATOM      7  N   UNL     1       0.267   0.262  23.725  0.00  0.00    -0.229 NA
ATOM      9  N   UNL     1       2.435   1.295  23.534  0.00  0.00    -0.264 N 
ATOM     10  C   UNL     1      -3.440   0.396  24.775  0.00  0.00    -0.019 C 
ATOM     11  C   UNL     1      -3.627   1.876  24.219  0.00  0.00    +0.011 C 
ATOM     12  C   UNL     1      -5.017   2.571  24.485  0.00  0.00    +0.021 C 
ATOM     13  C   UNL     1      -2.183  -0.255  24.034  0.00  0.00    +0.054 C 
ATOM     14  C   UNL     1      -4.698  -0.445  24.432  0.00  0.00    +0.010 C 
ATOM     15  C   UNL     1      -6.162   1.579  24.135  0.00  0.00    +0.123 C 
ATOM     16  C   UNL     1      -2.400   2.771  24.566  0.00  0.00    +0.049 C 
ATOM     17  C   UNL     1      -6.011   0.223  24.815  0.00  0.00    +0.032 C 
ATOM     18  C   UNL     1      -3.216   0.351  26.306  0.00  0.00    +0.012 C 
ATOM     19  C   UNL     1      -1.013   0.695  24.018  0.00  0.00    +0.058 A 
ATOM     21  C   UNL     1      -5.161   3.797  23.539  0.00  0.00    +0.016 C 
ATOM     22  C   UNL     1      -1.136   2.051  24.242  0.00  0.00    +0.015 A 
ATOM     25  C   UNL     1       1.084   1.291  23.759  0.00  0.00    +0.165 A 
ATOM     27  C   UNL     1       3.250   0.190  23.216  0.00  0.00    +0.224 C 
ATOM     37  H   UNL     1       2.868   2.210  23.614  0.00  0.00    +0.157 HD
ENDROOT
BRANCH  27  28
ATOM     28  C   UNL     1       4.745   0.549  23.029  0.00  0.00    +0.039 C 
ATOM     30  C   UNL     1       5.362  -0.312  21.914  0.00  0.00    +0.020 C 
ATOM     31  C   UNL     1       4.896   2.041  22.691  0.00  0.00    +0.020 C 
ATOM     32  C   UNL     1       5.508   0.268  24.337  0.00  0.00    +0.020 C 
ENDBRANCH  27  28
BRANCH  15   2
ATOM      2  O   UNL     1      -7.431   2.130  24.486  0.00  0.00    -0.391 OA
ATOM     34  H   UNL     1      -7.966   1.416  24.870  0.00  0.00    +0.210 HD
ENDBRANCH  15   2
BRANCH  12  20
ATOM     20  C   UNL     1      -5.190   3.129  25.916  0.00  0.00    +0.165 C 
BRANCH  20   3
ATOM      3  O   UNL     1      -6.199   4.113  25.875  0.00  0.00    -0.394 OA
ATOM     35  H   UNL     1      -5.965   4.739  25.169  0.00  0.00    +0.209 HD
ENDBRANCH  20   3
ENDBRANCH  12  20
BRANCH  13  23
ATOM     23  C   UNL     1      -1.776  -1.638  24.561  0.00  0.00    +0.106 C 
BRANCH  23  24
ATOM      4  O   UNL     1       0.097  -2.397  25.890  0.00  0.00    -0.276 OA
ATOM      8  N   UNL     1      -0.931  -0.377  26.406  0.00  0.00    -0.313 N 
ATOM     24  C   UNL     1      -0.760  -1.544  25.675  0.00  0.00    +0.214 C 
ATOM     36  H   UNL     1      -1.666   0.272  26.141  0.00  0.00    +0.149 HD
BRANCH   8  26
ATOM     26  C   UNL     1      -0.101  -0.025  27.535  0.00  0.00    +0.132 C 
BRANCH  26  29
ATOM     29  C   UNL     1       0.177   1.467  27.578  0.00  0.00    +0.178 C 
BRANCH  29   6
ATOM      6  O   UNL     1       0.592   1.833  28.886  0.00  0.00    -0.381 OA
ATOM     33  C   UNL     1       1.833   2.528  28.864  0.00  0.00    +0.194 C 
ENDBRANCH  29   6
ENDBRANCH  26  29
ENDBRANCH   8  26
ENDBRANCH  23  24
ENDBRANCH  13  23
TORSDOF 9
ENDMDL
