MODEL 1
REMARK VINA RESULT:      -1.6      0.000      0.000
REMARK  Name = 11942333
REMARK  6 active torsions:
REMARK  status: ('A' for Active; 'I' for Inactive)
REMARK    1  A    between atoms: N_4  and  C_15
REMARK    2  A    between atoms: N_5  and  C_18
REMARK    3  A    between atoms: C_9  and  C_15
REMARK    4  A    between atoms: C_10  and  C_16
REMARK    5  A    between atoms: C_18  and  C_20
REMARK    6  A    between atoms: C_19  and  C_21
REMARK                            x       y       z     vdW  Elec       q    Type
REMARK                         _______ _______ _______ _____ _____    ______ ____
ROOT
ATOM      3  N   UNL     1      -2.952  -1.895  23.663  0.00  0.00    -0.297 NA
ATOM      8  C   UNL     1      -3.381  -1.148  26.119  0.00  0.00    +0.005 C 
ATOM      9  C   UNL     1      -1.795  -1.104  24.161  0.00  0.00    +0.078 C 
ATOM     10  C   UNL     1      -4.560  -0.763  25.205  0.00  0.00    +0.092 C 
ATOM     11  C   UNL     1      -2.087  -0.519  25.561  0.00  0.00    +0.025 C 
ATOM     12  C   UNL     1      -3.226  -2.676  26.024  0.00  0.00    +0.020 C 
ATOM     13  C   UNL     1      -4.198  -1.092  23.746  0.00  0.00    +0.097 C 
ATOM     14  C   UNL     1      -3.107  -3.081  24.543  0.00  0.00    +0.085 C 
ENDROOT
BRANCH  10  16
ATOM      2  O   UNL     1      -5.726   1.049  26.234  0.00  0.00    -0.275 OA
ATOM      5  N   UNL     1      -4.293   1.496  24.454  0.00  0.00    -0.311 N 
ATOM     16  C   UNL     1      -4.929   0.681  25.374  0.00  0.00    +0.218 C 
ATOM     32  H   UNL     1      -3.615   1.098  23.812  0.00  0.00    +0.149 HD
BRANCH   5  18
ATOM     18  C   UNL     1      -4.496   2.925  24.391  0.00  0.00    +0.139 C 
BRANCH  18  20
ATOM      1  F   UNL     1       0.313   5.761  25.035  0.00  0.00    -0.205 F 
ATOM     20  C   UNL     1      -3.211   3.683  24.562  0.00  0.00    -0.030 A 
ATOM     22  C   UNL     1      -3.246   5.014  24.963  0.00  0.00    +0.008 A 
ATOM     23  C   UNL     1      -2.000   3.047  24.319  0.00  0.00    +0.008 A 
ATOM     26  C   UNL     1      -2.053   5.717  25.123  0.00  0.00    +0.038 A 
ATOM     27  C   UNL     1      -0.807   3.750  24.479  0.00  0.00    +0.038 A 
ATOM     28  C   UNL     1      -0.833   5.086  24.881  0.00  0.00    +0.123 A 
ENDBRANCH  18  20
ENDBRANCH   5  18
ENDBRANCH  10  16
BRANCH   9  15
ATOM     15  C   UNL     1      -1.360  -0.022  23.172  0.00  0.00    +0.164 C 
BRANCH  15   4
ATOM      4  N   UNL     1       0.046  -0.141  22.825  0.00  0.00    -0.250 N 
ATOM      6  N   UNL     1       0.411  -0.318  21.551  0.00  0.00    -0.065 NA
ATOM      7  N   UNL     1       1.737  -0.393  21.538  0.00  0.00    -0.130 NA
ATOM     17  C   UNL     1       1.106  -0.095  23.665  0.00  0.00    +0.138 A 
ATOM     19  C   UNL     1       2.178  -0.258  22.824  0.00  0.00    +0.113 A 
BRANCH  19  21
ATOM     21  C   UNL     1       3.549  -0.285  23.221  0.00  0.00    +0.004 A 
ATOM     24  C   UNL     1       4.356   0.846  23.054  0.00  0.00    +0.010 A 
ATOM     25  C   UNL     1       4.100  -1.444  23.780  0.00  0.00    +0.010 A 
ATOM     29  C   UNL     1       5.696   0.819  23.441  0.00  0.00    +0.001 A 
ATOM     30  C   UNL     1       5.440  -1.470  24.167  0.00  0.00    +0.001 A 
ATOM     31  C   UNL     1       6.238  -0.339  23.998  0.00  0.00    +0.000 A 
ENDBRANCH  19  21
ENDBRANCH  15   4
ENDBRANCH   9  15
TORSDOF 6
ENDMDL
MODEL 2
REMARK VINA RESULT:      -1.3      2.288      4.824
REMARK  Name = 11942333
REMARK  6 active torsions:
REMARK  status: ('A' for Active; 'I' for Inactive)
REMARK    1  A    between atoms: N_4  and  C_15
REMARK    2  A    between atoms: N_5  and  C_18
REMARK    3  A    between atoms: C_9  and  C_15
REMARK    4  A    between atoms: C_10  and  C_16
REMARK    5  A    between atoms: C_18  and  C_20
REMARK    6  A    between atoms: C_19  and  C_21
REMARK                            x       y       z     vdW  Elec       q    Type
REMARK                         _______ _______ _______ _____ _____    ______ ____
ROOT
ATOM      3  N   UNL     1      -0.641   3.365  25.199  0.00  0.00    -0.297 NA
ATOM      8  C   UNL     1      -2.770   4.569  24.311  0.00  0.00    +0.005 C 
ATOM      9  C   UNL     1      -1.006   2.827  23.861  0.00  0.00    +0.078 C 
ATOM     10  C   UNL     1      -2.995   4.011  25.730  0.00  0.00    +0.092 C 
ATOM     11  C   UNL     1      -2.351   3.414  23.379  0.00  0.00    +0.025 C 
ATOM     12  C   UNL     1      -1.581   5.542  24.400  0.00  0.00    +0.020 C 
ATOM     13  C   UNL     1      -1.765   3.186  26.150  0.00  0.00    +0.097 C 
ATOM     14  C   UNL     1      -0.386   4.820  25.051  0.00  0.00    +0.085 C 
ENDROOT
BRANCH  10  16
ATOM      2  O   UNL     1      -5.316   3.693  26.188  0.00  0.00    -0.275 OA
ATOM      5  N   UNL     1      -4.063   1.891  25.413  0.00  0.00    -0.311 N 
ATOM     16  C   UNL     1      -4.257   3.205  25.802  0.00  0.00    +0.218 C 
ATOM     32  H   UNL     1      -3.155   1.597  25.065  0.00  0.00    +0.149 HD
BRANCH   5  18
ATOM     18  C   UNL     1      -5.116   0.902  25.414  0.00  0.00    +0.139 C 
BRANCH  18  20
ATOM      1  F   UNL     1      -3.205  -4.205  24.052  0.00  0.00    -0.205 F 
ATOM     20  C   UNL     1      -4.606  -0.463  25.050  0.00  0.00    -0.030 A 
ATOM     22  C   UNL     1      -5.004  -1.049  23.854  0.00  0.00    +0.008 A 
ATOM     23  C   UNL     1      -3.742  -1.125  25.913  0.00  0.00    +0.008 A 
ATOM     26  C   UNL     1      -4.529  -2.316  23.516  0.00  0.00    +0.038 A 
ATOM     27  C   UNL     1      -3.267  -2.393  25.575  0.00  0.00    +0.038 A 
ATOM     28  C   UNL     1      -3.661  -2.988  24.376  0.00  0.00    +0.123 A 
ENDBRANCH  18  20
ENDBRANCH   5  18
ENDBRANCH  10  16
BRANCH   9  15
ATOM     15  C   UNL     1      -1.009   1.298  23.829  0.00  0.00    +0.164 C 
BRANCH  15   4
ATOM      4  N   UNL     1       0.260   0.766  23.360  0.00  0.00    -0.250 N 
ATOM      6  N   UNL     1       0.344   0.189  22.156  0.00  0.00    -0.065 NA
ATOM      7  N   UNL     1       1.605  -0.196  22.002  0.00  0.00    -0.130 NA
ATOM     17  C   UNL     1       1.444   0.773  24.014  0.00  0.00    +0.138 A 
ATOM     19  C   UNL     1       2.293   0.154  23.131  0.00  0.00    +0.113 A 
BRANCH  19  21
ATOM     21  C   UNL     1       3.681  -0.094  23.346  0.00  0.00    +0.004 A 
ATOM     24  C   UNL     1       4.624   0.915  23.116  0.00  0.00    +0.010 A 
ATOM     25  C   UNL     1       4.115  -1.348  23.790  0.00  0.00    +0.010 A 
ATOM     29  C   UNL     1       5.981   0.672  23.326  0.00  0.00    +0.001 A 
ATOM     30  C   UNL     1       5.472  -1.591  24.001  0.00  0.00    +0.001 A 
ATOM     31  C   UNL     1       6.405  -0.580  23.769  0.00  0.00    +0.000 A 
ENDBRANCH  19  21
ENDBRANCH  15   4
ENDBRANCH   9  15
TORSDOF 6
ENDMDL
MODEL 3
REMARK VINA RESULT:       0.2      2.160      6.437
REMARK  Name = 11942333
REMARK  6 active torsions:
REMARK  status: ('A' for Active; 'I' for Inactive)
REMARK    1  A    between atoms: N_4  and  C_15
REMARK    2  A    between atoms: N_5  and  C_18
REMARK    3  A    between atoms: C_9  and  C_15
REMARK    4  A    between atoms: C_10  and  C_16
REMARK    5  A    between atoms: C_18  and  C_20
REMARK    6  A    between atoms: C_19  and  C_21
REMARK                            x       y       z     vdW  Elec       q    Type
REMARK                         _______ _______ _______ _____ _____    ______ ____
ROOT
ATOM      3  N   UNL     1      -3.627  -1.163  25.910  0.00  0.00    -0.297 NA
ATOM      8  C   UNL     1      -1.869  -2.464  24.501  0.00  0.00    +0.005 C 
ATOM      9  C   UNL     1      -4.214  -1.548  24.599  0.00  0.00    +0.078 C 
ATOM     10  C   UNL     1      -1.297  -1.126  25.007  0.00  0.00    +0.092 C 
ATOM     11  C   UNL     1      -3.147  -2.186  23.683  0.00  0.00    +0.025 C 
ATOM     12  C   UNL     1      -2.286  -3.269  25.744  0.00  0.00    +0.020 C 
ATOM     13  C   UNL     1      -2.414  -0.331  25.707  0.00  0.00    +0.097 C 
ATOM     14  C   UNL     1      -3.222  -2.407  26.612  0.00  0.00    +0.085 C 
ENDROOT
BRANCH  10  16
ATOM      2  O   UNL     1      -1.288   0.542  23.299  0.00  0.00    -0.275 OA
ATOM      5  N   UNL     1       0.617  -0.759  23.616  0.00  0.00    -0.311 N 
ATOM     16  C   UNL     1      -0.675  -0.344  23.889  0.00  0.00    +0.218 C 
ATOM     32  H   UNL     1       1.051  -1.471  24.194  0.00  0.00    +0.149 HD
BRANCH   5  18
ATOM     18  C   UNL     1       1.428  -0.180  22.568  0.00  0.00    +0.139 C 
BRANCH  18  20
ATOM      1  F   UNL     1       6.868  -0.020  23.969  0.00  0.00    -0.205 F 
ATOM     20  C   UNL     1       2.881  -0.138  22.942  0.00  0.00    -0.030 A 
ATOM     22  C   UNL     1       3.617   1.018  22.708  0.00  0.00    +0.008 A 
ATOM     23  C   UNL     1       3.476  -1.254  23.518  0.00  0.00    +0.008 A 
ATOM     26  C   UNL     1       4.968   1.058  23.056  0.00  0.00    +0.038 A 
ATOM     27  C   UNL     1       4.826  -1.214  23.866  0.00  0.00    +0.038 A 
ATOM     28  C   UNL     1       5.572  -0.058  23.635  0.00  0.00    +0.123 A 
ENDBRANCH  18  20
ENDBRANCH   5  18
ENDBRANCH  10  16
BRANCH   9  15
ATOM     15  C   UNL     1      -4.926  -0.380  23.914  0.00  0.00    +0.164 C 
BRANCH  15   4
ATOM      4  N   UNL     1      -4.489   0.902  24.440  0.00  0.00    -0.250 N 
ATOM      6  N   UNL     1      -5.198   1.514  25.394  0.00  0.00    -0.065 NA
ATOM      7  N   UNL     1      -4.567   2.649  25.673  0.00  0.00    -0.130 NA
ATOM     17  C   UNL     1      -3.393   1.607  24.077  0.00  0.00    +0.138 A 
ATOM     19  C   UNL     1      -3.460   2.722  24.875  0.00  0.00    +0.113 A 
BRANCH  19  21
ATOM     21  C   UNL     1      -2.523   3.798  24.880  0.00  0.00    +0.004 A 
ATOM     24  C   UNL     1      -2.954   5.109  25.113  0.00  0.00    +0.010 A 
ATOM     25  C   UNL     1      -1.164   3.554  24.651  0.00  0.00    +0.010 A 
ATOM     29  C   UNL     1      -2.038   6.162  25.118  0.00  0.00    +0.001 A 
ATOM     30  C   UNL     1      -0.249   4.606  24.656  0.00  0.00    +0.001 A 
ATOM     31  C   UNL     1      -0.686   5.910  24.890  0.00  0.00    +0.000 A 
ENDBRANCH  19  21
ENDBRANCH  15   4
ENDBRANCH   9  15
TORSDOF 6
ENDMDL
MODEL 4
REMARK VINA RESULT:       0.3      2.803      5.330
REMARK  Name = 11942333
REMARK  6 active torsions:
REMARK  status: ('A' for Active; 'I' for Inactive)
REMARK    1  A    between atoms: N_4  and  C_15
REMARK    2  A    between atoms: N_5  and  C_18
REMARK    3  A    between atoms: C_9  and  C_15
REMARK    4  A    between atoms: C_10  and  C_16
REMARK    5  A    between atoms: C_18  and  C_20
REMARK    6  A    between atoms: C_19  and  C_21
REMARK                            x       y       z     vdW  Elec       q    Type
REMARK                         _______ _______ _______ _____ _____    ______ ____
ROOT
ATOM      3  N   UNL     1      -4.445   3.930  26.159  0.00  0.00    -0.297 NA
ATOM      8  C   UNL     1      -4.013   3.593  23.615  0.00  0.00    +0.005 C 
ATOM      9  C   UNL     1      -2.993   4.070  25.869  0.00  0.00    +0.078 C 
ATOM     10  C   UNL     1      -4.827   2.424  24.202  0.00  0.00    +0.092 C 
ATOM     11  C   UNL     1      -2.689   3.724  24.394  0.00  0.00    +0.025 C 
ATOM     12  C   UNL     1      -4.825   4.874  23.873  0.00  0.00    +0.020 C 
ATOM     13  C   UNL     1      -4.930   2.595  25.728  0.00  0.00    +0.097 C 
ATOM     14  C   UNL     1      -5.168   4.961  25.372  0.00  0.00    +0.085 C 
ENDROOT
BRANCH  10  16
ATOM      2  O   UNL     1      -3.291   1.017  23.035  0.00  0.00    -0.275 OA
ATOM      5  N   UNL     1      -4.854   0.043  24.459  0.00  0.00    -0.311 N 
ATOM     16  C   UNL     1      -4.224   1.103  23.830  0.00  0.00    +0.218 C 
ATOM     32  H   UNL     1      -5.589   0.224  25.136  0.00  0.00    +0.149 HD
BRANCH   5  18
ATOM     18  C   UNL     1      -4.478  -1.337  24.252  0.00  0.00    +0.139 C 
BRANCH  18  20
ATOM      1  F   UNL     1       0.788  -2.353  25.933  0.00  0.00    -0.205 F 
ATOM     20  C   UNL     1      -3.071  -1.609  24.701  0.00  0.00    -0.030 A 
ATOM     22  C   UNL     1      -2.298  -2.538  24.015  0.00  0.00    +0.008 A 
ATOM     23  C   UNL     1      -2.557  -0.929  25.799  0.00  0.00    +0.008 A 
ATOM     26  C   UNL     1      -0.991  -2.790  24.432  0.00  0.00    +0.038 A 
ATOM     27  C   UNL     1      -1.250  -1.181  26.216  0.00  0.00    +0.038 A 
ATOM     28  C   UNL     1      -0.467  -2.112  25.533  0.00  0.00    +0.123 A 
ENDBRANCH  18  20
ENDBRANCH   5  18
ENDBRANCH  10  16
BRANCH   9  15
ATOM     15  C   UNL     1      -2.126   3.259  26.834  0.00  0.00    +0.164 C 
BRANCH  15   4
ATOM      4  N   UNL     1      -0.951   2.713  26.175  0.00  0.00    -0.250 N 
ATOM      6  N   UNL     1       0.261   2.878  26.716  0.00  0.00    -0.065 NA
ATOM      7  N   UNL     1       1.128   2.282  25.905  0.00  0.00    -0.130 NA
ATOM     17  C   UNL     1      -0.910   2.016  25.016  0.00  0.00    +0.138 A 
ATOM     19  C   UNL     1       0.427   1.749  24.859  0.00  0.00    +0.113 A 
BRANCH  19  21
ATOM     21  C   UNL     1       1.010   1.028  23.775  0.00  0.00    +0.004 A 
ATOM     24  C   UNL     1       0.227   0.167  22.997  0.00  0.00    +0.010 A 
ATOM     25  C   UNL     1       2.370   1.173  23.479  0.00  0.00    +0.010 A 
ATOM     29  C   UNL     1       0.797  -0.539  21.937  0.00  0.00    +0.001 A 
ATOM     30  C   UNL     1       2.940   0.469  22.418  0.00  0.00    +0.001 A 
ATOM     31  C   UNL     1       2.153  -0.388  21.647  0.00  0.00    +0.000 A 
ENDBRANCH  19  21
ENDBRANCH  15   4
ENDBRANCH   9  15
TORSDOF 6
ENDMDL
MODEL 5
REMARK VINA RESULT:       1.3      2.315      6.971
REMARK  Name = 11942333
REMARK  6 active torsions:
REMARK  status: ('A' for Active; 'I' for Inactive)
REMARK    1  A    between atoms: N_4  and  C_15
REMARK    2  A    between atoms: N_5  and  C_18
REMARK    3  A    between atoms: C_9  and  C_15
REMARK    4  A    between atoms: C_10  and  C_16
REMARK    5  A    between atoms: C_18  and  C_20
REMARK    6  A    between atoms: C_19  and  C_21
REMARK                            x       y       z     vdW  Elec       q    Type
REMARK                         _______ _______ _______ _____ _____    ______ ____
ROOT
ATOM      3  N   UNL     1      -3.130   4.333  24.407  0.00  0.00    -0.297 NA
ATOM      8  C   UNL     1      -0.584   4.220  24.934  0.00  0.00    +0.005 C 
ATOM      9  C   UNL     1      -2.919   4.288  25.879  0.00  0.00    +0.078 C 
ATOM     10  C   UNL     1      -0.995   3.126  23.931  0.00  0.00    +0.092 C 
ATOM     11  C   UNL     1      -1.428   4.067  26.216  0.00  0.00    +0.025 C 
ATOM     12  C   UNL     1      -0.958   5.570  24.297  0.00  0.00    +0.020 C 
ATOM     13  C   UNL     1      -2.525   3.140  23.764  0.00  0.00    +0.097 C 
ATOM     14  C   UNL     1      -2.442   5.540  23.884  0.00  0.00    +0.085 C 
ENDROOT
BRANCH  10  16
ATOM      2  O   UNL     1      -0.613   1.384  25.518  0.00  0.00    -0.275 OA
ATOM      5  N   UNL     1       0.111   1.089  23.325  0.00  0.00    -0.311 N 
ATOM     16  C   UNL     1      -0.495   1.779  24.361  0.00  0.00    +0.218 C 
ATOM     32  H   UNL     1       0.118   1.486  22.391  0.00  0.00    +0.149 HD
BRANCH   5  18
ATOM     18  C   UNL     1       0.697  -0.222  23.485  0.00  0.00    +0.139 C 
BRANCH  18  20
ATOM      1  F   UNL     1       6.301  -0.085  23.093  0.00  0.00    -0.205 F 
ATOM     20  C   UNL     1       2.194  -0.186  23.380  0.00  0.00    -0.030 A 
ATOM     22  C   UNL     1       2.818   0.936  22.847  0.00  0.00    +0.008 A 
ATOM     23  C   UNL     1       2.940  -1.274  23.816  0.00  0.00    +0.008 A 
ATOM     26  C   UNL     1       4.209   0.970  22.750  0.00  0.00    +0.038 A 
ATOM     27  C   UNL     1       4.331  -1.240  23.719  0.00  0.00    +0.038 A 
ATOM     28  C   UNL     1       4.966  -0.118  23.186  0.00  0.00    +0.123 A 
ENDBRANCH  18  20
ENDBRANCH   5  18
ENDBRANCH  10  16
BRANCH   9  15
ATOM     15  C   UNL     1      -3.817   3.257  26.565  0.00  0.00    +0.164 C 
BRANCH  15   4
ATOM      4  N   UNL     1      -4.019   2.081  25.735  0.00  0.00    -0.250 N 
ATOM      6  N   UNL     1      -4.996   2.063  24.822  0.00  0.00    -0.065 NA
ATOM      7  N   UNL     1      -4.941   0.878  24.226  0.00  0.00    -0.130 NA
ATOM     17  C   UNL     1      -3.311   0.928  25.759  0.00  0.00    +0.138 A 
ATOM     19  C   UNL     1      -3.915   0.171  24.787  0.00  0.00    +0.113 A 
BRANCH  19  21
ATOM     21  C   UNL     1      -3.539  -1.154  24.412  0.00  0.00    +0.004 A 
ATOM     24  C   UNL     1      -2.234  -1.608  24.632  0.00  0.00    +0.010 A 
ATOM     25  C   UNL     1      -4.473  -2.012  23.821  0.00  0.00    +0.010 A 
ATOM     29  C   UNL     1      -1.867  -2.902  24.264  0.00  0.00    +0.001 A 
ATOM     30  C   UNL     1      -4.106  -3.307  23.454  0.00  0.00    +0.001 A 
ATOM     31  C   UNL     1      -2.803  -3.752  23.676  0.00  0.00    +0.000 A 
ENDBRANCH  19  21
ENDBRANCH  15   4
ENDBRANCH   9  15
TORSDOF 6
ENDMDL
MODEL 6
REMARK VINA RESULT:       2.0      2.938      3.661
REMARK  Name = 11942333
REMARK  6 active torsions:
REMARK  status: ('A' for Active; 'I' for Inactive)
REMARK    1  A    between atoms: N_4  and  C_15
REMARK    2  A    between atoms: N_5  and  C_18
REMARK    3  A    between atoms: C_9  and  C_15
REMARK    4  A    between atoms: C_10  and  C_16
REMARK    5  A    between atoms: C_18  and  C_20
REMARK    6  A    between atoms: C_19  and  C_21
REMARK                            x       y       z     vdW  Elec       q    Type
REMARK                         _______ _______ _______ _____ _____    ______ ____
ROOT
ATOM      3  N   UNL     1      -2.664  -1.598  23.569  0.00  0.00    -0.297 NA
ATOM      8  C   UNL     1      -3.512  -1.368  26.019  0.00  0.00    +0.005 C 
ATOM      9  C   UNL     1      -1.663  -0.859  24.385  0.00  0.00    +0.078 C 
ATOM     10  C   UNL     1      -4.570  -0.875  25.014  0.00  0.00    +0.092 C 
ATOM     11  C   UNL     1      -2.207  -0.575  25.802  0.00  0.00    +0.025 C 
ATOM     12  C   UNL     1      -3.218  -2.838  25.671  0.00  0.00    +0.020 C 
ATOM     13  C   UNL     1      -3.970  -0.894  23.597  0.00  0.00    +0.097 C 
ATOM     14  C   UNL     1      -2.848  -2.939  24.179  0.00  0.00    +0.085 C 
ENDROOT
BRANCH  10  16
ATOM      2  O   UNL     1      -5.659   0.693  26.448  0.00  0.00    -0.275 OA
ATOM      5  N   UNL     1      -4.834   1.424  24.397  0.00  0.00    -0.311 N 
ATOM     16  C   UNL     1      -5.079   0.486  25.384  0.00  0.00    +0.218 C 
ATOM     32  H   UNL     1      -4.304   1.161  23.571  0.00  0.00    +0.149 HD
BRANCH   5  18
ATOM     18  C   UNL     1      -5.245   2.806  24.499  0.00  0.00    +0.139 C 
BRANCH  18  20
ATOM      1  F   UNL     1      -0.876   6.238  25.343  0.00  0.00    -0.205 F 
ATOM     20  C   UNL     1      -4.078   3.723  24.725  0.00  0.00    -0.030 A 
ATOM     22  C   UNL     1      -3.517   3.823  25.993  0.00  0.00    +0.008 A 
ATOM     23  C   UNL     1      -3.571   4.464  23.664  0.00  0.00    +0.008 A 
ATOM     26  C   UNL     1      -2.432   4.674  26.202  0.00  0.00    +0.038 A 
ATOM     27  C   UNL     1      -2.486   5.316  23.873  0.00  0.00    +0.038 A 
ATOM     28  C   UNL     1      -1.917   5.421  25.143  0.00  0.00    +0.123 A 
ENDBRANCH  18  20
ENDBRANCH   5  18
ENDBRANCH  10  16
BRANCH   9  15
ATOM     15  C   UNL     1      -1.178   0.417  23.695  0.00  0.00    +0.164 C 
BRANCH  15   4
ATOM      4  N   UNL     1      -0.528   1.321  24.629  0.00  0.00    -0.250 N 
ATOM      6  N   UNL     1      -0.224   2.569  24.255  0.00  0.00    -0.065 NA
ATOM      7  N   UNL     1       0.353   3.152  25.300  0.00  0.00    -0.130 NA
ATOM     17  C   UNL     1      -0.165   1.060  25.906  0.00  0.00    +0.138 A 
ATOM     19  C   UNL     1       0.397   2.242  26.319  0.00  0.00    +0.113 A 
BRANCH  19  21
ATOM     21  C   UNL     1       0.947   2.495  27.611  0.00  0.00    +0.004 A 
ATOM     24  C   UNL     1       0.156   2.354  28.757  0.00  0.00    +0.010 A 
ATOM     25  C   UNL     1       2.284   2.888  27.745  0.00  0.00    +0.010 A 
ATOM     29  C   UNL     1       0.694   2.601  30.019  0.00  0.00    +0.001 A 
ATOM     30  C   UNL     1       2.822   3.134  29.008  0.00  0.00    +0.001 A 
ATOM     31  C   UNL     1       2.027   2.991  30.146  0.00  0.00    +0.000 A 
ENDBRANCH  19  21
ENDBRANCH  15   4
ENDBRANCH   9  15
TORSDOF 6
ENDMDL
MODEL 7
REMARK VINA RESULT:       2.2      2.640      5.168
REMARK  Name = 11942333
REMARK  6 active torsions:
REMARK  status: ('A' for Active; 'I' for Inactive)
REMARK    1  A    between atoms: N_4  and  C_15
REMARK    2  A    between atoms: N_5  and  C_18
REMARK    3  A    between atoms: C_9  and  C_15
REMARK    4  A    between atoms: C_10  and  C_16
REMARK    5  A    between atoms: C_18  and  C_20
REMARK    6  A    between atoms: C_19  and  C_21
REMARK                            x       y       z     vdW  Elec       q    Type
REMARK                         _______ _______ _______ _____ _____    ______ ____
ROOT
ATOM      3  N   UNL     1      -0.372   3.564  23.518  0.00  0.00    -0.297 NA
ATOM      8  C   UNL     1      -1.617   3.792  25.792  0.00  0.00    +0.005 C 
ATOM      9  C   UNL     1      -1.767   3.064  23.384  0.00  0.00    +0.078 C 
ATOM     10  C   UNL     1      -0.280   3.046  25.961  0.00  0.00    +0.092 C 
ATOM     11  C   UNL     1      -2.480   3.045  24.754  0.00  0.00    +0.025 C 
ATOM     12  C   UNL     1      -1.284   5.174  25.203  0.00  0.00    +0.020 C 
ATOM     13  C   UNL     1       0.346   2.808  24.575  0.00  0.00    +0.097 C 
ATOM     14  C   UNL     1      -0.435   4.988  23.930  0.00  0.00    +0.085 C 
ENDROOT
BRANCH  10  16
ATOM      2  O   UNL     1       0.034   1.585  27.823  0.00  0.00    -0.275 OA
ATOM      5  N   UNL     1      -1.223   0.844  26.008  0.00  0.00    -0.311 N 
ATOM     16  C   UNL     1      -0.466   1.763  26.715  0.00  0.00    +0.218 C 
ATOM     32  H   UNL     1      -1.629   1.106  25.115  0.00  0.00    +0.149 HD
BRANCH   5  18
ATOM     18  C   UNL     1      -1.527  -0.478  26.505  0.00  0.00    +0.139 C 
BRANCH  18  20
ATOM      1  F   UNL     1      -5.172  -3.182  23.191  0.00  0.00    -0.205 F 
ATOM     20  C   UNL     1      -2.501  -1.200  25.619  0.00  0.00    -0.030 A 
ATOM     22  C   UNL     1      -2.310  -2.549  25.345  0.00  0.00    +0.008 A 
ATOM     23  C   UNL     1      -3.583  -0.513  25.083  0.00  0.00    +0.008 A 
ATOM     26  C   UNL     1      -3.215  -3.220  24.522  0.00  0.00    +0.038 A 
ATOM     27  C   UNL     1      -4.488  -1.184  24.261  0.00  0.00    +0.038 A 
ATOM     28  C   UNL     1      -4.303  -2.538  23.980  0.00  0.00    +0.123 A 
ENDBRANCH  18  20
ENDBRANCH   5  18
ENDBRANCH  10  16
BRANCH   9  15
ATOM     15  C   UNL     1      -1.834   1.703  22.690  0.00  0.00    +0.164 C 
BRANCH  15   4
ATOM      4  N   UNL     1      -0.659   0.895  22.971  0.00  0.00    -0.250 N 
ATOM      6  N   UNL     1      -0.797  -0.364  23.401  0.00  0.00    -0.065 NA
ATOM      7  N   UNL     1       0.428  -0.847  23.572  0.00  0.00    -0.130 NA
ATOM     17  C   UNL     1       0.638   1.262  22.850  0.00  0.00    +0.138 A 
ATOM     19  C   UNL     1       1.318   0.136  23.239  0.00  0.00    +0.113 A 
BRANCH  19  21
ATOM     21  C   UNL     1       2.738  -0.001  23.293  0.00  0.00    +0.004 A 
ATOM     24  C   UNL     1       3.565   1.065  22.922  0.00  0.00    +0.010 A 
ATOM     25  C   UNL     1       3.317  -1.203  23.716  0.00  0.00    +0.010 A 
ATOM     29  C   UNL     1       4.953   0.931  22.974  0.00  0.00    +0.001 A 
ATOM     30  C   UNL     1       4.704  -1.336  23.769  0.00  0.00    +0.001 A 
ATOM     31  C   UNL     1       5.522  -0.269  23.398  0.00  0.00    +0.000 A 
ENDBRANCH  19  21
ENDBRANCH  15   4
ENDBRANCH   9  15
TORSDOF 6
ENDMDL
