MODEL 1
REMARK VINA RESULT:      -3.1      0.000      0.000
REMARK  Name = 75368452
REMARK  5 active torsions:
REMARK  status: ('A' for Active; 'I' for Inactive)
REMARK    1  A    between atoms: O_3  and  C_25
REMARK    2  A    between atoms: O_3  and  C_26
REMARK    3  A    between atoms: N_6  and  C_19
REMARK    4  A    between atoms: C_9  and  C_15
REMARK    5  A    between atoms: C_19  and  C_20
REMARK                            x       y       z     vdW  Elec       q    Type
REMARK                         _______ _______ _______ _____ _____    ______ ____
ROOT
ATOM      1  O   UNL     1       7.869  -7.874  32.809  0.00  0.00    -0.275 OA
ATOM      2  O   UNL     1      14.193  -5.452  31.203  0.00  0.00    -0.252 OA
ATOM      4  N   UNL     1      12.379  -6.937  31.350  0.00  0.00    -0.278 N 
ATOM      5  N   UNL     1      10.150  -8.162  32.478  0.00  0.00    -0.298 N 
ATOM      6  N   UNL     1      14.372  -7.750  30.706  0.00  0.00    -0.279 N 
ATOM      7  C   UNL     1      12.116  -8.326  31.015  0.00  0.00    +0.112 C 
ATOM      8  C   UNL     1      11.312  -8.998  32.125  0.00  0.00    +0.132 C 
ATOM     10  C   UNL     1      13.507  -8.914  30.788  0.00  0.00    +0.133 C 
ATOM     11  C   UNL     1      11.289  -6.083  31.784  0.00  0.00    +0.128 C 
ATOM     12  C   UNL     1      10.481  -6.784  32.873  0.00  0.00    +0.127 C 
ATOM     15  C   UNL     1       8.822  -8.587  32.485  0.00  0.00    +0.219 C 
ATOM     18  C   UNL     1      13.708  -6.570  31.096  0.00  0.00    +0.306 C 
ENDROOT
BRANCH  15   9
ATOM      9  C   UNL     1       8.570 -10.003  32.066  0.00  0.00    +0.075 C 
ATOM     13  C   UNL     1       8.137 -10.054  30.596  0.00  0.00    +0.013 C 
ATOM     14  C   UNL     1       7.420 -10.608  32.872  0.00  0.00    +0.013 C 
ATOM     16  C   UNL     1       6.794 -10.776  30.583  0.00  0.00    +0.001 C 
ATOM     17  C   UNL     1       6.210 -10.500  31.955  0.00  0.00    +0.001 C 
ENDBRANCH  15   9
BRANCH   6  19
ATOM     19  C   UNL     1      15.778  -7.862  30.387  0.00  0.00    +0.144 C 
BRANCH  19  20
ATOM     20  C   UNL     1      16.089  -7.324  29.020  0.00  0.00    -0.030 A 
ATOM     21  C   UNL     1      15.584  -7.964  27.887  0.00  0.00    +0.009 A 
ATOM     22  C   UNL     1      16.881  -6.185  28.882  0.00  0.00    +0.009 A 
ATOM     23  C   UNL     1      15.874  -7.463  26.618  0.00  0.00    +0.046 A 
ATOM     24  C   UNL     1      17.170  -5.684  27.613  0.00  0.00    +0.046 A 
ATOM     25  C   UNL     1      16.666  -6.325  26.480  0.00  0.00    +0.120 A 
BRANCH  25   3
ATOM      3  O   UNL     1      16.947  -5.836  25.241  0.00  0.00    -0.495 OA
ATOM     26  C   UNL     1      16.869  -4.422  25.068  0.00  0.00    +0.277 C 
ENDBRANCH  25   3
ENDBRANCH  19  20
ENDBRANCH   6  19
TORSDOF 4
ENDMDL
MODEL 2
REMARK VINA RESULT:      -0.4      1.749      2.110
REMARK  Name = 75368452
REMARK  5 active torsions:
REMARK  status: ('A' for Active; 'I' for Inactive)
REMARK    1  A    between atoms: O_3  and  C_25
REMARK    2  A    between atoms: O_3  and  C_26
REMARK    3  A    between atoms: N_6  and  C_19
REMARK    4  A    between atoms: C_9  and  C_15
REMARK    5  A    between atoms: C_19  and  C_20
REMARK                            x       y       z     vdW  Elec       q    Type
REMARK                         _______ _______ _______ _____ _____    ______ ____
ROOT
ATOM      1  O   UNL     1       6.811  -7.411  32.348  0.00  0.00    -0.275 OA
ATOM      2  O   UNL     1      13.298  -4.914  31.999  0.00  0.00    -0.252 OA
ATOM      4  N   UNL     1      11.533  -6.465  31.963  0.00  0.00    -0.278 N 
ATOM      5  N   UNL     1       9.100  -7.600  32.691  0.00  0.00    -0.298 N 
ATOM      6  N   UNL     1      13.638  -7.247  32.041  0.00  0.00    -0.279 N 
ATOM      7  C   UNL     1      11.391  -7.906  31.859  0.00  0.00    +0.112 C 
ATOM      8  C   UNL     1      10.326  -8.408  32.832  0.00  0.00    +0.132 C 
ATOM     10  C   UNL     1      12.800  -8.431  32.128  0.00  0.00    +0.133 C 
ATOM     11  C   UNL     1      10.354  -5.619  31.915  0.00  0.00    +0.128 C 
ATOM     12  C   UNL     1       9.293  -6.153  32.873  0.00  0.00    +0.127 C 
ATOM     15  C   UNL     1       7.826  -8.106  32.437  0.00  0.00    +0.219 C 
ATOM     18  C   UNL     1      12.876  -6.063  31.997  0.00  0.00    +0.306 C 
ENDROOT
BRANCH  15   9
ATOM      9  C   UNL     1       7.717  -9.589  32.261  0.00  0.00    +0.075 C 
ATOM     13  C   UNL     1       8.394 -10.022  30.956  0.00  0.00    +0.013 C 
ATOM     14  C   UNL     1       6.252 -10.013  32.143  0.00  0.00    +0.013 C 
ATOM     16  C   UNL     1       7.330 -10.771  30.163  0.00  0.00    +0.001 C 
ATOM     17  C   UNL     1       6.020 -10.180  30.648  0.00  0.00    +0.001 C 
ENDBRANCH  15   9
BRANCH   6  19
ATOM     19  C   UNL     1      15.079  -7.322  32.131  0.00  0.00    +0.144 C 
BRANCH  19  20
ATOM     20  C   UNL     1      15.698  -7.806  30.851  0.00  0.00    -0.030 A 
ATOM     21  C   UNL     1      16.779  -8.687  30.887  0.00  0.00    +0.009 A 
ATOM     22  C   UNL     1      15.190  -7.376  29.625  0.00  0.00    +0.009 A 
ATOM     23  C   UNL     1      17.352  -9.136  29.697  0.00  0.00    +0.046 A 
ATOM     24  C   UNL     1      15.763  -7.825  28.435  0.00  0.00    +0.046 A 
ATOM     25  C   UNL     1      16.846  -8.705  28.472  0.00  0.00    +0.120 A 
BRANCH  25   3
ATOM      3  O   UNL     1      17.405  -9.144  27.311  0.00  0.00    -0.495 OA
ATOM     26  C   UNL     1      16.783  -8.733  26.095  0.00  0.00    +0.277 C 
ENDBRANCH  25   3
ENDBRANCH  19  20
ENDBRANCH   6  19
TORSDOF 4
ENDMDL
