MODEL 1
REMARK VINA RESULT:       1.5      0.000      0.000
REMARK  Name = 11913066
REMARK  9 active torsions:
REMARK  status: ('A' for Active; 'I' for Inactive)
REMARK    1  A    between atoms: O_3  and  C_14
REMARK    2  A    between atoms: O_3  and  C_18
REMARK    3  A    between atoms: O_5  and  C_28
REMARK    4  A    between atoms: O_5  and  C_34
REMARK    5  A    between atoms: O_6  and  C_33
REMARK    6  A    between atoms: O_6  and  C_35
REMARK    7  A    between atoms: N_7  and  C_13
REMARK    8  A    between atoms: N_10  and  C_22
REMARK    9  A    between atoms: C_19  and  C_23
REMARK                            x       y       z     vdW  Elec       q    Type
REMARK                         _______ _______ _______ _____ _____    ______ ____
ROOT
ATOM      1  O   UNL     1      -3.412   3.612  24.033  0.00  0.00    -0.368 OA
ATOM      2  O   UNL     1      -3.607   5.047  26.738  0.00  0.00    -0.368 OA
ATOM     11  C   UNL     1      -2.631   4.123  26.213  0.00  0.00    +0.173 C 
ATOM     12  C   UNL     1      -3.389   3.110  25.379  0.00  0.00    +0.192 C 
ATOM     13  C   UNL     1      -1.739   4.824  25.214  0.00  0.00    +0.130 C 
ATOM     14  C   UNL     1      -4.762   3.131  26.007  0.00  0.00    +0.235 C 
ATOM     15  C   UNL     1      -2.573   4.774  23.945  0.00  0.00    +0.185 C 
ATOM     16  C   UNL     1      -4.919   4.588  26.381  0.00  0.00    +0.207 C 
ENDROOT
BRANCH  13   7
ATOM      7  N   UNL     1      -0.507   4.086  25.035  0.00  0.00    -0.306 N 
ATOM      8  N   UNL     1       0.807   2.357  24.214  0.00  0.00    -0.214 NA
ATOM      9  N   UNL     1      -1.546   2.487  23.710  0.00  0.00    -0.223 NA
ATOM     17  C   UNL     1      -0.411   2.926  24.288  0.00  0.00    +0.216 A 
ATOM     19  C   UNL     1       0.864   1.228  23.477  0.00  0.00    +0.076 A 
ATOM     20  C   UNL     1      -1.417   1.355  22.988  0.00  0.00    +0.116 A 
ATOM     21  C   UNL     1      -0.225   0.675  22.835  0.00  0.00    +0.048 A 
ATOM     36  H   UNL     1       0.335   4.397  25.507  0.00  0.00    +0.149 HD
BRANCH  19  23
ATOM     23  C   UNL     1       2.168   0.614  23.396  0.00  0.00    +0.001 A 
ATOM     26  C   UNL     1       3.286   1.390  23.090  0.00  0.00    +0.013 A 
ATOM     27  C   UNL     1       2.311  -0.755  23.624  0.00  0.00    +0.013 A 
ATOM     30  C   UNL     1       4.546   0.797  23.011  0.00  0.00    +0.046 A 
ATOM     31  C   UNL     1       3.570  -1.348  23.546  0.00  0.00    +0.046 A 
ATOM     33  C   UNL     1       4.687  -0.572  23.239  0.00  0.00    +0.120 A 
BRANCH  33   6
ATOM      6  O   UNL     1       5.918  -1.150  23.164  0.00  0.00    -0.495 OA
ATOM     35  C   UNL     1       7.047  -0.276  23.169  0.00  0.00    +0.277 C 
ENDBRANCH  33   6
ENDBRANCH  19  23
ENDBRANCH  13   7
BRANCH  14   3
ATOM      3  O   UNL     1      -5.784   2.692  25.142  0.00  0.00    -0.442 OA
BRANCH   3  18
ATOM      4  O   UNL     1      -6.731   0.782  24.314  0.00  0.00    -0.226 OA
ATOM     10  N   UNL     1      -4.480   0.862  24.952  0.00  0.00    -0.251 N 
ATOM     18  C   UNL     1      -5.751   1.369  24.757  0.00  0.00    +0.405 C 
ATOM     37  H   UNL     1      -3.792   1.509  25.332  0.00  0.00    +0.158 HD
BRANCH  10  22
ATOM     22  C   UNL     1      -4.013  -0.446  24.690  0.00  0.00    +0.040 A 
ATOM     24  C   UNL     1      -2.761  -0.846  25.153  0.00  0.00    +0.069 A 
ATOM     25  C   UNL     1      -4.807  -1.337  23.966  0.00  0.00    +0.023 A 
ATOM     28  C   UNL     1      -2.302  -2.138  24.893  0.00  0.00    +0.122 A 
ATOM     29  C   UNL     1      -4.348  -2.627  23.707  0.00  0.00    +0.005 A 
ATOM     32  C   UNL     1      -3.095  -3.028  24.172  0.00  0.00    +0.046 A 
BRANCH  28   5
ATOM      5  O   UNL     1      -1.079  -2.529  25.346  0.00  0.00    -0.495 OA
ATOM     34  C   UNL     1      -0.175  -1.501  25.746  0.00  0.00    +0.277 C 
ENDBRANCH  28   5
ENDBRANCH  10  22
ENDBRANCH   3  18
ENDBRANCH  14   3
TORSDOF 7
ENDMDL
MODEL 2
REMARK VINA RESULT:       2.4      1.973      4.460
REMARK  Name = 11913066
REMARK  9 active torsions:
REMARK  status: ('A' for Active; 'I' for Inactive)
REMARK    1  A    between atoms: O_3  and  C_14
REMARK    2  A    between atoms: O_3  and  C_18
REMARK    3  A    between atoms: O_5  and  C_28
REMARK    4  A    between atoms: O_5  and  C_34
REMARK    5  A    between atoms: O_6  and  C_33
REMARK    6  A    between atoms: O_6  and  C_35
REMARK    7  A    between atoms: N_7  and  C_13
REMARK    8  A    between atoms: N_10  and  C_22
REMARK    9  A    between atoms: C_19  and  C_23
REMARK                            x       y       z     vdW  Elec       q    Type
REMARK                         _______ _______ _______ _____ _____    ______ ____
ROOT
ATOM      1  O   UNL     1      -3.640  -0.666  26.043  0.00  0.00    -0.368 OA
ATOM      2  O   UNL     1      -4.892  -2.142  23.661  0.00  0.00    -0.368 OA
ATOM     11  C   UNL     1      -3.557  -1.641  23.883  0.00  0.00    +0.173 C 
ATOM     12  C   UNL     1      -3.697  -0.339  24.645  0.00  0.00    +0.192 C 
ATOM     13  C   UNL     1      -2.816  -2.546  24.839  0.00  0.00    +0.130 C 
ATOM     14  C   UNL     1      -5.072   0.133  24.237  0.00  0.00    +0.235 C 
ATOM     15  C   UNL     1      -3.300  -2.053  26.192  0.00  0.00    +0.185 C 
ATOM     16  C   UNL     1      -5.836  -1.168  24.129  0.00  0.00    +0.207 C 
ENDROOT
BRANCH  13   7
ATOM      7  N   UNL     1      -1.388  -2.348  24.714  0.00  0.00    -0.306 N 
ATOM      8  N   UNL     1       0.527  -1.221  24.043  0.00  0.00    -0.214 NA
ATOM      9  N   UNL     1      -1.669  -0.362  23.545  0.00  0.00    -0.223 NA
ATOM     17  C   UNL     1      -0.818  -1.264  24.073  0.00  0.00    +0.216 A 
ATOM     19  C   UNL     1       1.049  -0.149  23.410  0.00  0.00    +0.076 A 
ATOM     20  C   UNL     1      -1.080   0.683  22.928  0.00  0.00    +0.116 A 
ATOM     21  C   UNL     1       0.287   0.844  22.828  0.00  0.00    +0.048 A 
ATOM     36  H   UNL     1      -0.753  -3.051  25.076  0.00  0.00    +0.149 HD
BRANCH  19  23
ATOM     23  C   UNL     1       2.491  -0.100  23.374  0.00  0.00    +0.001 A 
ATOM     26  C   UNL     1       3.138   1.049  22.919  0.00  0.00    +0.013 A 
ATOM     27  C   UNL     1       3.239  -1.201  23.795  0.00  0.00    +0.013 A 
ATOM     30  C   UNL     1       4.531   1.098  22.883  0.00  0.00    +0.046 A 
ATOM     31  C   UNL     1       4.632  -1.153  23.759  0.00  0.00    +0.046 A 
ATOM     33  C   UNL     1       5.277  -0.003  23.303  0.00  0.00    +0.120 A 
BRANCH  33   6
ATOM      6  O   UNL     1       6.638   0.046  23.270  0.00  0.00    -0.495 OA
ATOM     35  C   UNL     1       7.311  -1.042  22.638  0.00  0.00    +0.277 C 
ENDBRANCH  33   6
ENDBRANCH  19  23
ENDBRANCH  13   7
BRANCH  14   3
ATOM      3  O   UNL     1      -5.661   1.020  25.160  0.00  0.00    -0.442 OA
BRANCH   3  18
ATOM      4  O   UNL     1      -5.377   3.036  26.203  0.00  0.00    -0.226 OA
ATOM     10  N   UNL     1      -3.640   2.011  25.015  0.00  0.00    -0.251 N 
ATOM     18  C   UNL     1      -4.919   2.124  25.526  0.00  0.00    +0.405 C 
ATOM     37  H   UNL     1      -3.444   1.172  24.472  0.00  0.00    +0.158 HD
BRANCH  10  22
ATOM     22  C   UNL     1      -2.564   2.917  25.152  0.00  0.00    +0.040 A 
ATOM     24  C   UNL     1      -1.349   2.483  25.680  0.00  0.00    +0.069 A 
ATOM     25  C   UNL     1      -2.719   4.247  24.759  0.00  0.00    +0.023 A 
ATOM     28  C   UNL     1      -0.287   3.380  25.814  0.00  0.00    +0.122 A 
ATOM     29  C   UNL     1      -1.658   5.142  24.894  0.00  0.00    +0.005 A 
ATOM     32  C   UNL     1      -0.442   4.708  25.421  0.00  0.00    +0.046 A 
BRANCH  28   5
ATOM      5  O   UNL     1       0.899   2.956  26.329  0.00  0.00    -0.495 OA
ATOM     34  C   UNL     1       0.902   2.530  27.690  0.00  0.00    +0.277 C 
ENDBRANCH  28   5
ENDBRANCH  10  22
ENDBRANCH   3  18
ENDBRANCH  14   3
TORSDOF 7
ENDMDL
MODEL 3
REMARK VINA RESULT:       4.8      1.809      4.810
REMARK  Name = 11913066
REMARK  9 active torsions:
REMARK  status: ('A' for Active; 'I' for Inactive)
REMARK    1  A    between atoms: O_3  and  C_14
REMARK    2  A    between atoms: O_3  and  C_18
REMARK    3  A    between atoms: O_5  and  C_28
REMARK    4  A    between atoms: O_5  and  C_34
REMARK    5  A    between atoms: O_6  and  C_33
REMARK    6  A    between atoms: O_6  and  C_35
REMARK    7  A    between atoms: N_7  and  C_13
REMARK    8  A    between atoms: N_10  and  C_22
REMARK    9  A    between atoms: C_19  and  C_23
REMARK                            x       y       z     vdW  Elec       q    Type
REMARK                         _______ _______ _______ _____ _____    ______ ____
ROOT
ATOM      1  O   UNL     1      -3.490  -0.619  26.045  0.00  0.00    -0.368 OA
ATOM      2  O   UNL     1      -4.686  -2.249  23.737  0.00  0.00    -0.368 OA
ATOM     11  C   UNL     1      -3.361  -1.718  23.948  0.00  0.00    +0.173 C 
ATOM     12  C   UNL     1      -3.529  -0.375  24.630  0.00  0.00    +0.192 C 
ATOM     13  C   UNL     1      -2.624  -2.556  24.967  0.00  0.00    +0.130 C 
ATOM     14  C   UNL     1      -4.904   0.053  24.174  0.00  0.00    +0.235 C 
ATOM     15  C   UNL     1      -3.135  -1.991  26.281  0.00  0.00    +0.185 C 
ATOM     16  C   UNL     1      -5.649  -1.263  24.132  0.00  0.00    +0.207 C 
ENDROOT
BRANCH  13   7
ATOM      7  N   UNL     1      -1.196  -2.346  24.852  0.00  0.00    -0.306 N 
ATOM      8  N   UNL     1       0.715  -1.257  24.110  0.00  0.00    -0.214 NA
ATOM      9  N   UNL     1      -1.483  -0.491  23.485  0.00  0.00    -0.223 NA
ATOM     17  C   UNL     1      -0.630  -1.320  24.117  0.00  0.00    +0.216 A 
ATOM     19  C   UNL     1       1.234  -0.245  23.384  0.00  0.00    +0.076 A 
ATOM     20  C   UNL     1      -0.897   0.498  22.778  0.00  0.00    +0.116 A 
ATOM     21  C   UNL     1       0.469   0.672  22.690  0.00  0.00    +0.048 A 
ATOM     36  H   UNL     1      -0.558  -2.998  25.294  0.00  0.00    +0.149 HD
BRANCH  19  23
ATOM     23  C   UNL     1       2.675  -0.173  23.373  0.00  0.00    +0.001 A 
ATOM     26  C   UNL     1       3.312   0.990  22.939  0.00  0.00    +0.013 A 
ATOM     27  C   UNL     1       3.433  -1.267  23.795  0.00  0.00    +0.013 A 
ATOM     30  C   UNL     1       4.705   1.060  22.927  0.00  0.00    +0.046 A 
ATOM     31  C   UNL     1       4.825  -1.198  23.784  0.00  0.00    +0.046 A 
ATOM     33  C   UNL     1       5.461  -0.034  23.349  0.00  0.00    +0.120 A 
BRANCH  33   6
ATOM      6  O   UNL     1       6.821   0.035  23.339  0.00  0.00    -0.495 OA
ATOM     35  C   UNL     1       7.517  -0.983  22.622  0.00  0.00    +0.277 C 
ENDBRANCH  33   6
ENDBRANCH  19  23
ENDBRANCH  13   7
BRANCH  14   3
ATOM      3  O   UNL     1      -5.518   0.984  25.035  0.00  0.00    -0.442 OA
BRANCH   3  18
ATOM      4  O   UNL     1      -5.239   3.025  26.028  0.00  0.00    -0.226 OA
ATOM     10  N   UNL     1      -3.468   1.921  24.967  0.00  0.00    -0.251 N 
ATOM     18  C   UNL     1      -4.769   2.081  25.405  0.00  0.00    +0.405 C 
ATOM     37  H   UNL     1      -3.266   1.061  24.462  0.00  0.00    +0.158 HD
BRANCH  10  22
ATOM     22  C   UNL     1      -2.378   2.805  25.133  0.00  0.00    +0.040 A 
ATOM     24  C   UNL     1      -2.546   4.170  24.904  0.00  0.00    +0.069 A 
ATOM     25  C   UNL     1      -1.133   2.312  25.526  0.00  0.00    +0.023 A 
ATOM     28  C   UNL     1      -1.469   5.043  25.068  0.00  0.00    +0.122 A 
ATOM     29  C   UNL     1      -0.058   3.184  25.690  0.00  0.00    +0.005 A 
ATOM     32  C   UNL     1      -0.226   4.549  25.461  0.00  0.00    +0.046 A 
BRANCH  28   5
ATOM      5  O   UNL     1      -1.633   6.375  24.845  0.00  0.00    -0.495 OA
ATOM     34  C   UNL     1      -2.450   6.753  23.738  0.00  0.00    +0.277 C 
ENDBRANCH  28   5
ENDBRANCH  10  22
ENDBRANCH   3  18
ENDBRANCH  14   3
TORSDOF 7
ENDMDL
