MODEL 1
REMARK VINA RESULT:      -5.2      0.000      0.000
REMARK  Name = 75536608
REMARK  8 active torsions:
REMARK  status: ('A' for Active; 'I' for Inactive)
REMARK    1  A    between atoms: O_3  and  C_10
REMARK    2  A    between atoms: N_5  and  C_9
REMARK    3  A    between atoms: N_5  and  C_14
REMARK    4  A    between atoms: N_6  and  C_13
REMARK    5  A    between atoms: N_7  and  C_18
REMARK    6  A    between atoms: C_11  and  C_13
REMARK    7  A    between atoms: C_14  and  C_15
REMARK    8  A    between atoms: C_16  and  C_20
REMARK                            x       y       z     vdW  Elec       q    Type
REMARK                         _______ _______ _______ _____ _____    ______ ____
ROOT
ATOM      2  O   UNL     1      -0.197   3.243  23.639  0.00  0.00    -0.371 OA
ATOM      9  C   UNL     1      -1.069   3.786  25.780  0.00  0.00    +0.111 C 
ATOM     10  C   UNL     1      -0.547   2.362  25.805  0.00  0.00    +0.164 C 
ATOM     11  C   UNL     1       0.404   2.377  24.615  0.00  0.00    +0.165 C 
ATOM     12  C   UNL     1      -1.214   4.027  24.287  0.00  0.00    +0.181 C 
ENDROOT
BRANCH  10   3
ATOM      3  O   UNL     1       0.122   2.047  27.010  0.00  0.00    -0.388 OA
ATOM     25  H   UNL     1       0.970   2.523  27.023  0.00  0.00    +0.210 HD
ENDBRANCH  10   3
BRANCH   9   5
ATOM      5  N   UNL     1      -2.316   3.964  26.506  0.00  0.00    -0.302 NA
ATOM     24  H   UNL     1      -2.178   4.659  27.241  0.00  0.00    +0.123 HD
BRANCH   5  14
ATOM     14  C   UNL     1      -3.380   4.419  25.619  0.00  0.00    +0.156 C 
BRANCH  14  15
ATOM      7  N   UNL     1      -4.748   2.688  24.409  0.00  0.00    -0.336 N 
ATOM      8  N   UNL     1      -5.360   3.141  26.495  0.00  0.00    -0.239 NA
ATOM     15  C   UNL     1      -4.505   3.421  25.537  0.00  0.00    +0.123 A 
ATOM     17  C   UNL     1      -5.825   1.889  24.664  0.00  0.00    +0.106 A 
ATOM     18  C   UNL     1      -4.011   2.736  23.168  0.00  0.00    +0.150 C 
ATOM     19  C   UNL     1      -6.187   2.186  25.957  0.00  0.00    +0.130 A 
ENDBRANCH  14  15
ENDBRANCH   5  14
ENDBRANCH   9   5
BRANCH  11  13
ATOM     13  C   UNL     1       0.631   1.002  24.012  0.00  0.00    +0.138 C 
BRANCH  13   6
ATOM      4  O   UNL     1       0.017  -1.451  25.372  0.00  0.00    -0.270 OA
ATOM      6  N   UNL     1      -0.596   0.260  23.930  0.00  0.00    -0.308 N 
ATOM     16  C   UNL     1      -0.807  -0.925  24.628  0.00  0.00    +0.251 C 
ATOM     26  H   UNL     1      -1.317   0.629  23.321  0.00  0.00    +0.149 HD
BRANCH  16  20
ATOM      1  S   UNL     1      -3.474  -0.631  23.985  0.00  0.00    -0.092 S 
ATOM     20  C   UNL     1      -2.120  -1.586  24.416  0.00  0.00    +0.074 A 
ATOM     21  C   UNL     1      -2.440  -2.923  24.516  0.00  0.00    +0.021 A 
ATOM     22  C   UNL     1      -3.815  -3.166  24.235  0.00  0.00    +0.008 A 
ATOM     23  C   UNL     1      -4.494  -2.006  23.932  0.00  0.00    +0.046 A 
ENDBRANCH  16  20
ENDBRANCH  13   6
ENDBRANCH  11  13
TORSDOF 7
ENDMDL
MODEL 2
REMARK VINA RESULT:      -4.2      2.083      4.703
REMARK  Name = 75536608
REMARK  8 active torsions:
REMARK  status: ('A' for Active; 'I' for Inactive)
REMARK    1  A    between atoms: O_3  and  C_10
REMARK    2  A    between atoms: N_5  and  C_9
REMARK    3  A    between atoms: N_5  and  C_14
REMARK    4  A    between atoms: N_6  and  C_13
REMARK    5  A    between atoms: N_7  and  C_18
REMARK    6  A    between atoms: C_11  and  C_13
REMARK    7  A    between atoms: C_14  and  C_15
REMARK    8  A    between atoms: C_16  and  C_20
REMARK                            x       y       z     vdW  Elec       q    Type
REMARK                         _______ _______ _______ _____ _____    ______ ____
ROOT
ATOM      2  O   UNL     1      -3.491   4.221  25.595  0.00  0.00    -0.371 OA
ATOM      9  C   UNL     1      -1.218   3.820  25.034  0.00  0.00    +0.111 C 
ATOM     10  C   UNL     1      -2.106   2.993  24.124  0.00  0.00    +0.164 C 
ATOM     11  C   UNL     1      -3.426   3.742  24.242  0.00  0.00    +0.165 C 
ATOM     12  C   UNL     1      -2.174   4.148  26.169  0.00  0.00    +0.181 C 
ENDROOT
BRANCH  10   3
ATOM      3  O   UNL     1      -1.637   2.957  22.790  0.00  0.00    -0.388 OA
ATOM     25  H   UNL     1      -1.190   3.799  22.600  0.00  0.00    +0.210 HD
ENDBRANCH  10   3
BRANCH   9   5
ATOM      5  N   UNL     1      -0.026   3.119  25.483  0.00  0.00    -0.302 NA
ATOM     24  H   UNL     1       0.143   3.343  26.465  0.00  0.00    +0.123 HD
BRANCH   5  14
ATOM     14  C   UNL     1      -0.182   1.676  25.347  0.00  0.00    +0.156 C 
BRANCH  14  15
ATOM      7  N   UNL     1       0.447  -0.081  23.661  0.00  0.00    -0.336 N 
ATOM      8  N   UNL     1       1.795   1.679  23.794  0.00  0.00    -0.239 NA
ATOM     15  C   UNL     1       0.706   1.116  24.268  0.00  0.00    +0.123 A 
ATOM     17  C   UNL     1       1.433  -0.295  22.740  0.00  0.00    +0.106 A 
ATOM     18  C   UNL     1      -0.660  -0.969  23.930  0.00  0.00    +0.150 C 
ATOM     19  C   UNL     1       2.253   0.805  22.840  0.00  0.00    +0.130 A 
ENDBRANCH  14  15
ENDBRANCH   5  14
ENDBRANCH   9   5
BRANCH  11  13
ATOM     13  C   UNL     1      -4.637   2.873  23.947  0.00  0.00    +0.138 C 
BRANCH  13   6
ATOM      4  O   UNL     1      -5.349   0.936  25.943  0.00  0.00    -0.270 OA
ATOM      6  N   UNL     1      -4.291   1.480  23.951  0.00  0.00    -0.308 N 
ATOM     16  C   UNL     1      -4.682   0.610  24.965  0.00  0.00    +0.251 C 
ATOM     26  H   UNL     1      -3.727   1.143  23.179  0.00  0.00    +0.149 HD
BRANCH  16  20
ATOM      1  S   UNL     1      -3.343  -1.506  26.124  0.00  0.00    -0.092 S 
ATOM     20  C   UNL     1      -4.222  -0.796  24.837  0.00  0.00    +0.074 A 
ATOM     21  C   UNL     1      -4.400  -1.671  23.788  0.00  0.00    +0.021 A 
ATOM     22  C   UNL     1      -3.808  -2.942  24.044  0.00  0.00    +0.008 A 
ATOM     23  C   UNL     1      -3.198  -2.988  25.278  0.00  0.00    +0.046 A 
ENDBRANCH  16  20
ENDBRANCH  13   6
ENDBRANCH  11  13
TORSDOF 7
ENDMDL
MODEL 3
REMARK VINA RESULT:      -4.1      3.076      5.159
REMARK  Name = 75536608
REMARK  8 active torsions:
REMARK  status: ('A' for Active; 'I' for Inactive)
REMARK    1  A    between atoms: O_3  and  C_10
REMARK    2  A    between atoms: N_5  and  C_9
REMARK    3  A    between atoms: N_5  and  C_14
REMARK    4  A    between atoms: N_6  and  C_13
REMARK    5  A    between atoms: N_7  and  C_18
REMARK    6  A    between atoms: C_11  and  C_13
REMARK    7  A    between atoms: C_14  and  C_15
REMARK    8  A    between atoms: C_16  and  C_20
REMARK                            x       y       z     vdW  Elec       q    Type
REMARK                         _______ _______ _______ _____ _____    ______ ____
ROOT
ATOM      2  O   UNL     1      -0.766  -0.179  25.522  0.00  0.00    -0.371 OA
ATOM      9  C   UNL     1      -3.011  -0.926  25.730  0.00  0.00    +0.111 C 
ATOM     10  C   UNL     1      -2.511  -1.246  24.335  0.00  0.00    +0.164 C 
ATOM     11  C   UNL     1      -1.003  -1.208  24.547  0.00  0.00    +0.165 C 
ATOM     12  C   UNL     1      -2.011   0.129  26.174  0.00  0.00    +0.181 C 
ENDROOT
BRANCH  10   3
ATOM      3  O   UNL     1      -2.946  -2.511  23.875  0.00  0.00    -0.388 OA
ATOM     25  H   UNL     1      -2.344  -2.806  23.173  0.00  0.00    +0.210 HD
ENDBRANCH  10   3
BRANCH   9   5
ATOM      5  N   UNL     1      -4.385  -0.452  25.764  0.00  0.00    -0.302 NA
ATOM     24  H   UNL     1      -4.506   0.164  26.568  0.00  0.00    +0.123 HD
BRANCH   5  14
ATOM     14  C   UNL     1      -4.718   0.284  24.551  0.00  0.00    +0.156 C 
BRANCH  14  15
ATOM      7  N   UNL     1      -3.730   2.547  24.064  0.00  0.00    -0.336 N 
ATOM      8  N   UNL     1      -5.348   2.488  25.585  0.00  0.00    -0.239 NA
ATOM     15  C   UNL     1      -4.621   1.773  24.754  0.00  0.00    +0.123 A 
ATOM     17  C   UNL     1      -3.899   3.836  24.479  0.00  0.00    +0.106 A 
ATOM     18  C   UNL     1      -2.779   2.099  23.074  0.00  0.00    +0.150 C 
ATOM     19  C   UNL     1      -4.903   3.776  25.418  0.00  0.00    +0.130 A 
ENDBRANCH  14  15
ENDBRANCH   5  14
ENDBRANCH   9   5
BRANCH  11  13
ATOM     13  C   UNL     1      -0.226  -0.903  23.279  0.00  0.00    +0.138 C 
BRANCH  13   6
ATOM      4  O   UNL     1       1.824  -0.245  21.379  0.00  0.00    -0.270 OA
ATOM      6  N   UNL     1       1.158  -0.649  23.564  0.00  0.00    -0.308 N 
ATOM     16  C   UNL     1       2.085  -0.336  22.576  0.00  0.00    +0.251 C 
ATOM     26  H   UNL     1       1.449  -0.722  24.533  0.00  0.00    +0.149 HD
BRANCH  16  20
ATOM      1  S   UNL     1       4.304  -1.407  23.820  0.00  0.00    -0.092 S 
ATOM     20  C   UNL     1       3.484  -0.127  23.031  0.00  0.00    +0.074 A 
ATOM     21  C   UNL     1       4.273   0.996  22.911  0.00  0.00    +0.021 A 
ATOM     22  C   UNL     1       5.567   0.803  23.475  0.00  0.00    +0.008 A 
ATOM     23  C   UNL     1       5.718  -0.459  24.004  0.00  0.00    +0.046 A 
ENDBRANCH  16  20
ENDBRANCH  13   6
ENDBRANCH  11  13
TORSDOF 7
ENDMDL
MODEL 4
REMARK VINA RESULT:      -3.8      2.362      4.515
REMARK  Name = 75536608
REMARK  8 active torsions:
REMARK  status: ('A' for Active; 'I' for Inactive)
REMARK    1  A    between atoms: O_3  and  C_10
REMARK    2  A    between atoms: N_5  and  C_9
REMARK    3  A    between atoms: N_5  and  C_14
REMARK    4  A    between atoms: N_6  and  C_13
REMARK    5  A    between atoms: N_7  and  C_18
REMARK    6  A    between atoms: C_11  and  C_13
REMARK    7  A    between atoms: C_14  and  C_15
REMARK    8  A    between atoms: C_16  and  C_20
REMARK                            x       y       z     vdW  Elec       q    Type
REMARK                         _______ _______ _______ _____ _____    ______ ____
ROOT
ATOM      2  O   UNL     1      -5.707   3.092  26.104  0.00  0.00    -0.371 OA
ATOM      9  C   UNL     1      -4.079   4.165  24.748  0.00  0.00    +0.111 C 
ATOM     10  C   UNL     1      -4.135   2.694  24.383  0.00  0.00    +0.164 C 
ATOM     11  C   UNL     1      -5.511   2.312  24.913  0.00  0.00    +0.165 C 
ATOM     12  C   UNL     1      -4.745   4.162  26.114  0.00  0.00    +0.181 C 
ENDROOT
BRANCH  10   3
ATOM      3  O   UNL     1      -4.028   2.473  22.990  0.00  0.00    -0.388 OA
ATOM     25  H   UNL     1      -3.085   2.451  22.756  0.00  0.00    +0.210 HD
ENDBRANCH  10   3
BRANCH   9   5
ATOM      5  N   UNL     1      -2.731   4.709  24.778  0.00  0.00    -0.302 NA
ATOM     24  H   UNL     1      -2.771   5.682  25.083  0.00  0.00    +0.123 HD
BRANCH   5  14
ATOM     14  C   UNL     1      -1.882   3.960  25.694  0.00  0.00    +0.156 C 
BRANCH  14  15
ATOM      7  N   UNL     1       0.092   2.404  25.577  0.00  0.00    -0.336 N 
ATOM      8  N   UNL     1      -1.063   2.668  23.699  0.00  0.00    -0.239 NA
ATOM     15  C   UNL     1      -0.966   3.013  24.963  0.00  0.00    +0.123 A 
ATOM     17  C   UNL     1       0.710   1.620  24.645  0.00  0.00    +0.106 A 
ATOM     18  C   UNL     1       0.497   2.551  26.956  0.00  0.00    +0.150 C 
ATOM     19  C   UNL     1      -0.020   1.799  23.494  0.00  0.00    +0.130 A 
ENDBRANCH  14  15
ENDBRANCH   5  14
ENDBRANCH   9   5
BRANCH  11  13
ATOM     13  C   UNL     1      -5.638   0.835  25.240  0.00  0.00    +0.138 C 
BRANCH  13   6
ATOM      4  O   UNL     1      -4.791  -1.517  23.826  0.00  0.00    -0.270 OA
ATOM      6  N   UNL     1      -4.350   0.205  25.318  0.00  0.00    -0.308 N 
ATOM     16  C   UNL     1      -4.026  -0.937  24.593  0.00  0.00    +0.251 C 
ATOM     26  H   UNL     1      -3.672   0.622  25.945  0.00  0.00    +0.149 HD
BRANCH  16  20
ATOM      1  S   UNL     1      -1.593  -0.669  25.869  0.00  0.00    -0.092 S 
ATOM     20  C   UNL     1      -2.660  -1.482  24.803  0.00  0.00    +0.074 A 
ATOM     21  C   UNL     1      -2.082  -2.602  24.247  0.00  0.00    +0.021 A 
ATOM     22  C   UNL     1      -0.745  -2.795  24.701  0.00  0.00    +0.008 A 
ATOM     23  C   UNL     1      -0.353  -1.816  25.586  0.00  0.00    +0.046 A 
ENDBRANCH  16  20
ENDBRANCH  13   6
ENDBRANCH  11  13
TORSDOF 7
ENDMDL
MODEL 5
REMARK VINA RESULT:      -3.6      2.260      4.612
REMARK  Name = 75536608
REMARK  8 active torsions:
REMARK  status: ('A' for Active; 'I' for Inactive)
REMARK    1  A    between atoms: O_3  and  C_10
REMARK    2  A    between atoms: N_5  and  C_9
REMARK    3  A    between atoms: N_5  and  C_14
REMARK    4  A    between atoms: N_6  and  C_13
REMARK    5  A    between atoms: N_7  and  C_18
REMARK    6  A    between atoms: C_11  and  C_13
REMARK    7  A    between atoms: C_14  and  C_15
REMARK    8  A    between atoms: C_16  and  C_20
REMARK                            x       y       z     vdW  Elec       q    Type
REMARK                         _______ _______ _______ _____ _____    ______ ____
ROOT
ATOM      2  O   UNL     1      -2.641   3.386  23.172  0.00  0.00    -0.371 OA
ATOM      9  C   UNL     1      -4.497   2.625  24.442  0.00  0.00    +0.111 C 
ATOM     10  C   UNL     1      -3.418   3.115  25.388  0.00  0.00    +0.164 C 
ATOM     11  C   UNL     1      -2.602   4.011  24.465  0.00  0.00    +0.165 C 
ATOM     12  C   UNL     1      -3.704   2.417  23.163  0.00  0.00    +0.181 C 
ENDROOT
BRANCH  10   3
ATOM      3  O   UNL     1      -3.942   3.832  26.490  0.00  0.00    -0.388 OA
ATOM     25  H   UNL     1      -4.341   4.653  26.158  0.00  0.00    +0.210 HD
ENDBRANCH  10   3
BRANCH   9   5
ATOM      5  N   UNL     1      -5.167   1.417  24.895  0.00  0.00    -0.302 NA
ATOM     24  H   UNL     1      -5.485   0.887  24.083  0.00  0.00    +0.123 HD
BRANCH   5  14
ATOM     14  C   UNL     1      -4.269   0.581  25.682  0.00  0.00    +0.156 C 
BRANCH  14  15
ATOM      7  N   UNL     1      -2.782  -1.395  25.218  0.00  0.00    -0.336 N 
ATOM      8  N   UNL     1      -4.681  -1.305  24.071  0.00  0.00    -0.239 NA
ATOM     15  C   UNL     1      -3.937  -0.706  24.974  0.00  0.00    +0.123 A 
ATOM     17  C   UNL     1      -2.790  -2.504  24.421  0.00  0.00    +0.106 A 
ATOM     18  C   UNL     1      -1.735  -1.032  26.145  0.00  0.00    +0.150 C 
ATOM     19  C   UNL     1      -3.971  -2.427  23.722  0.00  0.00    +0.130 A 
ENDBRANCH  14  15
ENDBRANCH   5  14
ENDBRANCH   9   5
BRANCH  11  13
ATOM     13  C   UNL     1      -1.161   4.179  24.912  0.00  0.00    +0.138 C 
BRANCH  13   6
ATOM      4  O   UNL     1      -0.225   1.603  25.769  0.00  0.00    -0.270 OA
ATOM      6  N   UNL     1      -0.286   3.300  24.189  0.00  0.00    -0.308 N 
ATOM     16  C   UNL     1       0.117   2.064  24.683  0.00  0.00    +0.251 C 
ATOM     26  H   UNL     1       0.050   3.624  23.288  0.00  0.00    +0.149 HD
BRANCH  16  20
ATOM      1  S   UNL     1       0.516  -0.201  23.157  0.00  0.00    -0.092 S 
ATOM     20  C   UNL     1       1.046   1.285  23.826  0.00  0.00    +0.074 A 
ATOM     21  C   UNL     1       2.340   1.584  23.459  0.00  0.00    +0.021 A 
ATOM     22  C   UNL     1       2.904   0.581  22.619  0.00  0.00    +0.008 A 
ATOM     23  C   UNL     1       2.020  -0.447  22.376  0.00  0.00    +0.046 A 
ENDBRANCH  16  20
ENDBRANCH  13   6
ENDBRANCH  11  13
TORSDOF 7
ENDMDL
MODEL 6
REMARK VINA RESULT:      -3.6      2.162      4.517
REMARK  Name = 75536608
REMARK  8 active torsions:
REMARK  status: ('A' for Active; 'I' for Inactive)
REMARK    1  A    between atoms: O_3  and  C_10
REMARK    2  A    between atoms: N_5  and  C_9
REMARK    3  A    between atoms: N_5  and  C_14
REMARK    4  A    between atoms: N_6  and  C_13
REMARK    5  A    between atoms: N_7  and  C_18
REMARK    6  A    between atoms: C_11  and  C_13
REMARK    7  A    between atoms: C_14  and  C_15
REMARK    8  A    between atoms: C_16  and  C_20
REMARK                            x       y       z     vdW  Elec       q    Type
REMARK                         _______ _______ _______ _____ _____    ______ ____
ROOT
ATOM      2  O   UNL     1      -2.900   4.469  26.199  0.00  0.00    -0.371 OA
ATOM      9  C   UNL     1      -1.572   4.205  24.248  0.00  0.00    +0.111 C 
ATOM     10  C   UNL     1      -2.725   3.221  24.199  0.00  0.00    +0.164 C 
ATOM     11  C   UNL     1      -3.703   3.865  25.172  0.00  0.00    +0.165 C 
ATOM     12  C   UNL     1      -1.545   4.563  25.724  0.00  0.00    +0.181 C 
ENDROOT
BRANCH  10   3
ATOM      3  O   UNL     1      -3.278   3.093  22.903  0.00  0.00    -0.388 OA
ATOM     25  H   UNL     1      -3.949   2.390  22.925  0.00  0.00    +0.210 HD
ENDBRANCH  10   3
BRANCH   9   5
ATOM      5  N   UNL     1      -0.312   3.653  23.776  0.00  0.00    -0.302 NA
ATOM     24  H   UNL     1       0.345   4.416  23.609  0.00  0.00    +0.123 HD
BRANCH   5  14
ATOM     14  C   UNL     1       0.262   2.741  24.758  0.00  0.00    +0.156 C 
BRANCH  14  15
ATOM      7  N   UNL     1       1.018   0.630  23.617  0.00  0.00    -0.336 N 
ATOM      8  N   UNL     1      -0.945   0.538  24.651  0.00  0.00    -0.239 NA
ATOM     15  C   UNL     1       0.085   1.301  24.356  0.00  0.00    +0.123 A 
ATOM     17  C   UNL     1       0.557  -0.641  23.428  0.00  0.00    +0.106 A 
ATOM     18  C   UNL     1       2.270   1.153  23.119  0.00  0.00    +0.150 C 
ATOM     19  C   UNL     1      -0.657  -0.674  24.075  0.00  0.00    +0.130 A 
ENDBRANCH  14  15
ENDBRANCH   5  14
ENDBRANCH   9   5
BRANCH  11  13
ATOM     13  C   UNL     1      -4.671   2.874  25.794  0.00  0.00    +0.138 C 
BRANCH  13   6
ATOM      4  O   UNL     1      -5.994   0.815  24.291  0.00  0.00    -0.270 OA
ATOM      6  N   UNL     1      -4.222   1.523  25.611  0.00  0.00    -0.308 N 
ATOM     16  C   UNL     1      -4.931   0.588  24.863  0.00  0.00    +0.251 C 
ATOM     26  H   UNL     1      -3.356   1.260  26.069  0.00  0.00    +0.149 HD
BRANCH  16  20
ATOM      1  S   UNL     1      -3.470  -1.378  26.134  0.00  0.00    -0.092 S 
ATOM     20  C   UNL     1      -4.347  -0.775  24.792  0.00  0.00    +0.074 A 
ATOM     21  C   UNL     1      -4.401  -1.686  23.759  0.00  0.00    +0.021 A 
ATOM     22  C   UNL     1      -3.714  -2.894  24.074  0.00  0.00    +0.008 A 
ATOM     23  C   UNL     1      -3.161  -2.860  25.335  0.00  0.00    +0.046 A 
ENDBRANCH  16  20
ENDBRANCH  13   6
ENDBRANCH  11  13
TORSDOF 7
ENDMDL
MODEL 7
REMARK VINA RESULT:      -3.5      2.992      4.611
REMARK  Name = 75536608
REMARK  8 active torsions:
REMARK  status: ('A' for Active; 'I' for Inactive)
REMARK    1  A    between atoms: O_3  and  C_10
REMARK    2  A    between atoms: N_5  and  C_9
REMARK    3  A    between atoms: N_5  and  C_14
REMARK    4  A    between atoms: N_6  and  C_13
REMARK    5  A    between atoms: N_7  and  C_18
REMARK    6  A    between atoms: C_11  and  C_13
REMARK    7  A    between atoms: C_14  and  C_15
REMARK    8  A    between atoms: C_16  and  C_20
REMARK                            x       y       z     vdW  Elec       q    Type
REMARK                         _______ _______ _______ _____ _____    ______ ____
ROOT
ATOM      2  O   UNL     1      -0.602   0.294  25.595  0.00  0.00    -0.371 OA
ATOM      9  C   UNL     1      -1.465   2.381  24.859  0.00  0.00    +0.111 C 
ATOM     10  C   UNL     1      -1.219   1.494  23.653  0.00  0.00    +0.164 C 
ATOM     11  C   UNL     1      -1.201   0.116  24.301  0.00  0.00    +0.165 C 
ATOM     12  C   UNL     1      -0.613   1.697  25.915  0.00  0.00    +0.181 C 
ENDROOT
BRANCH  10   3
ATOM      3  O   UNL     1      -2.237   1.604  22.678  0.00  0.00    -0.388 OA
ATOM     25  H   UNL     1      -1.825   1.844  21.831  0.00  0.00    +0.210 HD
ENDBRANCH  10   3
BRANCH   9   5
ATOM      5  N   UNL     1      -1.097   3.771  24.647  0.00  0.00    -0.302 NA
ATOM     24  H   UNL     1      -0.538   3.842  23.796  0.00  0.00    +0.123 HD
BRANCH   5  14
ATOM     14  C   UNL     1      -2.278   4.613  24.509  0.00  0.00    +0.156 C 
BRANCH  14  15
ATOM      7  N   UNL     1      -4.087   3.702  26.002  0.00  0.00    -0.336 N 
ATOM      8  N   UNL     1      -4.268   3.230  23.839  0.00  0.00    -0.239 NA
ATOM     15  C   UNL     1      -3.548   3.841  24.753  0.00  0.00    +0.123 A 
ATOM     17  C   UNL     1      -5.224   2.955  25.876  0.00  0.00    +0.106 A 
ATOM     18  C   UNL     1      -3.565   4.239  27.237  0.00  0.00    +0.150 C 
ATOM     19  C   UNL     1      -5.315   2.675  24.533  0.00  0.00    +0.130 A 
ENDBRANCH  14  15
ENDBRANCH   5  14
ENDBRANCH   9   5
BRANCH  11  13
ATOM     13  C   UNL     1      -0.410  -0.909  23.507  0.00  0.00    +0.138 C 
BRANCH  13   6
ATOM      4  O   UNL     1       1.589  -0.264  21.549  0.00  0.00    -0.270 OA
ATOM      6  N   UNL     1       1.000  -0.771  23.735  0.00  0.00    -0.308 N 
ATOM     16  C   UNL     1       1.900  -0.454  22.722  0.00  0.00    +0.251 C 
ATOM     26  H   UNL     1       1.331  -0.929  24.681  0.00  0.00    +0.149 HD
BRANCH  16  20
ATOM      1  S   UNL     1       4.228   1.027  22.710  0.00  0.00    -0.092 S 
ATOM     20  C   UNL     1       3.329  -0.373  23.116  0.00  0.00    +0.074 A 
ATOM     21  C   UNL     1       4.092  -1.298  23.796  0.00  0.00    +0.021 A 
ATOM     22  C   UNL     1       5.432  -0.851  23.985  0.00  0.00    +0.008 A 
ATOM     23  C   UNL     1       5.642   0.398  23.443  0.00  0.00    +0.046 A 
ENDBRANCH  16  20
ENDBRANCH  13   6
ENDBRANCH  11  13
TORSDOF 7
ENDMDL
MODEL 8
REMARK VINA RESULT:      -3.4      2.180      4.596
REMARK  Name = 75536608
REMARK  8 active torsions:
REMARK  status: ('A' for Active; 'I' for Inactive)
REMARK    1  A    between atoms: O_3  and  C_10
REMARK    2  A    between atoms: N_5  and  C_9
REMARK    3  A    between atoms: N_5  and  C_14
REMARK    4  A    between atoms: N_6  and  C_13
REMARK    5  A    between atoms: N_7  and  C_18
REMARK    6  A    between atoms: C_11  and  C_13
REMARK    7  A    between atoms: C_14  and  C_15
REMARK    8  A    between atoms: C_16  and  C_20
REMARK                            x       y       z     vdW  Elec       q    Type
REMARK                         _______ _______ _______ _____ _____    ______ ____
ROOT
ATOM      2  O   UNL     1      -1.370  -2.150  23.620  0.00  0.00    -0.371 OA
ATOM      9  C   UNL     1       0.047  -0.557  24.666  0.00  0.00    +0.111 C 
ATOM     10  C   UNL     1      -1.224  -0.700  25.482  0.00  0.00    +0.164 C 
ATOM     11  C   UNL     1      -1.725  -2.058  25.010  0.00  0.00    +0.165 C 
ATOM     12  C   UNL     1      -0.385  -1.143  23.332  0.00  0.00    +0.181 C 
ENDROOT
BRANCH  10   3
ATOM      3  O   UNL     1      -0.982  -0.683  26.876  0.00  0.00    -0.388 OA
ATOM     25  H   UNL     1      -0.050  -0.454  27.022  0.00  0.00    +0.210 HD
ENDBRANCH  10   3
BRANCH   9   5
ATOM      5  N   UNL     1       0.520   0.813  24.556  0.00  0.00    -0.302 NA
ATOM     24  H   UNL     1       1.403   0.821  24.044  0.00  0.00    +0.123 HD
BRANCH   5  14
ATOM     14  C   UNL     1      -0.444   1.647  23.850  0.00  0.00    +0.156 C 
BRANCH  14  15
ATOM      7  N   UNL     1      -0.866   4.052  24.459  0.00  0.00    -0.336 N 
ATOM      8  N   UNL     1      -1.690   2.529  25.849  0.00  0.00    -0.239 NA
ATOM     15  C   UNL     1      -1.012   2.722  24.739  0.00  0.00    +0.123 A 
ATOM     17  C   UNL     1      -1.490   4.751  25.451  0.00  0.00    +0.106 A 
ATOM     18  C   UNL     1      -0.181   4.628  23.325  0.00  0.00    +0.150 C 
ATOM     19  C   UNL     1      -1.991   3.791  26.298  0.00  0.00    +0.130 A 
ENDBRANCH  14  15
ENDBRANCH   5  14
ENDBRANCH   9   5
BRANCH  11  13
ATOM     13  C   UNL     1      -3.225  -2.233  25.169  0.00  0.00    +0.138 C 
BRANCH  13   6
ATOM      4  O   UNL     1      -3.937  -0.197  23.273  0.00  0.00    -0.270 OA
ATOM      6  N   UNL     1      -3.867  -0.981  25.456  0.00  0.00    -0.308 N 
ATOM     16  C   UNL     1      -4.176  -0.050  24.469  0.00  0.00    +0.251 C 
ATOM     26  H   UNL     1      -4.081  -0.786  26.427  0.00  0.00    +0.149 HD
BRANCH  16  20
ATOM      1  S   UNL     1      -4.495   2.665  24.091  0.00  0.00    -0.092 S 
ATOM     20  C   UNL     1      -4.816   1.208  24.931  0.00  0.00    +0.074 A 
ATOM     21  C   UNL     1      -5.678   1.401  25.989  0.00  0.00    +0.021 A 
ATOM     22  C   UNL     1      -6.080   2.763  26.111  0.00  0.00    +0.008 A 
ATOM     23  C   UNL     1      -5.509   3.558  25.142  0.00  0.00    +0.046 A 
ENDBRANCH  16  20
ENDBRANCH  13   6
ENDBRANCH  11  13
TORSDOF 7
ENDMDL
MODEL 9
REMARK VINA RESULT:      -3.3      2.854      6.739
REMARK  Name = 75536608
REMARK  8 active torsions:
REMARK  status: ('A' for Active; 'I' for Inactive)
REMARK    1  A    between atoms: O_3  and  C_10
REMARK    2  A    between atoms: N_5  and  C_9
REMARK    3  A    between atoms: N_5  and  C_14
REMARK    4  A    between atoms: N_6  and  C_13
REMARK    5  A    between atoms: N_7  and  C_18
REMARK    6  A    between atoms: C_11  and  C_13
REMARK    7  A    between atoms: C_14  and  C_15
REMARK    8  A    between atoms: C_16  and  C_20
REMARK                            x       y       z     vdW  Elec       q    Type
REMARK                         _______ _______ _______ _____ _____    ______ ____
ROOT
ATOM      2  O   UNL     1      -1.663  -2.632  23.885  0.00  0.00    -0.371 OA
ATOM      9  C   UNL     1       0.048  -1.065  24.393  0.00  0.00    +0.111 C 
ATOM     10  C   UNL     1      -1.155  -0.786  25.272  0.00  0.00    +0.164 C 
ATOM     11  C   UNL     1      -1.881  -2.123  25.211  0.00  0.00    +0.165 C 
ATOM     12  C   UNL     1      -0.574  -1.905  23.290  0.00  0.00    +0.181 C 
ENDROOT
BRANCH  10   3
ATOM      3  O   UNL     1      -0.796  -0.441  26.596  0.00  0.00    -0.388 OA
ATOM     25  H   UNL     1      -0.076   0.211  26.558  0.00  0.00    +0.210 HD
ENDBRANCH  10   3
BRANCH   9   5
ATOM      5  N   UNL     1       0.698   0.135  23.891  0.00  0.00    -0.302 NA
ATOM     24  H   UNL     1       1.272   0.538  24.633  0.00  0.00    +0.123 HD
BRANCH   5  14
ATOM     14  C   UNL     1       1.548  -0.166  22.747  0.00  0.00    +0.156 C 
BRANCH  14  15
ATOM      7  N   UNL     1       3.948   0.550  22.987  0.00  0.00    -0.336 N 
ATOM      8  N   UNL     1       3.457  -1.493  23.704  0.00  0.00    -0.239 NA
ATOM     15  C   UNL     1       2.979  -0.399  23.157  0.00  0.00    +0.123 A 
ATOM     17  C   UNL     1       5.119   0.028  23.457  0.00  0.00    +0.106 A 
ATOM     18  C   UNL     1       3.782   1.867  22.418  0.00  0.00    +0.150 C 
ATOM     19  C   UNL     1       4.792  -1.234  23.894  0.00  0.00    +0.130 A 
ENDBRANCH  14  15
ENDBRANCH   5  14
ENDBRANCH   9   5
BRANCH  11  13
ATOM     13  C   UNL     1      -3.371  -2.010  25.479  0.00  0.00    +0.138 C 
BRANCH  13   6
ATOM      4  O   UNL     1      -4.063  -0.141  23.411  0.00  0.00    -0.270 OA
ATOM      6  N   UNL     1      -3.766  -0.641  25.657  0.00  0.00    -0.308 N 
ATOM     16  C   UNL     1      -4.085   0.195  24.592  0.00  0.00    +0.251 C 
ATOM     26  H   UNL     1      -3.792  -0.289  26.608  0.00  0.00    +0.149 HD
BRANCH  16  20
ATOM      1  S   UNL     1      -3.231   2.798  24.933  0.00  0.00    -0.092 S 
ATOM     20  C   UNL     1      -4.448   1.593  24.941  0.00  0.00    +0.074 A 
ATOM     21  C   UNL     1      -5.680   2.104  25.288  0.00  0.00    +0.021 A 
ATOM     22  C   UNL     1      -5.623   3.503  25.552  0.00  0.00    +0.008 A 
ATOM     23  C   UNL     1      -4.351   4.007  25.397  0.00  0.00    +0.046 A 
ENDBRANCH  16  20
ENDBRANCH  13   6
ENDBRANCH  11  13
TORSDOF 7
ENDMDL
MODEL 10
REMARK VINA RESULT:      -3.1      2.810      4.272
REMARK  Name = 75536608
REMARK  8 active torsions:
REMARK  status: ('A' for Active; 'I' for Inactive)
REMARK    1  A    between atoms: O_3  and  C_10
REMARK    2  A    between atoms: N_5  and  C_9
REMARK    3  A    between atoms: N_5  and  C_14
REMARK    4  A    between atoms: N_6  and  C_13
REMARK    5  A    between atoms: N_7  and  C_18
REMARK    6  A    between atoms: C_11  and  C_13
REMARK    7  A    between atoms: C_14  and  C_15
REMARK    8  A    between atoms: C_16  and  C_20
REMARK                            x       y       z     vdW  Elec       q    Type
REMARK                         _______ _______ _______ _____ _____    ______ ____
ROOT
ATOM      2  O   UNL     1      -0.483   3.956  23.736  0.00  0.00    -0.371 OA
ATOM      9  C   UNL     1      -1.537   4.063  25.861  0.00  0.00    +0.111 C 
ATOM     10  C   UNL     1      -1.024   2.654  25.634  0.00  0.00    +0.164 C 
ATOM     11  C   UNL     1       0.028   2.894  24.558  0.00  0.00    +0.165 C 
ATOM     12  C   UNL     1      -1.551   4.611  24.444  0.00  0.00    +0.181 C 
ENDROOT
BRANCH  10   3
ATOM      3  O   UNL     1      -0.463   2.082  26.800  0.00  0.00    -0.388 OA
ATOM     25  H   UNL     1       0.009   2.779  27.286  0.00  0.00    +0.210 HD
ENDBRANCH  10   3
BRANCH   9   5
ATOM      5  N   UNL     1      -2.842   4.114  26.500  0.00  0.00    -0.302 NA
ATOM     24  H   UNL     1      -2.879   4.923  27.121  0.00  0.00    +0.123 HD
BRANCH   5  14
ATOM     14  C   UNL     1      -3.907   4.227  25.511  0.00  0.00    +0.156 C 
BRANCH  14  15
ATOM      7  N   UNL     1      -4.603   1.993  24.588  0.00  0.00    -0.336 N 
ATOM      8  N   UNL     1      -5.793   2.762  26.297  0.00  0.00    -0.239 NA
ATOM     15  C   UNL     1      -4.785   3.004  25.489  0.00  0.00    +0.123 A 
ATOM     17  C   UNL     1      -5.555   1.046  24.836  0.00  0.00    +0.106 A 
ATOM     18  C   UNL     1      -3.594   1.922  23.556  0.00  0.00    +0.150 C 
ATOM     19  C   UNL     1      -6.278   1.542  25.895  0.00  0.00    +0.130 A 
ENDBRANCH  14  15
ENDBRANCH   5  14
ENDBRANCH   9   5
BRANCH  11  13
ATOM     13  C   UNL     1       0.302   1.669  23.704  0.00  0.00    +0.138 C 
BRANCH  13   6
ATOM      4  O   UNL     1       1.702  -0.122  21.950  0.00  0.00    -0.270 OA
ATOM      6  N   UNL     1       1.670   1.248  23.822  0.00  0.00    -0.308 N 
ATOM     16  C   UNL     1       2.268   0.373  22.921  0.00  0.00    +0.251 C 
ATOM     26  H   UNL     1       2.195   1.607  24.611  0.00  0.00    +0.149 HD
BRANCH  16  20
ATOM      1  S   UNL     1       4.041  -1.539  23.824  0.00  0.00    -0.092 S 
ATOM     20  C   UNL     1       3.682   0.014  23.196  0.00  0.00    +0.074 A 
ATOM     21  C   UNL     1       4.818   0.773  23.015  0.00  0.00    +0.021 A 
ATOM     22  C   UNL     1       5.998   0.072  23.397  0.00  0.00    +0.008 A 
ATOM     23  C   UNL     1       5.719  -1.197  23.857  0.00  0.00    +0.046 A 
ENDBRANCH  16  20
ENDBRANCH  13   6
ENDBRANCH  11  13
TORSDOF 7
ENDMDL
