MODEL 1
REMARK VINA RESULT:      -4.8      0.000      0.000
REMARK  Name = 75536782
REMARK  7 active torsions:
REMARK  status: ('A' for Active; 'I' for Inactive)
REMARK    1  A    between atoms: O_3  and  C_9
REMARK    2  A    between atoms: N_5  and  C_8
REMARK    3  A    between atoms: N_5  and  C_13
REMARK    4  A    between atoms: N_6  and  C_12
REMARK    5  A    between atoms: N_7  and  C_21
REMARK    6  A    between atoms: C_10  and  C_12
REMARK    7  A    between atoms: C_13  and  C_14
REMARK                            x       y       z     vdW  Elec       q    Type
REMARK                         _______ _______ _______ _____ _____    ______ ____
ROOT
ATOM      2  O   UNL     1      -4.661   0.115  25.094  0.00  0.00    -0.371 OA
ATOM      8  C   UNL     1      -4.656   2.325  24.224  0.00  0.00    +0.111 C 
ATOM      9  C   UNL     1      -3.347   1.650  23.864  0.00  0.00    +0.164 C 
ATOM     10  C   UNL     1      -3.726   0.181  24.004  0.00  0.00    +0.165 C 
ATOM     11  C   UNL     1      -5.149   1.443  25.359  0.00  0.00    +0.181 C 
ENDROOT
BRANCH   9   3
ATOM      3  O   UNL     1      -2.916   1.959  22.553  0.00  0.00    -0.388 OA
ATOM     28  H   UNL     1      -3.685   1.927  21.961  0.00  0.00    +0.210 HD
ENDBRANCH   9   3
BRANCH   8   5
ATOM      5  N   UNL     1      -4.507   3.718  24.615  0.00  0.00    -0.305 NA
ATOM     27  H   UNL     1      -5.432   4.136  24.718  0.00  0.00    +0.123 HD
BRANCH   5  13
ATOM     13  C   UNL     1      -3.792   3.836  25.880  0.00  0.00    +0.119 C 
BRANCH  13  14
ATOM      1  F   UNL     1      -2.160   5.747  24.574  0.00  0.00    -0.205 F 
ATOM     14  C   UNL     1      -2.308   3.665  25.703  0.00  0.00    +0.002 A 
ATOM     16  C   UNL     1      -1.562   4.646  25.049  0.00  0.00    +0.128 A 
ATOM     17  C   UNL     1      -1.677   2.522  26.195  0.00  0.00    +0.008 A 
ATOM     18  C   UNL     1      -0.186   4.485  24.887  0.00  0.00    +0.038 A 
ATOM     19  C   UNL     1      -0.300   2.360  26.033  0.00  0.00    +0.000 A 
ATOM     20  C   UNL     1       0.445   3.341  25.379  0.00  0.00    +0.003 A 
ENDBRANCH  13  14
ENDBRANCH   5  13
ENDBRANCH   8   5
BRANCH  10  12
ATOM     12  C   UNL     1      -2.539  -0.720  24.290  0.00  0.00    +0.140 C 
BRANCH  12   6
ATOM      4  O   UNL     1       0.188  -1.195  25.026  0.00  0.00    -0.253 OA
ATOM      6  N   UNL     1      -1.371  -0.286  23.580  0.00  0.00    -0.297 N 
ATOM      7  N   UNL     1       0.870  -0.013  23.117  0.00  0.00    -0.269 N 
ATOM     15  C   UNL     1      -0.061  -0.559  24.005  0.00  0.00    +0.304 C 
ATOM     29  H   UNL     1      -1.499   0.258  22.732  0.00  0.00    +0.150 HD
ATOM     30  H   UNL     1       0.495   0.488  22.316  0.00  0.00    +0.156 HD
BRANCH   7  21
ATOM     21  C   UNL     1       2.281  -0.070  23.194  0.00  0.00    +0.035 A 
ATOM     22  C   UNL     1       3.044   1.044  22.846  0.00  0.00    +0.023 A 
ATOM     23  C   UNL     1       2.909  -1.241  23.618  0.00  0.00    +0.023 A 
ATOM     24  C   UNL     1       4.436   0.987  22.922  0.00  0.00    +0.002 A 
ATOM     25  C   UNL     1       4.301  -1.298  23.693  0.00  0.00    +0.002 A 
ATOM     26  C   UNL     1       5.064  -0.184  23.346  0.00  0.00    +0.000 A 
ENDBRANCH   7  21
ENDBRANCH  12   6
ENDBRANCH  10  12
TORSDOF 7
ENDMDL
MODEL 2
REMARK VINA RESULT:      -4.7      2.694      4.355
REMARK  Name = 75536782
REMARK  7 active torsions:
REMARK  status: ('A' for Active; 'I' for Inactive)
REMARK    1  A    between atoms: O_3  and  C_9
REMARK    2  A    between atoms: N_5  and  C_8
REMARK    3  A    between atoms: N_5  and  C_13
REMARK    4  A    between atoms: N_6  and  C_12
REMARK    5  A    between atoms: N_7  and  C_21
REMARK    6  A    between atoms: C_10  and  C_12
REMARK    7  A    between atoms: C_13  and  C_14
REMARK                            x       y       z     vdW  Elec       q    Type
REMARK                         _______ _______ _______ _____ _____    ______ ____
ROOT
ATOM      2  O   UNL     1      -3.421   4.183  23.863  0.00  0.00    -0.371 OA
ATOM      8  C   UNL     1      -4.734   2.809  25.288  0.00  0.00    +0.111 C 
ATOM      9  C   UNL     1      -3.540   3.329  26.066  0.00  0.00    +0.164 C 
ATOM     10  C   UNL     1      -3.150   4.541  25.229  0.00  0.00    +0.165 C 
ATOM     11  C   UNL     1      -4.277   3.027  23.855  0.00  0.00    +0.181 C 
ENDROOT
BRANCH   9   3
ATOM      3  O   UNL     1      -3.870   3.691  27.394  0.00  0.00    -0.388 OA
ATOM     28  H   UNL     1      -4.412   4.497  27.366  0.00  0.00    +0.210 HD
ENDBRANCH   9   3
BRANCH   8   5
ATOM      5  N   UNL     1      -5.056   1.419  25.574  0.00  0.00    -0.305 NA
ATOM     27  H   UNL     1      -6.046   1.349  25.808  0.00  0.00    +0.123 HD
BRANCH   5  13
ATOM     13  C   UNL     1      -4.781   0.568  24.423  0.00  0.00    +0.119 C 
BRANCH  13  14
ATOM      1  F   UNL     1      -4.820  -2.150  23.628  0.00  0.00    -0.205 F 
ATOM     14  C   UNL     1      -3.644  -0.381  24.687  0.00  0.00    +0.002 A 
ATOM     16  C   UNL     1      -3.727  -1.709  24.268  0.00  0.00    +0.128 A 
ATOM     17  C   UNL     1      -2.503   0.069  25.352  0.00  0.00    +0.008 A 
ATOM     18  C   UNL     1      -2.671  -2.586  24.513  0.00  0.00    +0.038 A 
ATOM     19  C   UNL     1      -1.446  -0.809  25.598  0.00  0.00    +0.000 A 
ATOM     20  C   UNL     1      -1.531  -2.136  25.178  0.00  0.00    +0.003 A 
ENDBRANCH  13  14
ENDBRANCH   5  13
ENDBRANCH   8   5
BRANCH  10  12
ATOM     12  C   UNL     1      -1.691   4.929  25.379  0.00  0.00    +0.140 C 
BRANCH  12   6
ATOM      4  O   UNL     1      -0.414   3.712  23.121  0.00  0.00    -0.253 OA
ATOM      6  N   UNL     1      -0.842   3.771  25.393  0.00  0.00    -0.297 N 
ATOM      7  N   UNL     1       0.520   2.110  24.560  0.00  0.00    -0.269 N 
ATOM     15  C   UNL     1      -0.250   3.232  24.240  0.00  0.00    +0.304 C 
ATOM     29  H   UNL     1      -0.673   3.312  26.283  0.00  0.00    +0.150 HD
ATOM     30  H   UNL     1       0.550   1.843  25.540  0.00  0.00    +0.156 HD
BRANCH   7  21
ATOM     21  C   UNL     1       1.270   1.293  23.682  0.00  0.00    +0.035 A 
ATOM     22  C   UNL     1       0.647   0.253  22.995  0.00  0.00    +0.023 A 
ATOM     23  C   UNL     1       2.633   1.529  23.504  0.00  0.00    +0.023 A 
ATOM     24  C   UNL     1       1.386  -0.553  22.129  0.00  0.00    +0.002 A 
ATOM     25  C   UNL     1       3.373   0.723  22.639  0.00  0.00    +0.002 A 
ATOM     26  C   UNL     1       2.749  -0.318  21.951  0.00  0.00    +0.000 A 
ENDBRANCH   7  21
ENDBRANCH  12   6
ENDBRANCH  10  12
TORSDOF 7
ENDMDL
MODEL 3
REMARK VINA RESULT:      -4.7      2.308      4.197
REMARK  Name = 75536782
REMARK  7 active torsions:
REMARK  status: ('A' for Active; 'I' for Inactive)
REMARK    1  A    between atoms: O_3  and  C_9
REMARK    2  A    between atoms: N_5  and  C_8
REMARK    3  A    between atoms: N_5  and  C_13
REMARK    4  A    between atoms: N_6  and  C_12
REMARK    5  A    between atoms: N_7  and  C_21
REMARK    6  A    between atoms: C_10  and  C_12
REMARK    7  A    between atoms: C_13  and  C_14
REMARK                            x       y       z     vdW  Elec       q    Type
REMARK                         _______ _______ _______ _____ _____    ______ ____
ROOT
ATOM      2  O   UNL     1      -3.094   3.800  23.574  0.00  0.00    -0.371 OA
ATOM      8  C   UNL     1      -4.873   2.509  24.473  0.00  0.00    +0.111 C 
ATOM      9  C   UNL     1      -3.970   2.962  25.605  0.00  0.00    +0.164 C 
ATOM     10  C   UNL     1      -3.262   4.146  24.960  0.00  0.00    +0.165 C 
ATOM     11  C   UNL     1      -3.964   2.696  23.270  0.00  0.00    +0.181 C 
ENDROOT
BRANCH   9   3
ATOM      3  O   UNL     1      -4.692   3.346  26.759  0.00  0.00    -0.388 OA
ATOM     28  H   UNL     1      -4.077   3.773  27.378  0.00  0.00    +0.210 HD
ENDBRANCH   9   3
BRANCH   8   5
ATOM      5  N   UNL     1      -5.348   1.142  24.617  0.00  0.00    -0.305 NA
ATOM     27  H   UNL     1      -5.203   0.645  23.738  0.00  0.00    +0.123 HD
BRANCH   5  13
ATOM     13  C   UNL     1      -4.632   0.444  25.677  0.00  0.00    +0.119 C 
BRANCH  13  14
ATOM      1  F   UNL     1      -1.833   0.308  26.088  0.00  0.00    -0.205 F 
ATOM     14  C   UNL     1      -3.775  -0.669  25.137  0.00  0.00    +0.002 A 
ATOM     16  C   UNL     1      -2.401  -0.675  25.376  0.00  0.00    +0.128 A 
ATOM     17  C   UNL     1      -4.359  -1.697  24.395  0.00  0.00    +0.008 A 
ATOM     18  C   UNL     1      -1.610  -1.708  24.874  0.00  0.00    +0.038 A 
ATOM     19  C   UNL     1      -3.567  -2.731  23.893  0.00  0.00    +0.000 A 
ATOM     20  C   UNL     1      -2.193  -2.736  24.133  0.00  0.00    +0.003 A 
ENDBRANCH  13  14
ENDBRANCH   5  13
ENDBRANCH   8   5
BRANCH  10  12
ATOM     12  C   UNL     1      -1.911   4.448  25.581  0.00  0.00    +0.140 C 
BRANCH  12   6
ATOM      4  O   UNL     1      -0.365   3.622  23.315  0.00  0.00    -0.253 OA
ATOM      6  N   UNL     1      -1.036   3.313  25.507  0.00  0.00    -0.297 N 
ATOM      7  N   UNL     1       0.454   1.821  24.578  0.00  0.00    -0.269 N 
ATOM     15  C   UNL     1      -0.309   2.970  24.356  0.00  0.00    +0.304 C 
ATOM     29  H   UNL     1      -0.950   2.719  26.326  0.00  0.00    +0.150 HD
ATOM     30  H   UNL     1       0.386   1.401  25.502  0.00  0.00    +0.156 HD
BRANCH   7  21
ATOM     21  C   UNL     1       1.317   1.162  23.672  0.00  0.00    +0.035 A 
ATOM     22  C   UNL     1       0.831   0.125  22.875  0.00  0.00    +0.023 A 
ATOM     23  C   UNL     1       2.653   1.551  23.573  0.00  0.00    +0.023 A 
ATOM     24  C   UNL     1       1.682  -0.524  21.981  0.00  0.00    +0.002 A 
ATOM     25  C   UNL     1       3.504   0.901  22.679  0.00  0.00    +0.002 A 
ATOM     26  C   UNL     1       3.018  -0.136  21.883  0.00  0.00    +0.000 A 
ENDBRANCH   7  21
ENDBRANCH  12   6
ENDBRANCH  10  12
TORSDOF 7
ENDMDL
MODEL 4
REMARK VINA RESULT:      -4.4      2.565      5.496
REMARK  Name = 75536782
REMARK  7 active torsions:
REMARK  status: ('A' for Active; 'I' for Inactive)
REMARK    1  A    between atoms: O_3  and  C_9
REMARK    2  A    between atoms: N_5  and  C_8
REMARK    3  A    between atoms: N_5  and  C_13
REMARK    4  A    between atoms: N_6  and  C_12
REMARK    5  A    between atoms: N_7  and  C_21
REMARK    6  A    between atoms: C_10  and  C_12
REMARK    7  A    between atoms: C_13  and  C_14
REMARK                            x       y       z     vdW  Elec       q    Type
REMARK                         _______ _______ _______ _____ _____    ______ ____
ROOT
ATOM      2  O   UNL     1      -3.570   4.007  26.801  0.00  0.00    -0.371 OA
ATOM      8  C   UNL     1      -1.890   4.571  25.220  0.00  0.00    +0.111 C 
ATOM      9  C   UNL     1      -3.198   4.336  24.488  0.00  0.00    +0.164 C 
ATOM     10  C   UNL     1      -4.203   4.522  25.617  0.00  0.00    +0.165 C 
ATOM     11  C   UNL     1      -2.159   3.882  26.547  0.00  0.00    +0.181 C 
ENDROOT
BRANCH   9   3
ATOM      3  O   UNL     1      -3.410   5.260  23.438  0.00  0.00    -0.388 OA
ATOM     28  H   UNL     1      -3.648   4.765  22.637  0.00  0.00    +0.210 HD
ENDBRANCH   9   3
BRANCH   8   5
ATOM      5  N   UNL     1      -0.729   4.032  24.528  0.00  0.00    -0.305 NA
ATOM     27  H   UNL     1      -0.094   4.797  24.299  0.00  0.00    +0.123 HD
BRANCH   5  13
ATOM     13  C   UNL     1      -0.024   3.064  25.359  0.00  0.00    +0.119 C 
BRANCH  13  14
ATOM      1  F   UNL     1      -1.607   0.794  25.960  0.00  0.00    -0.205 F 
ATOM     14  C   UNL     1       0.139   1.741  24.662  0.00  0.00    +0.002 A 
ATOM     16  C   UNL     1      -0.674   0.662  25.007  0.00  0.00    +0.128 A 
ATOM     17  C   UNL     1       1.108   1.594  23.668  0.00  0.00    +0.008 A 
ATOM     18  C   UNL     1      -0.521  -0.564  24.359  0.00  0.00    +0.038 A 
ATOM     19  C   UNL     1       1.261   0.367  23.019  0.00  0.00    +0.000 A 
ATOM     20  C   UNL     1       0.447  -0.711  23.365  0.00  0.00    +0.003 A 
ENDBRANCH  13  14
ENDBRANCH   5  13
ENDBRANCH   8   5
BRANCH  10  12
ATOM     12  C   UNL     1      -5.515   3.797  25.379  0.00  0.00    +0.140 C 
BRANCH  12   6
ATOM      4  O   UNL     1      -4.106   1.739  23.969  0.00  0.00    -0.253 OA
ATOM      6  N   UNL     1      -5.421   2.414  25.749  0.00  0.00    -0.297 N 
ATOM      7  N   UNL     1      -4.793   0.201  25.603  0.00  0.00    -0.269 N 
ATOM     15  C   UNL     1      -4.708   1.460  25.004  0.00  0.00    +0.304 C 
ATOM     29  H   UNL     1      -5.906   2.107  26.586  0.00  0.00    +0.150 HD
ATOM     30  H   UNL     1      -5.335   0.142  26.462  0.00  0.00    +0.156 HD
BRANCH   7  21
ATOM     21  C   UNL     1      -4.215  -1.012  25.163  0.00  0.00    +0.035 A 
ATOM     22  C   UNL     1      -3.376  -1.733  26.012  0.00  0.00    +0.023 A 
ATOM     23  C   UNL     1      -4.484  -1.486  23.879  0.00  0.00    +0.023 A 
ATOM     24  C   UNL     1      -2.805  -2.929  25.577  0.00  0.00    +0.002 A 
ATOM     25  C   UNL     1      -3.913  -2.683  23.444  0.00  0.00    +0.002 A 
ATOM     26  C   UNL     1      -3.074  -3.404  24.294  0.00  0.00    +0.000 A 
ENDBRANCH   7  21
ENDBRANCH  12   6
ENDBRANCH  10  12
TORSDOF 7
ENDMDL
MODEL 5
REMARK VINA RESULT:      -3.7      2.865      4.882
REMARK  Name = 75536782
REMARK  7 active torsions:
REMARK  status: ('A' for Active; 'I' for Inactive)
REMARK    1  A    between atoms: O_3  and  C_9
REMARK    2  A    between atoms: N_5  and  C_8
REMARK    3  A    between atoms: N_5  and  C_13
REMARK    4  A    between atoms: N_6  and  C_12
REMARK    5  A    between atoms: N_7  and  C_21
REMARK    6  A    between atoms: C_10  and  C_12
REMARK    7  A    between atoms: C_13  and  C_14
REMARK                            x       y       z     vdW  Elec       q    Type
REMARK                         _______ _______ _______ _____ _____    ______ ____
ROOT
ATOM      2  O   UNL     1      -1.934  -1.743  26.498  0.00  0.00    -0.371 OA
ATOM      8  C   UNL     1      -3.750  -2.120  25.015  0.00  0.00    +0.111 C 
ATOM      9  C   UNL     1      -2.451  -2.195  24.235  0.00  0.00    +0.164 C 
ATOM     10  C   UNL     1      -1.453  -2.467  25.353  0.00  0.00    +0.165 C 
ATOM     11  C   UNL     1      -3.308  -1.381  26.267  0.00  0.00    +0.181 C 
ENDROOT
BRANCH   9   3
ATOM      3  O   UNL     1      -2.454  -3.230  23.270  0.00  0.00    -0.388 OA
ATOM     28  H   UNL     1      -3.376  -3.457  23.066  0.00  0.00    +0.210 HD
ENDBRANCH   9   3
BRANCH   8   5
ATOM      5  N   UNL     1      -4.820  -1.438  24.303  0.00  0.00    -0.305 NA
ATOM     27  H   UNL     1      -5.533  -1.148  24.973  0.00  0.00    +0.123 HD
BRANCH   5  13
ATOM     13  C   UNL     1      -4.320  -0.259  23.607  0.00  0.00    +0.119 C 
BRANCH  13  14
ATOM      1  F   UNL     1      -3.261   2.274  22.912  0.00  0.00    -0.205 F 
ATOM     14  C   UNL     1      -4.706   1.014  24.310  0.00  0.00    +0.002 A 
ATOM     16  C   UNL     1      -4.146   2.230  23.917  0.00  0.00    +0.128 A 
ATOM     17  C   UNL     1      -5.627   0.977  25.358  0.00  0.00    +0.008 A 
ATOM     18  C   UNL     1      -4.506   3.408  24.571  0.00  0.00    +0.038 A 
ATOM     19  C   UNL     1      -5.987   2.156  26.012  0.00  0.00    +0.000 A 
ATOM     20  C   UNL     1      -5.427   3.371  25.618  0.00  0.00    +0.003 A 
ENDBRANCH  13  14
ENDBRANCH   5  13
ENDBRANCH   8   5
BRANCH  10  12
ATOM     12  C   UNL     1      -0.042  -2.020  25.019  0.00  0.00    +0.140 C 
BRANCH  12   6
ATOM      4  O   UNL     1      -1.283   0.344  23.982  0.00  0.00    -0.253 OA
ATOM      6  N   UNL     1       0.193  -0.670  25.445  0.00  0.00    -0.297 N 
ATOM      7  N   UNL     1      -0.029   1.623  25.499  0.00  0.00    -0.269 N 
ATOM     15  C   UNL     1      -0.457   0.442  24.887  0.00  0.00    +0.304 C 
ATOM     29  H   UNL     1       0.874  -0.511  26.181  0.00  0.00    +0.150 HD
ATOM     30  H   UNL     1       0.665   1.528  26.236  0.00  0.00    +0.156 HD
BRANCH   7  21
ATOM     21  C   UNL     1      -0.445   2.946  25.221  0.00  0.00    +0.035 A 
ATOM     22  C   UNL     1      -1.421   3.551  26.012  0.00  0.00    +0.023 A 
ATOM     23  C   UNL     1       0.122   3.645  24.156  0.00  0.00    +0.023 A 
ATOM     24  C   UNL     1      -1.831   4.855  25.738  0.00  0.00    +0.002 A 
ATOM     25  C   UNL     1      -0.289   4.949  23.881  0.00  0.00    +0.002 A 
ATOM     26  C   UNL     1      -1.264   5.555  24.672  0.00  0.00    +0.000 A 
ENDBRANCH   7  21
ENDBRANCH  12   6
ENDBRANCH  10  12
TORSDOF 7
ENDMDL
MODEL 6
REMARK VINA RESULT:      -3.5      2.439      5.386
REMARK  Name = 75536782
REMARK  7 active torsions:
REMARK  status: ('A' for Active; 'I' for Inactive)
REMARK    1  A    between atoms: O_3  and  C_9
REMARK    2  A    between atoms: N_5  and  C_8
REMARK    3  A    between atoms: N_5  and  C_13
REMARK    4  A    between atoms: N_6  and  C_12
REMARK    5  A    between atoms: N_7  and  C_21
REMARK    6  A    between atoms: C_10  and  C_12
REMARK    7  A    between atoms: C_13  and  C_14
REMARK                            x       y       z     vdW  Elec       q    Type
REMARK                         _______ _______ _______ _____ _____    ______ ____
ROOT
ATOM      2  O   UNL     1      -0.142   4.297  23.879  0.00  0.00    -0.371 OA
ATOM      8  C   UNL     1      -1.224   4.210  25.991  0.00  0.00    +0.111 C 
ATOM      9  C   UNL     1      -0.435   2.931  25.788  0.00  0.00    +0.164 C 
ATOM     10  C   UNL     1       0.561   3.367  24.721  0.00  0.00    +0.165 C 
ATOM     11  C   UNL     1      -1.329   4.729  24.567  0.00  0.00    +0.181 C 
ENDROOT
BRANCH   9   3
ATOM      3  O   UNL     1       0.214   2.497  26.967  0.00  0.00    -0.388 OA
ATOM     28  H   UNL     1       1.171   2.628  26.857  0.00  0.00    +0.210 HD
ENDBRANCH   9   3
BRANCH   8   5
ATOM      5  N   UNL     1      -2.522   4.003  26.615  0.00  0.00    -0.305 NA
ATOM     27  H   UNL     1      -2.559   4.529  27.489  0.00  0.00    +0.123 HD
BRANCH   5  13
ATOM     13  C   UNL     1      -3.602   4.454  25.747  0.00  0.00    +0.119 C 
BRANCH  13  14
ATOM      1  F   UNL     1      -3.777   3.107  23.262  0.00  0.00    -0.205 F 
ATOM     14  C   UNL     1      -4.597   3.359  25.474  0.00  0.00    +0.002 A 
ATOM     16  C   UNL     1      -4.630   2.736  24.227  0.00  0.00    +0.128 A 
ATOM     17  C   UNL     1      -5.489   2.967  26.474  0.00  0.00    +0.008 A 
ATOM     18  C   UNL     1      -5.553   1.721  23.977  0.00  0.00    +0.038 A 
ATOM     19  C   UNL     1      -6.413   1.951  26.224  0.00  0.00    +0.000 A 
ATOM     20  C   UNL     1      -6.445   1.329  24.976  0.00  0.00    +0.003 A 
ENDBRANCH  13  14
ENDBRANCH   5  13
ENDBRANCH   8   5
BRANCH  10  12
ATOM     12  C   UNL     1       1.088   2.215  23.886  0.00  0.00    +0.140 C 
BRANCH  12   6
ATOM      4  O   UNL     1      -1.482   1.164  23.181  0.00  0.00    -0.253 OA
ATOM      6  N   UNL     1       0.527   0.964  24.309  0.00  0.00    -0.297 N 
ATOM      7  N   UNL     1      -1.022  -0.733  24.485  0.00  0.00    -0.269 N 
ATOM     15  C   UNL     1      -0.745   0.515  23.920  0.00  0.00    +0.304 C 
ATOM     29  H   UNL     1       1.075   0.379  24.933  0.00  0.00    +0.150 HD
ATOM     30  H   UNL     1      -0.300  -1.135  25.077  0.00  0.00    +0.156 HD
BRANCH   7  21
ATOM     21  C   UNL     1      -2.192  -1.513  24.334  0.00  0.00    +0.035 A 
ATOM     22  C   UNL     1      -2.133  -2.897  24.503  0.00  0.00    +0.023 A 
ATOM     23  C   UNL     1      -3.404  -0.900  24.018  0.00  0.00    +0.023 A 
ATOM     24  C   UNL     1      -3.287  -3.667  24.354  0.00  0.00    +0.002 A 
ATOM     25  C   UNL     1      -4.557  -1.670  23.869  0.00  0.00    +0.002 A 
ATOM     26  C   UNL     1      -4.499  -3.054  24.038  0.00  0.00    +0.000 A 
ENDBRANCH   7  21
ENDBRANCH  12   6
ENDBRANCH  10  12
TORSDOF 7
ENDMDL
MODEL 7
REMARK VINA RESULT:      -3.1      1.566      2.192
REMARK  Name = 75536782
REMARK  7 active torsions:
REMARK  status: ('A' for Active; 'I' for Inactive)
REMARK    1  A    between atoms: O_3  and  C_9
REMARK    2  A    between atoms: N_5  and  C_8
REMARK    3  A    between atoms: N_5  and  C_13
REMARK    4  A    between atoms: N_6  and  C_12
REMARK    5  A    between atoms: N_7  and  C_21
REMARK    6  A    between atoms: C_10  and  C_12
REMARK    7  A    between atoms: C_13  and  C_14
REMARK                            x       y       z     vdW  Elec       q    Type
REMARK                         _______ _______ _______ _____ _____    ______ ____
ROOT
ATOM      2  O   UNL     1      -2.423  -0.705  26.148  0.00  0.00    -0.371 OA
ATOM      8  C   UNL     1      -4.320   0.271  25.104  0.00  0.00    +0.111 C 
ATOM      9  C   UNL     1      -3.784  -0.839  24.219  0.00  0.00    +0.164 C 
ATOM     10  C   UNL     1      -2.981  -1.654  25.224  0.00  0.00    +0.165 C 
ATOM     11  C   UNL     1      -3.125   0.543  26.003  0.00  0.00    +0.181 C 
ENDROOT
BRANCH   9   3
ATOM      3  O   UNL     1      -4.813  -1.605  23.622  0.00  0.00    -0.388 OA
ATOM     28  H   UNL     1      -4.662  -1.628  22.663  0.00  0.00    +0.210 HD
ENDBRANCH   9   3
BRANCH   8   5
ATOM      5  N   UNL     1      -4.753   1.448  24.367  0.00  0.00    -0.305 NA
ATOM     27  H   UNL     1      -4.897   2.216  25.023  0.00  0.00    +0.123 HD
BRANCH   5  13
ATOM     13  C   UNL     1      -3.757   1.848  23.382  0.00  0.00    +0.119 C 
BRANCH  13  14
ATOM      1  F   UNL     1      -4.385   4.202  24.826  0.00  0.00    -0.205 F 
ATOM     14  C   UNL     1      -2.710   2.750  23.977  0.00  0.00    +0.002 A 
ATOM     16  C   UNL     1      -3.089   3.896  24.677  0.00  0.00    +0.128 A 
ATOM     17  C   UNL     1      -1.358   2.439  23.827  0.00  0.00    +0.008 A 
ATOM     18  C   UNL     1      -2.117   4.730  25.229  0.00  0.00    +0.038 A 
ATOM     19  C   UNL     1      -0.386   3.274  24.379  0.00  0.00    +0.000 A 
ATOM     20  C   UNL     1      -0.765   4.419  25.079  0.00  0.00    +0.003 A 
ENDBRANCH  13  14
ENDBRANCH   5  13
ENDBRANCH   8   5
BRANCH  10  12
ATOM     12  C   UNL     1      -1.868  -2.465  24.586  0.00  0.00    +0.140 C 
BRANCH  12   6
ATOM      4  O   UNL     1       0.947  -2.215  25.055  0.00  0.00    -0.253 OA
ATOM      6  N   UNL     1      -0.951  -1.622  23.874  0.00  0.00    -0.297 N 
ATOM      7  N   UNL     1       1.062  -0.651  23.309  0.00  0.00    -0.269 N 
ATOM     15  C   UNL     1       0.422  -1.554  24.163  0.00  0.00    +0.304 C 
ATOM     29  H   UNL     1      -1.317  -1.035  23.131  0.00  0.00    +0.150 HD
ATOM     30  H   UNL     1       0.477  -0.182  22.622  0.00  0.00    +0.156 HD
BRANCH   7  21
ATOM     21  C   UNL     1       2.432  -0.305  23.282  0.00  0.00    +0.035 A 
ATOM     22  C   UNL     1       3.390  -1.211  23.737  0.00  0.00    +0.023 A 
ATOM     23  C   UNL     1       2.827   0.943  22.799  0.00  0.00    +0.023 A 
ATOM     24  C   UNL     1       4.742  -0.869  23.710  0.00  0.00    +0.002 A 
ATOM     25  C   UNL     1       4.179   1.285  22.772  0.00  0.00    +0.002 A 
ATOM     26  C   UNL     1       5.136   0.378  23.227  0.00  0.00    +0.000 A 
ENDBRANCH   7  21
ENDBRANCH  12   6
ENDBRANCH  10  12
TORSDOF 7
ENDMDL
MODEL 8
REMARK VINA RESULT:      -3.1      2.556      5.913
REMARK  Name = 75536782
REMARK  7 active torsions:
REMARK  status: ('A' for Active; 'I' for Inactive)
REMARK    1  A    between atoms: O_3  and  C_9
REMARK    2  A    between atoms: N_5  and  C_8
REMARK    3  A    between atoms: N_5  and  C_13
REMARK    4  A    between atoms: N_6  and  C_12
REMARK    5  A    between atoms: N_7  and  C_21
REMARK    6  A    between atoms: C_10  and  C_12
REMARK    7  A    between atoms: C_13  and  C_14
REMARK                            x       y       z     vdW  Elec       q    Type
REMARK                         _______ _______ _______ _____ _____    ______ ____
ROOT
ATOM      2  O   UNL     1      -1.329  -2.319  23.429  0.00  0.00    -0.371 OA
ATOM      8  C   UNL     1      -0.361  -0.985  25.139  0.00  0.00    +0.111 C 
ATOM      9  C   UNL     1      -1.841  -1.161  25.426  0.00  0.00    +0.164 C 
ATOM     10  C   UNL     1      -2.154  -2.404  24.603  0.00  0.00    +0.165 C 
ATOM     11  C   UNL     1      -0.296  -1.345  23.664  0.00  0.00    +0.181 C 
ENDROOT
BRANCH   9   3
ATOM      3  O   UNL     1      -2.110  -1.360  26.801  0.00  0.00    -0.388 OA
ATOM     28  H   UNL     1      -3.016  -1.062  26.983  0.00  0.00    +0.210 HD
ENDBRANCH   9   3
BRANCH   8   5
ATOM      5  N   UNL     1       0.132   0.355  25.417  0.00  0.00    -0.305 NA
ATOM     27  H   UNL     1       1.144   0.318  25.539  0.00  0.00    +0.123 HD
BRANCH   5  13
ATOM     13  C   UNL     1      -0.179   1.267  24.324  0.00  0.00    +0.119 C 
BRANCH  13  14
ATOM      1  F   UNL     1       0.465   3.785  23.199  0.00  0.00    -0.205 F 
ATOM     14  C   UNL     1      -0.760   2.563  24.823  0.00  0.00    +0.002 A 
ATOM     16  C   UNL     1      -0.399   3.769  24.223  0.00  0.00    +0.128 A 
ATOM     17  C   UNL     1      -1.660   2.556  25.889  0.00  0.00    +0.008 A 
ATOM     18  C   UNL     1      -0.939   4.969  24.688  0.00  0.00    +0.038 A 
ATOM     19  C   UNL     1      -2.200   3.756  26.354  0.00  0.00    +0.000 A 
ATOM     20  C   UNL     1      -1.839   4.962  25.753  0.00  0.00    +0.003 A 
ENDBRANCH  13  14
ENDBRANCH   5  13
ENDBRANCH   8   5
BRANCH  10  12
ATOM     12  C   UNL     1      -3.613  -2.504  24.199  0.00  0.00    +0.140 C 
BRANCH  12   6
ATOM      4  O   UNL     1      -3.250   0.261  23.542  0.00  0.00    -0.253 OA
ATOM      6  N   UNL     1      -4.371  -1.395  24.704  0.00  0.00    -0.297 N 
ATOM      7  N   UNL     1      -5.024   0.797  24.982  0.00  0.00    -0.269 N 
ATOM     15  C   UNL     1      -4.133  -0.062  24.333  0.00  0.00    +0.304 C 
ATOM     29  H   UNL     1      -5.110  -1.585  25.374  0.00  0.00    +0.150 HD
ATOM     30  H   UNL     1      -5.698   0.365  25.609  0.00  0.00    +0.156 HD
BRANCH   7  21
ATOM     21  C   UNL     1      -5.107   2.205  24.874  0.00  0.00    +0.035 A 
ATOM     22  C   UNL     1      -5.865   2.931  25.792  0.00  0.00    +0.023 A 
ATOM     23  C   UNL     1      -4.429   2.867  23.851  0.00  0.00    +0.023 A 
ATOM     24  C   UNL     1      -5.948   4.319  25.686  0.00  0.00    +0.002 A 
ATOM     25  C   UNL     1      -4.512   4.255  23.744  0.00  0.00    +0.002 A 
ATOM     26  C   UNL     1      -5.270   4.981  24.662  0.00  0.00    +0.000 A 
ENDBRANCH   7  21
ENDBRANCH  12   6
ENDBRANCH  10  12
TORSDOF 7
ENDMDL
MODEL 9
REMARK VINA RESULT:      -2.0      2.402      6.855
REMARK  Name = 75536782
REMARK  7 active torsions:
REMARK  status: ('A' for Active; 'I' for Inactive)
REMARK    1  A    between atoms: O_3  and  C_9
REMARK    2  A    between atoms: N_5  and  C_8
REMARK    3  A    between atoms: N_5  and  C_13
REMARK    4  A    between atoms: N_6  and  C_12
REMARK    5  A    between atoms: N_7  and  C_21
REMARK    6  A    between atoms: C_10  and  C_12
REMARK    7  A    between atoms: C_13  and  C_14
REMARK                            x       y       z     vdW  Elec       q    Type
REMARK                         _______ _______ _______ _____ _____    ______ ____
ROOT
ATOM      2  O   UNL     1      -1.501  -2.845  23.559  0.00  0.00    -0.371 OA
ATOM      8  C   UNL     1       0.082  -1.233  24.290  0.00  0.00    +0.111 C 
ATOM      9  C   UNL     1      -1.169  -1.117  25.140  0.00  0.00    +0.164 C 
ATOM     10  C   UNL     1      -1.801  -2.485  24.919  0.00  0.00    +0.165 C 
ATOM     11  C   UNL     1      -0.442  -1.996  23.084  0.00  0.00    +0.181 C 
ENDROOT
BRANCH   9   3
ATOM      3  O   UNL     1      -0.881  -0.885  26.505  0.00  0.00    -0.388 OA
ATOM     28  H   UNL     1      -0.235  -1.548  26.800  0.00  0.00    +0.210 HD
ENDBRANCH   9   3
BRANCH   8   5
ATOM      5  N   UNL     1       0.669   0.051  23.936  0.00  0.00    -0.305 NA
ATOM     27  H   UNL     1       1.230   0.387  24.719  0.00  0.00    +0.123 HD
BRANCH   5  13
ATOM     13  C   UNL     1       1.521  -0.066  22.759  0.00  0.00    +0.119 C 
BRANCH  13  14
ATOM      1  F   UNL     1       3.329   2.107  22.595  0.00  0.00    -0.205 F 
ATOM     14  C   UNL     1       2.975  -0.178  23.129  0.00  0.00    +0.002 A 
ATOM     16  C   UNL     1       3.812   0.933  23.025  0.00  0.00    +0.128 A 
ATOM     17  C   UNL     1       3.486  -1.397  23.577  0.00  0.00    +0.008 A 
ATOM     18  C   UNL     1       5.159   0.827  23.368  0.00  0.00    +0.038 A 
ATOM     19  C   UNL     1       4.835  -1.503  23.921  0.00  0.00    +0.000 A 
ATOM     20  C   UNL     1       5.671  -0.392  23.816  0.00  0.00    +0.003 A 
ENDBRANCH  13  14
ENDBRANCH   5  13
ENDBRANCH   8   5
BRANCH  10  12
ATOM     12  C   UNL     1      -3.304  -2.493  25.132  0.00  0.00    +0.140 C 
BRANCH  12   6
ATOM      4  O   UNL     1      -3.614   0.005  23.765  0.00  0.00    -0.253 OA
ATOM      6  N   UNL     1      -3.757  -1.255  25.699  0.00  0.00    -0.297 N 
ATOM      7  N   UNL     1      -4.345   0.972  25.775  0.00  0.00    -0.269 N 
ATOM     15  C   UNL     1      -3.884  -0.067  24.962  0.00  0.00    +0.304 C 
ATOM     29  H   UNL     1      -3.985  -1.236  26.688  0.00  0.00    +0.150 HD
ATOM     30  H   UNL     1      -4.520   0.742  26.750  0.00  0.00    +0.156 HD
BRANCH   7  21
ATOM     21  C   UNL     1      -4.600   2.313  25.409  0.00  0.00    +0.035 A 
ATOM     22  C   UNL     1      -5.775   2.938  25.826  0.00  0.00    +0.023 A 
ATOM     23  C   UNL     1      -3.677   3.012  24.631  0.00  0.00    +0.023 A 
ATOM     24  C   UNL     1      -6.028   4.262  25.465  0.00  0.00    +0.002 A 
ATOM     25  C   UNL     1      -3.930   4.335  24.269  0.00  0.00    +0.002 A 
ATOM     26  C   UNL     1      -5.105   4.960  24.687  0.00  0.00    +0.000 A 
ENDBRANCH   7  21
ENDBRANCH  12   6
ENDBRANCH  10  12
TORSDOF 7
ENDMDL
MODEL 10
REMARK VINA RESULT:      -1.7      3.138      5.161
REMARK  Name = 75536782
REMARK  7 active torsions:
REMARK  status: ('A' for Active; 'I' for Inactive)
REMARK    1  A    between atoms: O_3  and  C_9
REMARK    2  A    between atoms: N_5  and  C_8
REMARK    3  A    between atoms: N_5  and  C_13
REMARK    4  A    between atoms: N_6  and  C_12
REMARK    5  A    between atoms: N_7  and  C_21
REMARK    6  A    between atoms: C_10  and  C_12
REMARK    7  A    between atoms: C_13  and  C_14
REMARK                            x       y       z     vdW  Elec       q    Type
REMARK                         _______ _______ _______ _____ _____    ______ ____
ROOT
ATOM      2  O   UNL     1      -0.200   4.941  24.543  0.00  0.00    -0.371 OA
ATOM      8  C   UNL     1      -2.526   5.013  25.018  0.00  0.00    +0.111 C 
ATOM      9  C   UNL     1      -1.894   3.885  25.813  0.00  0.00    +0.164 C 
ATOM     10  C   UNL     1      -0.432   4.312  25.815  0.00  0.00    +0.165 C 
ATOM     11  C   UNL     1      -1.473   5.256  23.951  0.00  0.00    +0.181 C 
ENDROOT
BRANCH   9   3
ATOM      3  O   UNL     1      -2.415   3.783  27.124  0.00  0.00    -0.388 OA
ATOM     28  H   UNL     1      -2.151   2.924  27.493  0.00  0.00    +0.210 HD
ENDBRANCH   9   3
BRANCH   8   5
ATOM      5  N   UNL     1      -3.828   4.677  24.463  0.00  0.00    -0.305 NA
ATOM     27  H   UNL     1      -3.701   4.292  23.527  0.00  0.00    +0.123 HD
BRANCH   5  13
ATOM     13  C   UNL     1      -4.515   3.693  25.290  0.00  0.00    +0.119 C 
BRANCH  13  14
ATOM      1  F   UNL     1      -6.173   1.560  26.138  0.00  0.00    -0.205 F 
ATOM     14  C   UNL     1      -4.452   2.315  24.690  0.00  0.00    +0.002 A 
ATOM     16  C   UNL     1      -5.298   1.308  25.155  0.00  0.00    +0.128 A 
ATOM     17  C   UNL     1      -3.543   2.044  23.665  0.00  0.00    +0.008 A 
ATOM     18  C   UNL     1      -5.237   0.031  24.597  0.00  0.00    +0.038 A 
ATOM     19  C   UNL     1      -3.483   0.766  23.107  0.00  0.00    +0.000 A 
ATOM     20  C   UNL     1      -4.329  -0.239  23.573  0.00  0.00    +0.003 A 
ENDBRANCH  13  14
ENDBRANCH   5  13
ENDBRANCH   8   5
BRANCH  10  12
ATOM     12  C   UNL     1       0.530   3.153  25.999  0.00  0.00    +0.140 C 
BRANCH  12   6
ATOM      4  O   UNL     1      -0.369   1.086  24.231  0.00  0.00    -0.253 OA
ATOM      6  N   UNL     1      -0.163   1.952  26.366  0.00  0.00    -0.297 N 
ATOM      7  N   UNL     1      -1.222  -0.075  26.084  0.00  0.00    -0.269 N 
ATOM     15  C   UNL     1      -0.573   0.981  25.438  0.00  0.00    +0.304 C 
ATOM     29  H   UNL     1      -0.379   1.803  27.347  0.00  0.00    +0.150 HD
ATOM     30  H   UNL     1      -1.309  -0.006  27.094  0.00  0.00    +0.156 HD
BRANCH   7  21
ATOM     21  C   UNL     1      -1.778  -1.238  25.502  0.00  0.00    +0.035 A 
ATOM     22  C   UNL     1      -1.164  -1.826  24.396  0.00  0.00    +0.023 A 
ATOM     23  C   UNL     1      -2.939  -1.797  26.035  0.00  0.00    +0.023 A 
ATOM     24  C   UNL     1      -1.712  -2.973  23.822  0.00  0.00    +0.002 A 
ATOM     25  C   UNL     1      -3.487  -2.944  25.461  0.00  0.00    +0.002 A 
ATOM     26  C   UNL     1      -2.874  -3.533  24.355  0.00  0.00    +0.000 A 
ENDBRANCH   7  21
ENDBRANCH  12   6
ENDBRANCH  10  12
TORSDOF 7
ENDMDL
