MODEL 1
REMARK VINA RESULT:       1.0      0.000      0.000
REMARK  Name = 11912605
REMARK  11 active torsions:
REMARK  status: ('A' for Active; 'I' for Inactive)
REMARK    1  A    between atoms: O_4  and  C_31
REMARK    2  A    between atoms: O_4  and  C_33
REMARK    3  A    between atoms: N_7  and  C_19
REMARK    4  A    between atoms: N_8  and  C_20
REMARK    5  A    between atoms: C_9  and  C_15
REMARK    6  A    between atoms: C_10  and  C_14
REMARK    7  A    between atoms: C_14  and  C_16
REMARK    8  A    between atoms: C_15  and  C_18
REMARK    9  A    between atoms: C_19  and  C_21
REMARK   10  A    between atoms: C_24  and  C_31
REMARK   11  A    between atoms: C_33  and  C_34
REMARK                            x       y       z     vdW  Elec       q    Type
REMARK                         _______ _______ _______ _____ _____    ______ ____
ROOT
ATOM      2  O   UNL     1      -0.548  -1.287  25.913  0.00  0.00    -0.252 OA
ATOM      6  N   UNL     1      -2.509  -1.025  24.718  0.00  0.00    -0.285 N 
ATOM      8  N   UNL     1      -0.421  -0.911  23.627  0.00  0.00    -0.269 N 
ATOM      9  C   UNL     1      -5.055   0.346  24.833  0.00  0.00    +0.004 C 
ATOM     10  C   UNL     1      -4.157   0.428  23.570  0.00  0.00    +0.010 C 
ATOM     11  C   UNL     1      -4.233   0.051  26.100  0.00  0.00    +0.023 C 
ATOM     12  C   UNL     1      -3.279  -0.831  23.480  0.00  0.00    +0.113 C 
ATOM     13  C   UNL     1      -3.338  -1.173  25.915  0.00  0.00    +0.109 C 
ATOM     17  C   UNL     1      -1.104  -1.098  24.828  0.00  0.00    +0.306 C 
ATOM     36  H   UNL     1      -0.878  -1.182  22.764  0.00  0.00    +0.156 HD
ENDROOT
BRANCH   8  20
ATOM     20  C   UNL     1       0.872  -0.357  23.451  0.00  0.00    +0.036 A 
ATOM     22  C   UNL     1       2.002  -1.116  23.753  0.00  0.00    +0.038 A 
ATOM     23  C   UNL     1       1.013   0.946  22.976  0.00  0.00    +0.023 A 
ATOM     24  C   UNL     1       3.275  -0.571  23.580  0.00  0.00    +0.061 A 
ATOM     27  C   UNL     1       2.286   1.491  22.803  0.00  0.00    +0.003 A 
ATOM     28  C   UNL     1       3.416   0.733  23.105  0.00  0.00    +0.015 A 
BRANCH  24  31
ATOM      5  O   UNL     1       4.605  -2.550  23.581  0.00  0.00    -0.245 OA
ATOM     31  C   UNL     1       4.455  -1.361  23.894  0.00  0.00    +0.339 C 
BRANCH  31   4
ATOM      4  O   UNL     1       5.384  -0.627  24.578  0.00  0.00    -0.461 OA
BRANCH   4  33
ATOM     33  C   UNL     1       6.155   0.310  23.819  0.00  0.00    +0.229 C 
ATOM     34  C   UNL     1       7.007  -0.445  22.823  0.00  0.00    +0.048 C 
ENDBRANCH   4  33
ENDBRANCH  31   4
ENDBRANCH  24  31
ENDBRANCH   8  20
BRANCH  10  14
ATOM     14  C   UNL     1      -3.290   1.692  23.501  0.00  0.00    +0.002 C 
ATOM     16  C   UNL     1      -2.545   1.773  22.185  0.00  0.00    +0.004 C 
ENDBRANCH  10  14
BRANCH   9  15
ATOM     15  C   UNL     1      -5.926   1.587  25.032  0.00  0.00    +0.099 C 
BRANCH  15  18
ATOM      3  O   UNL     1      -4.988   3.690  24.287  0.00  0.00    -0.276 OA
ATOM      7  N   UNL     1      -4.500   2.916  26.423  0.00  0.00    -0.311 N 
ATOM     18  C   UNL     1      -5.100   2.848  25.175  0.00  0.00    +0.214 C 
ATOM     35  H   UNL     1      -4.645   2.163  27.090  0.00  0.00    +0.149 HD
BRANCH   7  19
ATOM     19  C   UNL     1      -3.651   4.011  26.833  0.00  0.00    +0.139 C 
BRANCH  19  21
ATOM      1  F   UNL     1       0.901   4.487  23.553  0.00  0.00    -0.205 F 
ATOM     21  C   UNL     1      -2.436   4.138  25.959  0.00  0.00    -0.030 A 
ATOM     25  C   UNL     1      -2.185   5.333  25.284  0.00  0.00    +0.008 A 
ATOM     26  C   UNL     1      -1.560   3.062  25.822  0.00  0.00    +0.008 A 
ATOM     29  C   UNL     1      -1.057   5.450  24.472  0.00  0.00    +0.038 A 
ATOM     30  C   UNL     1      -0.433   3.179  25.009  0.00  0.00    +0.038 A 
ATOM     32  C   UNL     1      -0.181   4.374  24.334  0.00  0.00    +0.123 A 
ENDBRANCH  19  21
ENDBRANCH   7  19
ENDBRANCH  15  18
ENDBRANCH   9  15
TORSDOF 9
ENDMDL
MODEL 2
REMARK VINA RESULT:       1.6      2.386      4.282
REMARK  Name = 11912605
REMARK  11 active torsions:
REMARK  status: ('A' for Active; 'I' for Inactive)
REMARK    1  A    between atoms: O_4  and  C_31
REMARK    2  A    between atoms: O_4  and  C_33
REMARK    3  A    between atoms: N_7  and  C_19
REMARK    4  A    between atoms: N_8  and  C_20
REMARK    5  A    between atoms: C_9  and  C_15
REMARK    6  A    between atoms: C_10  and  C_14
REMARK    7  A    between atoms: C_14  and  C_16
REMARK    8  A    between atoms: C_15  and  C_18
REMARK    9  A    between atoms: C_19  and  C_21
REMARK   10  A    between atoms: C_24  and  C_31
REMARK   11  A    between atoms: C_33  and  C_34
REMARK                            x       y       z     vdW  Elec       q    Type
REMARK                         _______ _______ _______ _____ _____    ______ ____
ROOT
ATOM      2  O   UNL     1      -1.879   1.918  21.783  0.00  0.00    -0.252 OA
ATOM      6  N   UNL     1      -2.400   3.454  23.430  0.00  0.00    -0.285 N 
ATOM      8  N   UNL     1      -0.250   2.487  23.333  0.00  0.00    -0.269 N 
ATOM      9  C   UNL     1      -4.481   4.104  25.333  0.00  0.00    +0.004 C 
ATOM     10  C   UNL     1      -3.000   3.978  25.777  0.00  0.00    +0.010 C 
ATOM     11  C   UNL     1      -4.768   3.282  24.063  0.00  0.00    +0.023 C 
ATOM     12  C   UNL     1      -2.077   4.299  24.590  0.00  0.00    +0.113 C 
ATOM     13  C   UNL     1      -3.774   3.606  22.949  0.00  0.00    +0.109 C 
ATOM     17  C   UNL     1      -1.521   2.571  22.766  0.00  0.00    +0.306 C 
ATOM     36  H   UNL     1       0.115   3.297  23.820  0.00  0.00    +0.156 HD
ENDROOT
BRANCH   8  20
ATOM     20  C   UNL     1       0.621   1.370  23.327  0.00  0.00    +0.036 A 
ATOM     22  C   UNL     1       1.972   1.541  23.025  0.00  0.00    +0.038 A 
ATOM     23  C   UNL     1       0.128   0.100  23.623  0.00  0.00    +0.023 A 
ATOM     24  C   UNL     1       2.830   0.441  23.018  0.00  0.00    +0.061 A 
ATOM     27  C   UNL     1       0.986  -1.001  23.617  0.00  0.00    +0.003 A 
ATOM     28  C   UNL     1       2.336  -0.830  23.315  0.00  0.00    +0.015 A 
BRANCH  24  31
ATOM      5  O   UNL     1       4.725   0.497  21.571  0.00  0.00    -0.245 OA
ATOM     31  C   UNL     1       4.239   0.618  22.704  0.00  0.00    +0.339 C 
BRANCH  31   4
ATOM      4  O   UNL     1       4.966   0.939  23.817  0.00  0.00    -0.461 OA
BRANCH   4  33
ATOM     33  C   UNL     1       6.015   0.038  24.187  0.00  0.00    +0.229 C 
ATOM     34  C   UNL     1       5.468  -1.372  24.213  0.00  0.00    +0.048 C 
ENDBRANCH   4  33
ENDBRANCH  31   4
ENDBRANCH  24  31
ENDBRANCH   8  20
BRANCH  10  14
ATOM     14  C   UNL     1      -2.642   2.615  26.381  0.00  0.00    +0.002 C 
ATOM     16  C   UNL     1      -1.141   2.429  26.462  0.00  0.00    +0.004 C 
ENDBRANCH  10  14
BRANCH   9  15
ATOM     15  C   UNL     1      -5.473   3.748  26.441  0.00  0.00    +0.099 C 
BRANCH  15  18
ATOM      3  O   UNL     1      -6.870   1.864  27.034  0.00  0.00    -0.276 OA
ATOM      7  N   UNL     1      -5.423   1.686  25.225  0.00  0.00    -0.311 N 
ATOM     18  C   UNL     1      -6.016   2.343  26.293  0.00  0.00    +0.214 C 
ATOM     35  H   UNL     1      -4.716   2.165  24.673  0.00  0.00    +0.149 HD
BRANCH   7  19
ATOM     19  C   UNL     1      -5.749   0.328  24.852  0.00  0.00    +0.139 C 
BRANCH  19  21
ATOM      1  F   UNL     1      -1.223  -3.021  24.914  0.00  0.00    -0.205 F 
ATOM     21  C   UNL     1      -4.541  -0.564  24.868  0.00  0.00    -0.030 A 
ATOM     25  C   UNL     1      -4.450  -1.629  23.972  0.00  0.00    +0.008 A 
ATOM     26  C   UNL     1      -3.513  -0.329  25.780  0.00  0.00    +0.008 A 
ATOM     29  C   UNL     1      -3.328  -2.458  23.988  0.00  0.00    +0.038 A 
ATOM     30  C   UNL     1      -2.392  -1.159  25.796  0.00  0.00    +0.038 A 
ATOM     32  C   UNL     1      -2.300  -2.223  24.899  0.00  0.00    +0.123 A 
ENDBRANCH  19  21
ENDBRANCH   7  19
ENDBRANCH  15  18
ENDBRANCH   9  15
TORSDOF 9
ENDMDL
MODEL 3
REMARK VINA RESULT:       2.4      1.553      2.370
REMARK  Name = 11912605
REMARK  11 active torsions:
REMARK  status: ('A' for Active; 'I' for Inactive)
REMARK    1  A    between atoms: O_4  and  C_31
REMARK    2  A    between atoms: O_4  and  C_33
REMARK    3  A    between atoms: N_7  and  C_19
REMARK    4  A    between atoms: N_8  and  C_20
REMARK    5  A    between atoms: C_9  and  C_15
REMARK    6  A    between atoms: C_10  and  C_14
REMARK    7  A    between atoms: C_14  and  C_16
REMARK    8  A    between atoms: C_15  and  C_18
REMARK    9  A    between atoms: C_19  and  C_21
REMARK   10  A    between atoms: C_24  and  C_31
REMARK   11  A    between atoms: C_33  and  C_34
REMARK                            x       y       z     vdW  Elec       q    Type
REMARK                         _______ _______ _______ _____ _____    ______ ____
ROOT
ATOM      2  O   UNL     1      -3.100  -1.361  26.687  0.00  0.00    -0.252 OA
ATOM      6  N   UNL     1      -4.519  -0.254  25.236  0.00  0.00    -0.285 N 
ATOM      8  N   UNL     1      -2.541  -1.262  24.437  0.00  0.00    -0.269 N 
ATOM      9  C   UNL     1      -6.039   2.198  24.997  0.00  0.00    +0.004 C 
ATOM     10  C   UNL     1      -5.080   1.736  23.868  0.00  0.00    +0.010 C 
ATOM     11  C   UNL     1      -5.624   1.628  26.366  0.00  0.00    +0.023 C 
ATOM     12  C   UNL     1      -4.942   0.205  23.904  0.00  0.00    +0.113 C 
ATOM     13  C   UNL     1      -5.442   0.112  26.310  0.00  0.00    +0.109 C 
ATOM     17  C   UNL     1      -3.360  -1.001  25.535  0.00  0.00    +0.306 C 
ATOM     36  H   UNL     1      -2.970  -1.334  23.522  0.00  0.00    +0.156 HD
ENDROOT
BRANCH   8  20
ATOM     20  C   UNL     1      -1.134  -1.431  24.435  0.00  0.00    +0.036 A 
ATOM     22  C   UNL     1      -0.352  -0.756  23.498  0.00  0.00    +0.038 A 
ATOM     23  C   UNL     1      -0.532  -2.271  25.371  0.00  0.00    +0.023 A 
ATOM     24  C   UNL     1       1.033  -0.922  23.496  0.00  0.00    +0.061 A 
ATOM     27  C   UNL     1       0.854  -2.438  25.369  0.00  0.00    +0.003 A 
ATOM     28  C   UNL     1       1.635  -1.764  24.432  0.00  0.00    +0.015 A 
BRANCH  24  31
ATOM      5  O   UNL     1       1.686  -0.281  21.294  0.00  0.00    -0.245 OA
ATOM     31  C   UNL     1       1.850  -0.219  22.520  0.00  0.00    +0.339 C 
BRANCH  31   4
ATOM      4  O   UNL     1       2.825   0.527  23.124  0.00  0.00    -0.461 OA
BRANCH   4  33
ATOM     33  C   UNL     1       4.107   0.552  22.488  0.00  0.00    +0.229 C 
ATOM     34  C   UNL     1       5.157   0.094  23.477  0.00  0.00    +0.048 C 
ENDBRANCH   4  33
ENDBRANCH  31   4
ENDBRANCH  24  31
ENDBRANCH   8  20
BRANCH  10  14
ATOM     14  C   UNL     1      -3.699   2.400  23.910  0.00  0.00    +0.002 C 
ATOM     16  C   UNL     1      -2.838   1.947  22.749  0.00  0.00    +0.004 C 
ENDBRANCH  10  14
BRANCH   9  15
ATOM     15  C   UNL     1      -6.192   3.717  25.071  0.00  0.00    +0.099 C 
BRANCH  15  18
ATOM      3  O   UNL     1      -4.397   5.189  24.388  0.00  0.00    -0.276 OA
ATOM      7  N   UNL     1      -4.250   4.078  26.424  0.00  0.00    -0.311 N 
ATOM     18  C   UNL     1      -4.861   4.420  25.226  0.00  0.00    +0.214 C 
ATOM     35  H   UNL     1      -4.710   3.423  27.051  0.00  0.00    +0.149 HD
BRANCH   7  19
ATOM     19  C   UNL     1      -2.966   4.599  26.833  0.00  0.00    +0.139 C 
BRANCH  19  21
ATOM      1  F   UNL     1       1.259   2.344  23.873  0.00  0.00    -0.205 F 
ATOM     21  C   UNL     1      -1.839   3.998  26.045  0.00  0.00    -0.030 A 
ATOM     25  C   UNL     1      -1.258   4.716  24.999  0.00  0.00    +0.008 A 
ATOM     26  C   UNL     1      -1.373   2.721  26.356  0.00  0.00    +0.008 A 
ATOM     29  C   UNL     1      -0.211   4.157  24.267  0.00  0.00    +0.038 A 
ATOM     30  C   UNL     1      -0.327   2.161  25.623  0.00  0.00    +0.038 A 
ATOM     32  C   UNL     1       0.254   2.880  24.578  0.00  0.00    +0.123 A 
ENDBRANCH  19  21
ENDBRANCH   7  19
ENDBRANCH  15  18
ENDBRANCH   9  15
TORSDOF 9
ENDMDL
MODEL 4
REMARK VINA RESULT:       4.7      2.878      5.187
REMARK  Name = 11912605
REMARK  11 active torsions:
REMARK  status: ('A' for Active; 'I' for Inactive)
REMARK    1  A    between atoms: O_4  and  C_31
REMARK    2  A    between atoms: O_4  and  C_33
REMARK    3  A    between atoms: N_7  and  C_19
REMARK    4  A    between atoms: N_8  and  C_20
REMARK    5  A    between atoms: C_9  and  C_15
REMARK    6  A    between atoms: C_10  and  C_14
REMARK    7  A    between atoms: C_14  and  C_16
REMARK    8  A    between atoms: C_15  and  C_18
REMARK    9  A    between atoms: C_19  and  C_21
REMARK   10  A    between atoms: C_24  and  C_31
REMARK   11  A    between atoms: C_33  and  C_34
REMARK                            x       y       z     vdW  Elec       q    Type
REMARK                         _______ _______ _______ _____ _____    ______ ____
ROOT
ATOM      2  O   UNL     1      -5.111   0.549  26.339  0.00  0.00    -0.252 OA
ATOM      6  N   UNL     1      -4.760   2.385  24.978  0.00  0.00    -0.285 N 
ATOM      8  N   UNL     1      -4.516   0.200  24.124  0.00  0.00    -0.269 N 
ATOM      9  C   UNL     1      -3.438   4.959  24.959  0.00  0.00    +0.004 C 
ATOM     10  C   UNL     1      -3.224   3.940  23.809  0.00  0.00    +0.010 C 
ATOM     11  C   UNL     1      -3.843   4.263  26.271  0.00  0.00    +0.023 C 
ATOM     12  C   UNL     1      -4.458   3.030  23.692  0.00  0.00    +0.113 C 
ATOM     13  C   UNL     1      -5.033   3.327  26.065  0.00  0.00    +0.109 C 
ATOM     17  C   UNL     1      -4.826   0.997  25.225  0.00  0.00    +0.306 C 
ATOM     36  H   UNL     1      -4.710   0.561  23.197  0.00  0.00    +0.156 HD
ENDROOT
BRANCH   8  20
ATOM     20  C   UNL     1      -3.932  -1.091  24.135  0.00  0.00    +0.036 A 
ATOM     22  C   UNL     1      -2.607  -1.254  24.540  0.00  0.00    +0.038 A 
ATOM     23  C   UNL     1      -4.682  -2.198  23.741  0.00  0.00    +0.023 A 
ATOM     24  C   UNL     1      -2.032  -2.525  24.550  0.00  0.00    +0.061 A 
ATOM     27  C   UNL     1      -4.107  -3.470  23.752  0.00  0.00    +0.003 A 
ATOM     28  C   UNL     1      -2.783  -3.633  24.156  0.00  0.00    +0.015 A 
BRANCH  24  31
ATOM      5  O   UNL     1      -0.169  -3.763  25.375  0.00  0.00    -0.245 OA
ATOM     31  C   UNL     1      -0.651  -2.696  24.973  0.00  0.00    +0.339 C 
BRANCH  31   4
ATOM      4  O   UNL     1       0.055  -1.529  24.869  0.00  0.00    -0.461 OA
BRANCH   4  33
ATOM     33  C   UNL     1       0.162  -0.952  23.563  0.00  0.00    +0.229 C 
ATOM     34  C   UNL     1       1.097   0.237  23.625  0.00  0.00    +0.048 C 
ENDBRANCH   4  33
ENDBRANCH  31   4
ENDBRANCH  24  31
ENDBRANCH   8  20
BRANCH  10  14
ATOM     14  C   UNL     1      -1.949   3.099  23.949  0.00  0.00    +0.002 C 
ATOM     16  C   UNL     1      -1.895   2.010  22.898  0.00  0.00    +0.004 C 
ENDBRANCH  10  14
BRANCH   9  15
ATOM     15  C   UNL     1      -2.233   5.873  25.184  0.00  0.00    +0.099 C 
BRANCH  15  18
ATOM      3  O   UNL     1      -0.099   5.497  24.107  0.00  0.00    -0.276 OA
ATOM      7  N   UNL     1      -0.781   4.078  25.816  0.00  0.00    -0.311 N 
ATOM     18  C   UNL     1      -0.920   5.155  24.954  0.00  0.00    +0.214 C 
ATOM     35  H   UNL     1      -1.522   3.867  26.479  0.00  0.00    +0.149 HD
BRANCH   7  19
ATOM     19  C   UNL     1       0.376   3.211  25.817  0.00  0.00    +0.139 C 
BRANCH  19  21
ATOM      1  F   UNL     1       2.094   2.003  31.041  0.00  0.00    -0.205 F 
ATOM     21  C   UNL     1       0.835   2.888  27.209  0.00  0.00    -0.030 A 
ATOM     25  C   UNL     1      -0.071   2.380  28.141  0.00  0.00    +0.008 A 
ATOM     26  C   UNL     1       2.165   3.098  27.572  0.00  0.00    +0.008 A 
ATOM     29  C   UNL     1       0.356   2.080  29.435  0.00  0.00    +0.038 A 
ATOM     30  C   UNL     1       2.591   2.800  28.866  0.00  0.00    +0.038 A 
ATOM     32  C   UNL     1       1.686   2.290  29.798  0.00  0.00    +0.123 A 
ENDBRANCH  19  21
ENDBRANCH   7  19
ENDBRANCH  15  18
ENDBRANCH   9  15
TORSDOF 9
ENDMDL
