MODEL 1
REMARK VINA RESULT:      13.3      0.000      0.000
REMARK  Name = 71692863
REMARK  7 active torsions:
REMARK  status: ('A' for Active; 'I' for Inactive)
REMARK    1  A    between atoms: N_6  and  C_21
REMARK    2  A    between atoms: N_6  and  C_22
REMARK    3  A    between atoms: N_8  and  C_29
REMARK    4  A    between atoms: C_10  and  C_15
REMARK    5  A    between atoms: C_15  and  C_18
REMARK    6  A    between atoms: C_21  and  C_26
REMARK    7  A    between atoms: C_22  and  C_27
REMARK                            x       y       z     vdW  Elec       q    Type
REMARK                         _______ _______ _______ _____ _____    ______ ____
ROOT
ATOM      1  O   UNL     1      -1.617   0.460  22.343  0.00  0.00    -0.492 OA
ATOM      2  O   UNL     1      -4.249  -1.791  23.424  0.00  0.00    -0.274 OA
ATOM      5  N   UNL     1      -4.627  -0.269  25.129  0.00  0.00    -0.300 N 
ATOM      7  N   UNL     1      -1.654  -1.335  25.102  0.00  0.00    -0.304 NA
ATOM      9  C   UNL     1      -5.060   2.019  24.295  0.00  0.00    +0.010 C 
ATOM     10  C   UNL     1      -5.129   2.516  25.766  0.00  0.00    +0.004 C 
ATOM     11  C   UNL     1      -4.251   1.647  26.684  0.00  0.00    +0.023 C 
ATOM     12  C   UNL     1      -5.515   0.545  24.292  0.00  0.00    +0.111 C 
ATOM     13  C   UNL     1      -3.652   2.197  23.678  0.00  0.00    +0.008 C 
ATOM     14  C   UNL     1      -4.557   0.155  26.534  0.00  0.00    +0.108 C 
ATOM     16  C   UNL     1      -3.543   1.853  22.185  0.00  0.00    +0.041 C 
ATOM     17  C   UNL     1      -3.996  -1.377  24.562  0.00  0.00    +0.229 C 
ATOM     19  C   UNL     1      -2.071   1.696  21.789  0.00  0.00    +0.229 C 
ATOM     20  C   UNL     1      -2.898  -2.066  25.353  0.00  0.00    +0.178 C 
ATOM     23  C   UNL     1      -0.987  -1.796  23.879  0.00  0.00    +0.120 C 
ATOM     24  C   UNL     1      -0.282   0.304  22.609  0.00  0.00    +0.125 A 
ATOM     25  C   UNL     1       0.062  -0.816  23.397  0.00  0.00    +0.010 A 
ATOM     28  C   UNL     1       1.406  -1.026  23.740  0.00  0.00    +0.031 A 
ATOM     29  C   UNL     1       2.396  -0.158  23.286  0.00  0.00    +0.030 A 
ATOM     30  C   UNL     1       0.722   1.157  22.139  0.00  0.00    +0.048 A 
ATOM     31  C   UNL     1       2.056   0.926  22.481  0.00  0.00    +0.027 A 
ATOM     36  H   UNL     1      -1.019  -1.473  25.888  0.00  0.00    +0.123 HD
ENDROOT
BRANCH  29   8
ATOM      4  O   UNL     1       6.472  -0.810  24.095  0.00  0.00    -0.377 OA
ATOM      8  N   UNL     1       3.732  -0.370  23.646  0.00  0.00    -0.326 N 
ATOM     32  C   UNL     1       4.718   0.660  23.292  0.00  0.00    +0.133 C 
ATOM     33  C   UNL     1       4.259  -1.737  23.727  0.00  0.00    +0.133 C 
ATOM     34  C   UNL     1       5.952   0.517  24.175  0.00  0.00    +0.178 C 
ATOM     35  C   UNL     1       5.519  -1.752  24.586  0.00  0.00    +0.178 C 
ENDBRANCH  29   8
BRANCH  10  15
ATOM     15  C   UNL     1      -4.779   3.995  25.926  0.00  0.00    +0.100 C 
BRANCH  15  18
ATOM      3  O   UNL     1      -4.107   5.035  23.874  0.00  0.00    -0.276 OA
ATOM      6  N   UNL     1      -2.415   4.200  25.223  0.00  0.00    -0.302 N 
ATOM     18  C   UNL     1      -3.753   4.462  24.907  0.00  0.00    +0.216 C 
BRANCH   6  21
ATOM     21  C   UNL     1      -1.316   4.586  24.347  0.00  0.00    +0.104 C 
ATOM     26  C   UNL     1      -0.733   5.927  24.745  0.00  0.00    +0.024 C 
ENDBRANCH   6  21
BRANCH   6  22
ATOM     22  C   UNL     1      -2.019   3.520  26.453  0.00  0.00    +0.104 C 
ATOM     27  C   UNL     1      -0.783   2.669  26.243  0.00  0.00    +0.024 C 
ENDBRANCH   6  22
ENDBRANCH  15  18
ENDBRANCH  10  15
TORSDOF 5
ENDMDL
