MODEL 1
REMARK VINA RESULT:      -3.7      0.000      0.000
REMARK  Name = 75367103
REMARK  5 active torsions:
REMARK  status: ('A' for Active; 'I' for Inactive)
REMARK    1  A    between atoms: O_2  and  C_10
REMARK    2  A    between atoms: N_5  and  C_8
REMARK    3  A    between atoms: N_5  and  C_9
REMARK    4  A    between atoms: N_6  and  C_18
REMARK    5  A    between atoms: C_11  and  C_18
REMARK                            x       y       z     vdW  Elec       q    Type
REMARK                         _______ _______ _______ _____ _____    ______ ____
ROOT
ATOM      1  O   UNL     1       0.154   3.891  23.677  0.00  0.00    -0.371 OA
ATOM      8  C   UNL     1      -1.239   4.347  25.547  0.00  0.00    +0.111 C 
ATOM     10  C   UNL     1      -0.877   2.873  25.546  0.00  0.00    +0.164 C 
ATOM     11  C   UNL     1       0.370   2.877  24.673  0.00  0.00    +0.165 C 
ATOM     14  C   UNL     1      -0.930   4.732  24.109  0.00  0.00    +0.181 C 
ENDROOT
BRANCH  10   2
ATOM      2  O   UNL     1      -0.610   2.376  26.844  0.00  0.00    -0.388 OA
ATOM     25  H   UNL     1      -0.308   1.456  26.763  0.00  0.00    +0.210 HD
ENDBRANCH  10   2
BRANCH   8   5
ATOM      5  N   UNL     1      -2.620   4.608  25.918  0.00  0.00    -0.306 NA
ATOM     24  H   UNL     1      -2.966   5.432  25.426  0.00  0.00    +0.123 HD
BRANCH   5   9
ATOM      9  C   UNL     1      -3.471   3.458  25.620  0.00  0.00    +0.054 C 
ATOM     12  C   UNL     1      -4.704   3.471  26.531  0.00  0.00    +0.019 C 
ATOM     13  C   UNL     1      -3.876   3.478  24.141  0.00  0.00    +0.019 C 
ATOM     15  C   UNL     1      -5.656   2.325  26.195  0.00  0.00    +0.002 C 
ATOM     16  C   UNL     1      -4.828   2.332  23.809  0.00  0.00    +0.002 C 
ATOM     17  C   UNL     1      -6.052   2.335  24.722  0.00  0.00    +0.000 C 
ENDBRANCH   5   9
ENDBRANCH   8   5
BRANCH  11  18
ATOM     18  C   UNL     1       0.636   1.544  23.998  0.00  0.00    +0.140 C 
BRANCH  18   6
ATOM      3  O   UNL     1      -4.418  -2.398  24.349  0.00  0.00    -0.377 OA
ATOM      4  O   UNL     1       0.363  -1.170  24.692  0.00  0.00    -0.253 OA
ATOM      6  N   UNL     1      -0.574   0.760  23.879  0.00  0.00    -0.297 N 
ATOM      7  N   UNL     1      -1.869  -1.209  24.065  0.00  0.00    -0.281 N 
ATOM     19  C   UNL     1      -0.626  -0.580  24.245  0.00  0.00    +0.302 C 
ATOM     20  C   UNL     1      -3.046  -0.628  23.402  0.00  0.00    +0.137 C 
ATOM     21  C   UNL     1      -2.013  -2.622  24.418  0.00  0.00    +0.137 C 
ATOM     22  C   UNL     1      -4.324  -0.986  24.154  0.00  0.00    +0.179 C 
ATOM     23  C   UNL     1      -3.328  -2.874  25.140  0.00  0.00    +0.179 C 
ATOM     26  H   UNL     1      -1.376   1.239  23.496  0.00  0.00    +0.150 HD
ENDBRANCH  18   6
ENDBRANCH  11  18
TORSDOF 5
ENDMDL
MODEL 2
REMARK VINA RESULT:      -3.2      1.961      4.877
REMARK  Name = 75367103
REMARK  5 active torsions:
REMARK  status: ('A' for Active; 'I' for Inactive)
REMARK    1  A    between atoms: O_2  and  C_10
REMARK    2  A    between atoms: N_5  and  C_8
REMARK    3  A    between atoms: N_5  and  C_9
REMARK    4  A    between atoms: N_6  and  C_18
REMARK    5  A    between atoms: C_11  and  C_18
REMARK                            x       y       z     vdW  Elec       q    Type
REMARK                         _______ _______ _______ _____ _____    ______ ____
ROOT
ATOM      1  O   UNL     1      -3.590  -1.240  26.247  0.00  0.00    -0.371 OA
ATOM      8  C   UNL     1      -4.524   0.286  24.684  0.00  0.00    +0.111 C 
ATOM     10  C   UNL     1      -3.509  -0.593  23.974  0.00  0.00    +0.164 C 
ATOM     11  C   UNL     1      -3.433  -1.780  24.924  0.00  0.00    +0.165 C 
ATOM     14  C   UNL     1      -4.124   0.092  26.138  0.00  0.00    +0.181 C 
ENDROOT
BRANCH  10   2
ATOM      2  O   UNL     1      -3.933  -0.979  22.681  0.00  0.00    -0.388 OA
ATOM     25  H   UNL     1      -3.715  -1.917  22.555  0.00  0.00    +0.210 HD
ENDBRANCH  10   2
BRANCH   8   5
ATOM      5  N   UNL     1      -4.483   1.678  24.267  0.00  0.00    -0.306 NA
ATOM     24  H   UNL     1      -5.383   2.123  24.442  0.00  0.00    +0.123 HD
BRANCH   5   9
ATOM      9  C   UNL     1      -3.425   2.405  24.966  0.00  0.00    +0.054 C 
ATOM     12  C   UNL     1      -2.252   2.663  24.014  0.00  0.00    +0.019 C 
ATOM     13  C   UNL     1      -3.980   3.719  25.529  0.00  0.00    +0.019 C 
ATOM     15  C   UNL     1      -1.159   3.488  24.689  0.00  0.00    +0.002 C 
ATOM     16  C   UNL     1      -2.884   4.542  26.202  0.00  0.00    +0.002 C 
ATOM     17  C   UNL     1      -1.709   4.792  25.260  0.00  0.00    +0.000 C 
ENDBRANCH   5   9
ENDBRANCH   8   5
BRANCH  11  18
ATOM     18  C   UNL     1      -2.122  -2.539  24.832  0.00  0.00    +0.140 C 
BRANCH  18   6
ATOM      3  O   UNL     1       2.660   0.637  21.961  0.00  0.00    -0.377 OA
ATOM      4  O   UNL     1      -0.587  -0.301  25.575  0.00  0.00    -0.253 OA
ATOM      6  N   UNL     1      -1.170  -1.852  23.988  0.00  0.00    -0.297 N 
ATOM      7  N   UNL     1       0.433  -0.186  23.495  0.00  0.00    -0.281 N 
ATOM     19  C   UNL     1      -0.449  -0.750  24.432  0.00  0.00    +0.302 C 
ATOM     20  C   UNL     1       0.545  -0.559  22.077  0.00  0.00    +0.137 C 
ATOM     21  C   UNL     1       1.228   0.983  23.876  0.00  0.00    +0.137 C 
ATOM     22  C   UNL     1       2.006  -0.592  21.641  0.00  0.00    +0.179 C 
ATOM     23  C   UNL     1       2.657   0.859  23.371  0.00  0.00    +0.179 C 
ATOM     26  H   UNL     1      -1.072  -2.209  23.049  0.00  0.00    +0.150 HD
ENDBRANCH  18   6
ENDBRANCH  11  18
TORSDOF 5
ENDMDL
MODEL 3
REMARK VINA RESULT:      -2.9      1.995      4.469
REMARK  Name = 75367103
REMARK  5 active torsions:
REMARK  status: ('A' for Active; 'I' for Inactive)
REMARK    1  A    between atoms: O_2  and  C_10
REMARK    2  A    between atoms: N_5  and  C_8
REMARK    3  A    between atoms: N_5  and  C_9
REMARK    4  A    between atoms: N_6  and  C_18
REMARK    5  A    between atoms: C_11  and  C_18
REMARK                            x       y       z     vdW  Elec       q    Type
REMARK                         _______ _______ _______ _____ _____    ______ ____
ROOT
ATOM      1  O   UNL     1      -5.863   3.209  25.827  0.00  0.00    -0.371 OA
ATOM      8  C   UNL     1      -4.079   4.116  24.547  0.00  0.00    +0.111 C 
ATOM     10  C   UNL     1      -4.196   2.632  24.252  0.00  0.00    +0.164 C 
ATOM     11  C   UNL     1      -5.626   2.356  24.695  0.00  0.00    +0.165 C 
ATOM     14  C   UNL     1      -4.843   4.223  25.857  0.00  0.00    +0.181 C 
ENDROOT
BRANCH  10   2
ATOM      2  O   UNL     1      -3.999   2.330  22.884  0.00  0.00    -0.388 OA
ATOM     25  H   UNL     1      -3.564   1.463  22.821  0.00  0.00    +0.210 HD
ENDBRANCH  10   2
BRANCH   8   5
ATOM      5  N   UNL     1      -2.707   4.584  24.652  0.00  0.00    -0.306 NA
ATOM     24  H   UNL     1      -2.631   5.287  25.388  0.00  0.00    +0.123 HD
BRANCH   5   9
ATOM      9  C   UNL     1      -1.794   3.477  24.928  0.00  0.00    +0.054 C 
ATOM     12  C   UNL     1      -0.572   3.566  24.006  0.00  0.00    +0.019 C 
ATOM     13  C   UNL     1      -1.376   3.499  26.403  0.00  0.00    +0.019 C 
ATOM     15  C   UNL     1       0.441   2.467  24.318  0.00  0.00    +0.002 C 
ATOM     16  C   UNL     1      -0.362   2.400  26.711  0.00  0.00    +0.002 C 
ATOM     17  C   UNL     1       0.851   2.479  25.788  0.00  0.00    +0.000 C 
ENDBRANCH   5   9
ENDBRANCH   8   5
BRANCH  11  18
ATOM     18  C   UNL     1      -5.866   0.909  25.083  0.00  0.00    +0.140 C 
BRANCH  18   6
ATOM      3  O   UNL     1      -0.317  -2.310  25.299  0.00  0.00    -0.377 OA
ATOM      4  O   UNL     1      -4.934  -1.400  23.771  0.00  0.00    -0.253 OA
ATOM      6  N   UNL     1      -4.624   0.222  25.363  0.00  0.00    -0.297 N 
ATOM      7  N   UNL     1      -3.006  -1.474  25.058  0.00  0.00    -0.281 N 
ATOM     19  C   UNL     1      -4.236  -0.916  24.668  0.00  0.00    +0.302 C 
ATOM     20  C   UNL     1      -2.191  -1.055  26.208  0.00  0.00    +0.137 C 
ATOM     21  C   UNL     1      -2.522  -2.679  24.382  0.00  0.00    +0.137 C 
ATOM     22  C   UNL     1      -0.709  -1.051  25.848  0.00  0.00    +0.179 C 
ATOM     23  C   UNL     1      -1.032  -2.581  24.093  0.00  0.00    +0.179 C 
ATOM     26  H   UNL     1      -4.064   0.609  26.109  0.00  0.00    +0.150 HD
ENDBRANCH  18   6
ENDBRANCH  11  18
TORSDOF 5
ENDMDL
MODEL 4
REMARK VINA RESULT:      -2.9      1.969      4.543
REMARK  Name = 75367103
REMARK  5 active torsions:
REMARK  status: ('A' for Active; 'I' for Inactive)
REMARK    1  A    between atoms: O_2  and  C_10
REMARK    2  A    between atoms: N_5  and  C_8
REMARK    3  A    between atoms: N_5  and  C_9
REMARK    4  A    between atoms: N_6  and  C_18
REMARK    5  A    between atoms: C_11  and  C_18
REMARK                            x       y       z     vdW  Elec       q    Type
REMARK                         _______ _______ _______ _____ _____    ______ ____
ROOT
ATOM      1  O   UNL     1      -0.459  -1.190  22.966  0.00  0.00    -0.371 OA
ATOM      8  C   UNL     1       0.568   0.184  24.609  0.00  0.00    +0.111 C 
ATOM     10  C   UNL     1      -0.835  -0.173  25.067  0.00  0.00    +0.164 C 
ATOM     11  C   UNL     1      -1.112  -1.411  24.227  0.00  0.00    +0.165 C 
ATOM     14  C   UNL     1       0.482  -0.113  23.121  0.00  0.00    +0.181 C 
ENDROOT
BRANCH  10   2
ATOM      2  O   UNL     1      -0.902  -0.449  26.453  0.00  0.00    -0.388 OA
ATOM     25  H   UNL     1      -0.523  -1.330  26.608  0.00  0.00    +0.210 HD
ENDBRANCH  10   2
BRANCH   8   5
ATOM      5  N   UNL     1       0.941   1.561  24.891  0.00  0.00    -0.306 NA
ATOM     24  H   UNL     1       1.675   1.863  24.250  0.00  0.00    +0.123 HD
BRANCH   5   9
ATOM      9  C   UNL     1      -0.212   2.452  24.780  0.00  0.00    +0.054 C 
ATOM     12  C   UNL     1      -0.720   2.824  26.177  0.00  0.00    +0.019 C 
ATOM     13  C   UNL     1       0.169   3.702  23.979  0.00  0.00    +0.019 C 
ATOM     15  C   UNL     1      -1.879   3.815  26.102  0.00  0.00    +0.002 C 
ATOM     16  C   UNL     1      -0.992   4.691  23.907  0.00  0.00    +0.002 C 
ATOM     17  C   UNL     1      -1.507   5.056  25.296  0.00  0.00    +0.000 C 
ENDBRANCH   5   9
ENDBRANCH   8   5
BRANCH  11  18
ATOM     18  C   UNL     1      -2.591  -1.665  24.002  0.00  0.00    +0.140 C 
BRANCH  18   6
ATOM      3  O   UNL     1      -5.733   3.794  25.234  0.00  0.00    -0.377 OA
ATOM      4  O   UNL     1      -4.222  -0.829  26.138  0.00  0.00    -0.253 OA
ATOM      6  N   UNL     1      -3.353  -0.437  24.051  0.00  0.00    -0.297 N 
ATOM      7  N   UNL     1      -4.824   1.125  25.044  0.00  0.00    -0.281 N 
ATOM     19  C   UNL     1      -4.137  -0.097  25.146  0.00  0.00    +0.302 C 
ATOM     20  C   UNL     1      -4.900   1.978  23.848  0.00  0.00    +0.137 C 
ATOM     21  C   UNL     1      -5.679   1.559  26.150  0.00  0.00    +0.137 C 
ATOM     22  C   UNL     1      -4.782   3.451  24.226  0.00  0.00    +0.179 C 
ATOM     23  C   UNL     1      -5.501   3.044  26.426  0.00  0.00    +0.179 C 
ATOM     26  H   UNL     1      -3.297   0.151  23.232  0.00  0.00    +0.150 HD
ENDBRANCH  18   6
ENDBRANCH  11  18
TORSDOF 5
ENDMDL
MODEL 5
REMARK VINA RESULT:      -2.8      1.800      4.838
REMARK  Name = 75367103
REMARK  5 active torsions:
REMARK  status: ('A' for Active; 'I' for Inactive)
REMARK    1  A    between atoms: O_2  and  C_10
REMARK    2  A    between atoms: N_5  and  C_8
REMARK    3  A    between atoms: N_5  and  C_9
REMARK    4  A    between atoms: N_6  and  C_18
REMARK    5  A    between atoms: C_11  and  C_18
REMARK                            x       y       z     vdW  Elec       q    Type
REMARK                         _______ _______ _______ _____ _____    ______ ____
ROOT
ATOM      1  O   UNL     1      -0.436   1.766  26.411  0.00  0.00    -0.371 OA
ATOM      8  C   UNL     1       0.208   0.074  24.872  0.00  0.00    +0.111 C 
ATOM     10  C   UNL     1       0.127   1.403  24.142  0.00  0.00    +0.164 C 
ATOM     11  C   UNL     1       0.241   2.382  25.302  0.00  0.00    +0.165 C 
ATOM     14  C   UNL     1      -0.607   0.367  26.121  0.00  0.00    +0.181 C 
ENDROOT
BRANCH  10   2
ATOM      2  O   UNL     1       1.170   1.573  23.202  0.00  0.00    -0.388 OA
ATOM     25  H   UNL     1       0.840   2.129  22.476  0.00  0.00    +0.210 HD
ENDBRANCH  10   2
BRANCH   8   5
ATOM      5  N   UNL     1      -0.313  -1.046  24.106  0.00  0.00    -0.306 NA
ATOM     24  H   UNL     1       0.291  -1.860  24.218  0.00  0.00    +0.123 HD
BRANCH   5   9
ATOM      9  C   UNL     1      -1.675  -1.378  24.520  0.00  0.00    +0.054 C 
ATOM     12  C   UNL     1      -2.682  -0.552  23.712  0.00  0.00    +0.019 C 
ATOM     13  C   UNL     1      -1.922  -2.880  24.343  0.00  0.00    +0.019 C 
ATOM     15  C   UNL     1      -4.119  -0.928  24.065  0.00  0.00    +0.002 C 
ATOM     16  C   UNL     1      -3.361  -3.253  24.695  0.00  0.00    +0.002 C 
ATOM     17  C   UNL     1      -4.367  -2.425  23.900  0.00  0.00    +0.000 C 
ENDBRANCH   5   9
ENDBRANCH   8   5
BRANCH  11  18
ATOM     18  C   UNL     1      -0.382   3.735  25.009  0.00  0.00    +0.140 C 
BRANCH  18   6
ATOM      3  O   UNL     1      -6.689   2.743  25.663  0.00  0.00    -0.377 OA
ATOM      4  O   UNL     1      -2.323   2.563  23.342  0.00  0.00    -0.253 OA
ATOM      6  N   UNL     1      -1.807   3.726  25.251  0.00  0.00    -0.297 N 
ATOM      7  N   UNL     1      -4.056   3.204  24.744  0.00  0.00    -0.281 N 
ATOM     19  C   UNL     1      -2.702   3.124  24.376  0.00  0.00    +0.302 C 
ATOM     20  C   UNL     1      -4.604   3.978  25.867  0.00  0.00    +0.137 C 
ATOM     21  C   UNL     1      -5.069   2.602  23.875  0.00  0.00    +0.137 C 
ATOM     22  C   UNL     1      -5.696   3.191  26.586  0.00  0.00    +0.179 C 
ATOM     23  C   UNL     1      -6.120   1.865  24.692  0.00  0.00    +0.179 C 
ATOM     26  H   UNL     1      -2.117   4.201  26.087  0.00  0.00    +0.150 HD
ENDBRANCH  18   6
ENDBRANCH  11  18
TORSDOF 5
ENDMDL
MODEL 6
REMARK VINA RESULT:      -2.3      1.885      4.118
REMARK  Name = 75367103
REMARK  5 active torsions:
REMARK  status: ('A' for Active; 'I' for Inactive)
REMARK    1  A    between atoms: O_2  and  C_10
REMARK    2  A    between atoms: N_5  and  C_8
REMARK    3  A    between atoms: N_5  and  C_9
REMARK    4  A    between atoms: N_6  and  C_18
REMARK    5  A    between atoms: C_11  and  C_18
REMARK                            x       y       z     vdW  Elec       q    Type
REMARK                         _______ _______ _______ _____ _____    ______ ____
ROOT
ATOM      1  O   UNL     1      -3.318   3.816  23.387  0.00  0.00    -0.371 OA
ATOM      8  C   UNL     1      -4.972   2.697  24.675  0.00  0.00    +0.111 C 
ATOM     10  C   UNL     1      -3.866   3.177  25.598  0.00  0.00    +0.164 C 
ATOM     11  C   UNL     1      -3.228   4.268  24.749  0.00  0.00    +0.165 C 
ATOM     14  C   UNL     1      -4.277   2.745  23.324  0.00  0.00    +0.181 C 
ENDROOT
BRANCH  10   2
ATOM      2  O   UNL     1      -4.359   3.683  26.823  0.00  0.00    -0.388 OA
ATOM     25  H   UNL     1      -5.152   4.215  26.638  0.00  0.00    +0.210 HD
ENDBRANCH  10   2
BRANCH   8   5
ATOM      5  N   UNL     1      -5.474   1.374  25.006  0.00  0.00    -0.306 NA
ATOM     24  H   UNL     1      -6.259   1.134  24.399  0.00  0.00    +0.123 HD
BRANCH   5   9
ATOM      9  C   UNL     1      -4.424   0.365  24.880  0.00  0.00    +0.054 C 
ATOM     12  C   UNL     1      -4.178  -0.304  26.237  0.00  0.00    +0.019 C 
ATOM     13  C   UNL     1      -4.816  -0.667  23.817  0.00  0.00    +0.019 C 
ATOM     15  C   UNL     1      -3.139  -1.417  26.128  0.00  0.00    +0.002 C 
ATOM     16  C   UNL     1      -3.775  -1.779  23.711  0.00  0.00    +0.002 C 
ATOM     17  C   UNL     1      -3.520  -2.441  25.063  0.00  0.00    +0.000 C 
ENDBRANCH   5   9
ENDBRANCH   8   5
BRANCH  11  18
ATOM     18  C   UNL     1      -1.778   4.536  25.106  0.00  0.00    +0.140 C 
BRANCH  18   6
ATOM      3  O   UNL     1       1.204  -0.859  23.317  0.00  0.00    -0.377 OA
ATOM      4  O   UNL     1      -1.839   1.896  26.079  0.00  0.00    -0.253 OA
ATOM      6  N   UNL     1      -0.917   3.457  24.673  0.00  0.00    -0.297 N 
ATOM      7  N   UNL     1      -0.103   1.238  24.689  0.00  0.00    -0.281 N 
ATOM     19  C   UNL     1      -1.011   2.177  25.206  0.00  0.00    +0.302 C 
ATOM     20  C   UNL     1       1.007   1.522  23.767  0.00  0.00    +0.137 C 
ATOM     21  C   UNL     1      -0.127  -0.134  25.198  0.00  0.00    +0.137 C 
ATOM     22  C   UNL     1       1.124   0.431  22.709  0.00  0.00    +0.179 C 
ATOM     23  C   UNL     1       0.022  -1.139  24.066  0.00  0.00    +0.179 C 
ATOM     26  H   UNL     1      -0.229   3.694  23.972  0.00  0.00    +0.150 HD
ENDBRANCH  18   6
ENDBRANCH  11  18
TORSDOF 5
ENDMDL
MODEL 7
REMARK VINA RESULT:      -2.2      2.130      5.483
REMARK  Name = 75367103
REMARK  5 active torsions:
REMARK  status: ('A' for Active; 'I' for Inactive)
REMARK    1  A    between atoms: O_2  and  C_10
REMARK    2  A    between atoms: N_5  and  C_8
REMARK    3  A    between atoms: N_5  and  C_9
REMARK    4  A    between atoms: N_6  and  C_18
REMARK    5  A    between atoms: C_11  and  C_18
REMARK                            x       y       z     vdW  Elec       q    Type
REMARK                         _______ _______ _______ _____ _____    ______ ____
ROOT
ATOM      1  O   UNL     1      -2.490  -2.695  23.547  0.00  0.00    -0.371 OA
ATOM      8  C   UNL     1      -1.058  -1.825  25.231  0.00  0.00    +0.111 C 
ATOM     10  C   UNL     1      -2.459  -1.280  25.442  0.00  0.00    +0.164 C 
ATOM     11  C   UNL     1      -3.289  -2.300  24.675  0.00  0.00    +0.165 C 
ATOM     14  C   UNL     1      -1.130  -2.288  23.785  0.00  0.00    +0.181 C 
ENDROOT
BRANCH  10   2
ATOM      2  O   UNL     1      -2.822  -1.224  26.808  0.00  0.00    -0.388 OA
ATOM     25  H   UNL     1      -3.791  -1.176  26.865  0.00  0.00    +0.210 HD
ENDBRANCH  10   2
BRANCH   8   5
ATOM      5  N   UNL     1      -0.010  -0.843  25.458  0.00  0.00    -0.306 NA
ATOM     24  H   UNL     1       0.798  -1.050  24.871  0.00  0.00    +0.123 HD
BRANCH   5   9
ATOM      9  C   UNL     1      -0.488   0.510  25.184  0.00  0.00    +0.054 C 
ATOM     12  C   UNL     1      -0.330   1.383  26.434  0.00  0.00    +0.019 C 
ATOM     13  C   UNL     1       0.276   1.103  23.994  0.00  0.00    +0.019 C 
ATOM     15  C   UNL     1      -0.750   2.826  26.161  0.00  0.00    +0.002 C 
ATOM     16  C   UNL     1      -0.146   2.546  23.726  0.00  0.00    +0.002 C 
ATOM     17  C   UNL     1       0.001   3.416  24.971  0.00  0.00    +0.000 C 
ENDBRANCH   5   9
ENDBRANCH   8   5
BRANCH  11  18
ATOM     18  C   UNL     1      -4.620  -1.751  24.194  0.00  0.00    +0.140 C 
BRANCH  18   6
ATOM      3  O   UNL     1      -5.379   4.531  25.266  0.00  0.00    -0.377 OA
ATOM      4  O   UNL     1      -3.238   0.530  23.296  0.00  0.00    -0.253 OA
ATOM      6  N   UNL     1      -4.834  -0.398  24.658  0.00  0.00    -0.297 N 
ATOM      7  N   UNL     1      -4.423   1.929  24.715  0.00  0.00    -0.281 N 
ATOM     19  C   UNL     1      -4.107   0.677  24.162  0.00  0.00    +0.302 C 
ATOM     20  C   UNL     1      -5.328   2.172  25.849  0.00  0.00    +0.137 C 
ATOM     21  C   UNL     1      -3.701   3.117  24.256  0.00  0.00    +0.137 C 
ATOM     22  C   UNL     1      -6.190   3.404  25.600  0.00  0.00    +0.179 C 
ATOM     23  C   UNL     1      -4.648   4.291  24.063  0.00  0.00    +0.179 C 
ATOM     26  H   UNL     1      -5.532  -0.282  25.379  0.00  0.00    +0.150 HD
ENDBRANCH  18   6
ENDBRANCH  11  18
TORSDOF 5
ENDMDL
MODEL 8
REMARK VINA RESULT:      -2.2      2.092      4.687
REMARK  Name = 75367103
REMARK  5 active torsions:
REMARK  status: ('A' for Active; 'I' for Inactive)
REMARK    1  A    between atoms: O_2  and  C_10
REMARK    2  A    between atoms: N_5  and  C_8
REMARK    3  A    between atoms: N_5  and  C_9
REMARK    4  A    between atoms: N_6  and  C_18
REMARK    5  A    between atoms: C_11  and  C_18
REMARK                            x       y       z     vdW  Elec       q    Type
REMARK                         _______ _______ _______ _____ _____    ______ ____
ROOT
ATOM      1  O   UNL     1      -0.158   3.298  25.499  0.00  0.00    -0.371 OA
ATOM      8  C   UNL     1       0.165   0.959  25.241  0.00  0.00    +0.111 C 
ATOM     10  C   UNL     1      -0.661   1.476  24.078  0.00  0.00    +0.164 C 
ATOM     11  C   UNL     1      -0.320   2.959  24.111  0.00  0.00    +0.165 C 
ATOM     14  C   UNL     1      -0.003   2.082  26.252  0.00  0.00    +0.181 C 
ENDROOT
BRANCH  10   2
ATOM      2  O   UNL     1      -0.302   0.879  22.846  0.00  0.00    -0.388 OA
ATOM     25  H   UNL     1       0.237   1.514  22.344  0.00  0.00    +0.210 HD
ENDBRANCH  10   2
BRANCH   8   5
ATOM      5  N   UNL     1      -0.281  -0.329  25.747  0.00  0.00    -0.306 NA
ATOM     24  H   UNL     1      -0.556  -0.245  26.726  0.00  0.00    +0.123 HD
BRANCH   5   9
ATOM      9  C   UNL     1      -1.400  -0.844  24.960  0.00  0.00    +0.054 C 
ATOM     12  C   UNL     1      -1.181  -2.330  24.653  0.00  0.00    +0.019 C 
ATOM     13  C   UNL     1      -2.715  -0.623  25.716  0.00  0.00    +0.019 C 
ATOM     15  C   UNL     1      -2.367  -2.922  23.896  0.00  0.00    +0.002 C 
ATOM     16  C   UNL     1      -3.899  -1.217  24.957  0.00  0.00    +0.002 C 
ATOM     17  C   UNL     1      -3.681  -2.694  24.640  0.00  0.00    +0.000 C 
ENDBRANCH   5   9
ENDBRANCH   8   5
BRANCH  11  18
ATOM     18  C   UNL     1      -1.391   3.836  23.490  0.00  0.00    +0.140 C 
BRANCH  18   6
ATOM      3  O   UNL     1      -6.821   2.289  26.542  0.00  0.00    -0.377 OA
ATOM      4  O   UNL     1      -3.349   1.864  23.044  0.00  0.00    -0.253 OA
ATOM      6  N   UNL     1      -2.648   3.719  24.197  0.00  0.00    -0.297 N 
ATOM      7  N   UNL     1      -4.741   2.735  24.681  0.00  0.00    -0.281 N 
ATOM     19  C   UNL     1      -3.563   2.713  23.915  0.00  0.00    +0.302 C 
ATOM     20  C   UNL     1      -5.142   3.789  25.624  0.00  0.00    +0.137 C 
ATOM     21  C   UNL     1      -5.765   1.715  24.446  0.00  0.00    +0.137 C 
ATOM     22  C   UNL     1      -5.762   3.185  26.880  0.00  0.00    +0.179 C 
ATOM     23  C   UNL     1      -6.333   1.199  25.760  0.00  0.00    +0.179 C 
ATOM     26  H   UNL     1      -2.829   4.425  24.896  0.00  0.00    +0.150 HD
ENDBRANCH  18   6
ENDBRANCH  11  18
TORSDOF 5
ENDMDL
MODEL 9
REMARK VINA RESULT:      -1.2      1.894      4.631
REMARK  Name = 75367103
REMARK  5 active torsions:
REMARK  status: ('A' for Active; 'I' for Inactive)
REMARK    1  A    between atoms: O_2  and  C_10
REMARK    2  A    between atoms: N_5  and  C_8
REMARK    3  A    between atoms: N_5  and  C_9
REMARK    4  A    between atoms: N_6  and  C_18
REMARK    5  A    between atoms: C_11  and  C_18
REMARK                            x       y       z     vdW  Elec       q    Type
REMARK                         _______ _______ _______ _____ _____    ______ ____
ROOT
ATOM      1  O   UNL     1      -5.660   0.519  26.265  0.00  0.00    -0.371 OA
ATOM      8  C   UNL     1      -5.495   2.451  24.892  0.00  0.00    +0.111 C 
ATOM     10  C   UNL     1      -4.347   1.513  24.567  0.00  0.00    +0.164 C 
ATOM     11  C   UNL     1      -4.888   0.193  25.097  0.00  0.00    +0.165 C 
ATOM     14  C   UNL     1      -5.931   1.933  26.252  0.00  0.00    +0.181 C 
ENDROOT
BRANCH  10   2
ATOM      2  O   UNL     1      -4.068   1.452  23.182  0.00  0.00    -0.388 OA
ATOM     25  H   UNL     1      -3.725   0.565  22.978  0.00  0.00    +0.210 HD
ENDBRANCH  10   2
BRANCH   8   5
ATOM      5  N   UNL     1      -5.113   3.854  24.917  0.00  0.00    -0.306 NA
ATOM     24  H   UNL     1      -5.366   4.270  25.814  0.00  0.00    +0.123 HD
BRANCH   5   9
ATOM      9  C   UNL     1      -3.679   4.013  24.683  0.00  0.00    +0.054 C 
ATOM     12  C   UNL     1      -3.407   5.366  24.017  0.00  0.00    +0.019 C 
ATOM     13  C   UNL     1      -2.917   3.884  26.007  0.00  0.00    +0.019 C 
ATOM     15  C   UNL     1      -1.910   5.600  23.826  0.00  0.00    +0.002 C 
ATOM     16  C   UNL     1      -1.421   4.120  25.813  0.00  0.00    +0.002 C 
ATOM     17  C   UNL     1      -1.146   5.462  25.140  0.00  0.00    +0.000 C 
ENDBRANCH   5   9
ENDBRANCH   8   5
BRANCH  11  18
ATOM     18  C   UNL     1      -3.798  -0.799  25.463  0.00  0.00    +0.140 C 
BRANCH  18   6
ATOM      3  O   UNL     1       1.980   1.142  23.455  0.00  0.00    -0.377 OA
ATOM      4  O   UNL     1      -1.729  -2.078  24.050  0.00  0.00    -0.253 OA
ATOM      6  N   UNL     1      -2.482  -0.254  25.219  0.00  0.00    -0.297 N 
ATOM      7  N   UNL     1      -0.280  -0.294  24.360  0.00  0.00    -0.281 N 
ATOM     19  C   UNL     1      -1.512  -0.952  24.509  0.00  0.00    +0.302 C 
ATOM     20  C   UNL     1       0.110   0.971  25.000  0.00  0.00    +0.137 C 
ATOM     21  C   UNL     1       0.802  -0.960  23.631  0.00  0.00    +0.137 C 
ATOM     22  C   UNL     1       0.882   1.855  24.026  0.00  0.00    +0.179 C 
ATOM     23  C   UNL     1       1.520   0.015  22.710  0.00  0.00    +0.179 C 
ATOM     26  H   UNL     1      -2.301   0.659  25.611  0.00  0.00    +0.150 HD
ENDBRANCH  18   6
ENDBRANCH  11  18
TORSDOF 5
ENDMDL
MODEL 10
REMARK VINA RESULT:      -0.8      2.096      5.327
REMARK  Name = 75367103
REMARK  5 active torsions:
REMARK  status: ('A' for Active; 'I' for Inactive)
REMARK    1  A    between atoms: O_2  and  C_10
REMARK    2  A    between atoms: N_5  and  C_8
REMARK    3  A    between atoms: N_5  and  C_9
REMARK    4  A    between atoms: N_6  and  C_18
REMARK    5  A    between atoms: C_11  and  C_18
REMARK                            x       y       z     vdW  Elec       q    Type
REMARK                         _______ _______ _______ _____ _____    ______ ____
ROOT
ATOM      1  O   UNL     1       1.620   1.793  23.949  0.00  0.00    -0.371 OA
ATOM      8  C   UNL     1       0.389  -0.075  23.151  0.00  0.00    +0.111 C 
ATOM     10  C   UNL     1      -0.580   1.025  23.546  0.00  0.00    +0.164 C 
ATOM     11  C   UNL     1       0.330   2.245  23.506  0.00  0.00    +0.165 C 
ATOM     14  C   UNL     1       1.648   0.356  23.886  0.00  0.00    +0.181 C 
ENDROOT
BRANCH  10   2
ATOM      2  O   UNL     1      -1.664   1.146  22.645  0.00  0.00    -0.388 OA
ATOM     25  H   UNL     1      -1.730   0.322  22.133  0.00  0.00    +0.210 HD
ENDBRANCH  10   2
BRANCH   8   5
ATOM      5  N   UNL     1      -0.058  -1.407  23.527  0.00  0.00    -0.306 NA
ATOM     24  H   UNL     1       0.578  -1.808  24.217  0.00  0.00    +0.123 HD
BRANCH   5   9
ATOM      9  C   UNL     1      -1.416  -1.375  24.064  0.00  0.00    +0.054 C 
ATOM     12  C   UNL     1      -2.061  -2.759  23.937  0.00  0.00    +0.019 C 
ATOM     13  C   UNL     1      -1.389  -0.909  25.525  0.00  0.00    +0.019 C 
ATOM     15  C   UNL     1      -3.455  -2.783  24.558  0.00  0.00    +0.002 C 
ATOM     16  C   UNL     1      -2.785  -0.935  26.143  0.00  0.00    +0.002 C 
ATOM     17  C   UNL     1      -3.434  -2.310  26.009  0.00  0.00    +0.000 C 
ENDBRANCH   5   9
ENDBRANCH   8   5
BRANCH  11  18
ATOM     18  C   UNL     1      -0.149   3.380  24.393  0.00  0.00    +0.140 C 
BRANCH  18   6
ATOM      3  O   UNL     1      -6.402   3.417  25.842  0.00  0.00    -0.377 OA
ATOM      4  O   UNL     1      -1.896   5.389  25.306  0.00  0.00    -0.253 OA
ATOM      6  N   UNL     1      -1.517   3.180  24.818  0.00  0.00    -0.297 N 
ATOM      7  N   UNL     1      -3.620   3.875  25.644  0.00  0.00    -0.281 N 
ATOM     19  C   UNL     1      -2.316   4.228  25.257  0.00  0.00    +0.302 C 
ATOM     20  C   UNL     1      -4.148   2.508  25.762  0.00  0.00    +0.137 C 
ATOM     21  C   UNL     1      -4.528   4.916  26.127  0.00  0.00    +0.137 C 
ATOM     22  C   UNL     1      -5.573   2.430  25.226  0.00  0.00    +0.179 C 
ATOM     23  C   UNL     1      -5.925   4.732  25.552  0.00  0.00    +0.179 C 
ATOM     26  H   UNL     1      -1.852   2.228  24.795  0.00  0.00    +0.150 HD
ENDBRANCH  18   6
ENDBRANCH  11  18
TORSDOF 5
ENDMDL
