MODEL 1
REMARK VINA RESULT:      -5.4      0.000      0.000
REMARK  Name = 45360991
REMARK  6 active torsions:
REMARK  status: ('A' for Active; 'I' for Inactive)
REMARK    1  A    between atoms: N_3  and  C_16
REMARK    2  A    between atoms: N_6  and  C_19
REMARK    3  A    between atoms: C_11  and  C_15
REMARK    4  A    between atoms: C_15  and  C_17
REMARK    5  A    between atoms: C_17  and  C_18
REMARK    6  A    between atoms: C_19  and  C_20
REMARK                            x       y       z     vdW  Elec       q    Type
REMARK                         _______ _______ _______ _____ _____    ______ ____
ROOT
ATOM      1  O   UNL     1      -4.706  -0.236  24.878  0.00  0.00    -0.274 OA
ATOM      3  N   UNL     1      -2.749   3.125  25.173  0.00  0.00    -0.296 NA
ATOM      4  N   UNL     1      -6.216   1.973  25.121  0.00  0.00    -0.304 NA
ATOM      5  N   UNL     1      -3.118   0.751  23.558  0.00  0.00    -0.312 N 
ATOM      8  C   UNL     1      -4.195   3.304  24.920  0.00  0.00    +0.084 C 
ATOM      9  C   UNL     1      -4.991   2.113  24.321  0.00  0.00    +0.158 C 
ATOM     10  C   UNL     1      -5.014   3.630  26.183  0.00  0.00    +0.036 C 
ATOM     11  C   UNL     1      -1.933   2.891  23.950  0.00  0.00    +0.074 C 
ATOM     12  C   UNL     1      -6.425   3.244  25.799  0.00  0.00    +0.083 C 
ATOM     13  C   UNL     1      -2.560   1.928  22.923  0.00  0.00    +0.123 C 
ATOM     14  C   UNL     1      -4.279   0.768  24.308  0.00  0.00    +0.232 C 
ATOM     16  C   UNL     1      -2.207   4.263  25.936  0.00  0.00    +0.105 C 
ATOM     25  H   UNL     1      -6.071   1.257  25.834  0.00  0.00    +0.123 HD
ATOM     26  H   UNL     1      -2.605  -0.122  23.489  0.00  0.00    +0.149 HD
ENDROOT
BRANCH  11  15
ATOM     15  C   UNL     1      -0.546   2.329  24.329  0.00  0.00    +0.029 C 
BRANCH  15  17
ATOM     17  C   UNL     1      -0.677   0.958  24.963  0.00  0.00    +0.097 C 
BRANCH  17  18
ATOM      2  O   UNL     1       0.135  -1.277  24.502  0.00  0.00    -0.276 OA
ATOM      6  N   UNL     1       0.958   0.503  23.259  0.00  0.00    -0.311 N 
ATOM     18  C   UNL     1       0.165  -0.077  24.238  0.00  0.00    +0.213 C 
ATOM     27  H   UNL     1       0.931   1.510  23.123  0.00  0.00    +0.149 HD
BRANCH   6  19
ATOM     19  C   UNL     1       1.850  -0.272  22.430  0.00  0.00    +0.141 C 
BRANCH  19  20
ATOM      7  N   UNL     1       5.007  -1.517  24.099  0.00  0.00    -0.263 NA
ATOM     20  C   UNL     1       3.248  -0.295  22.978  0.00  0.00    -0.012 A 
ATOM     21  C   UNL     1       4.069   0.824  22.894  0.00  0.00    +0.008 A 
ATOM     22  C   UNL     1       3.760  -1.431  23.584  0.00  0.00    +0.115 A 
ATOM     23  C   UNL     1       5.359   0.774  23.411  0.00  0.00    +0.020 A 
ATOM     24  C   UNL     1       5.776  -0.409  23.999  0.00  0.00    +0.111 A 
ENDBRANCH  19  20
ENDBRANCH   6  19
ENDBRANCH  17  18
ENDBRANCH  15  17
ENDBRANCH  11  15
TORSDOF 5
ENDMDL
MODEL 2
REMARK VINA RESULT:      -5.4      2.665      6.014
REMARK  Name = 45360991
REMARK  6 active torsions:
REMARK  status: ('A' for Active; 'I' for Inactive)
REMARK    1  A    between atoms: N_3  and  C_16
REMARK    2  A    between atoms: N_6  and  C_19
REMARK    3  A    between atoms: C_11  and  C_15
REMARK    4  A    between atoms: C_15  and  C_17
REMARK    5  A    between atoms: C_17  and  C_18
REMARK    6  A    between atoms: C_19  and  C_20
REMARK                            x       y       z     vdW  Elec       q    Type
REMARK                         _______ _______ _______ _____ _____    ______ ____
ROOT
ATOM      1  O   UNL     1      -0.645   2.208  27.046  0.00  0.00    -0.274 OA
ATOM      3  N   UNL     1      -2.333   2.671  23.561  0.00  0.00    -0.296 NA
ATOM      4  N   UNL     1       0.846   1.497  24.927  0.00  0.00    -0.304 NA
ATOM      5  N   UNL     1      -1.605   4.014  26.019  0.00  0.00    -0.312 N 
ATOM      8  C   UNL     1      -0.880   2.410  23.483  0.00  0.00    +0.084 C 
ATOM      9  C   UNL     1      -0.015   2.674  24.746  0.00  0.00    +0.158 C 
ATOM     10  C   UNL     1      -0.524   0.948  23.155  0.00  0.00    +0.036 C 
ATOM     11  C   UNL     1      -2.693   4.096  23.796  0.00  0.00    +0.074 C 
ATOM     12  C   UNL     1       0.901   0.812  23.644  0.00  0.00    +0.083 C 
ATOM     13  C   UNL     1      -1.822   4.824  24.838  0.00  0.00    +0.123 C 
ATOM     14  C   UNL     1      -0.775   2.909  26.043  0.00  0.00    +0.232 C 
ATOM     16  C   UNL     1      -3.020   2.163  22.360  0.00  0.00    +0.105 C 
ATOM     25  H   UNL     1       0.412   0.865  25.602  0.00  0.00    +0.123 HD
ATOM     26  H   UNL     1      -2.125   4.240  26.862  0.00  0.00    +0.149 HD
ENDROOT
BRANCH  11  15
ATOM     15  C   UNL     1      -4.162   4.210  24.253  0.00  0.00    +0.029 C 
BRANCH  15  17
ATOM     17  C   UNL     1      -4.297   3.851  25.721  0.00  0.00    +0.097 C 
BRANCH  17  18
ATOM      2  O   UNL     1      -6.057   2.411  26.552  0.00  0.00    -0.276 OA
ATOM      6  N   UNL     1      -4.354   1.489  25.271  0.00  0.00    -0.311 N 
ATOM     18  C   UNL     1      -5.017   2.527  25.910  0.00  0.00    +0.213 C 
ATOM     27  H   UNL     1      -3.487   1.677  24.776  0.00  0.00    +0.149 HD
BRANCH   6  19
ATOM     19  C   UNL     1      -4.840   0.130  25.304  0.00  0.00    +0.141 C 
BRANCH  19  20
ATOM      7  N   UNL     1      -1.441  -1.527  25.352  0.00  0.00    -0.263 NA
ATOM     20  C   UNL     1      -3.746  -0.864  25.043  0.00  0.00    -0.012 A 
ATOM     21  C   UNL     1      -3.980  -2.006  24.285  0.00  0.00    +0.008 A 
ATOM     22  C   UNL     1      -2.471  -0.673  25.550  0.00  0.00    +0.115 A 
ATOM     23  C   UNL     1      -2.946  -2.908  24.059  0.00  0.00    +0.020 A 
ATOM     24  C   UNL     1      -1.707  -2.625  24.609  0.00  0.00    +0.111 A 
ENDBRANCH  19  20
ENDBRANCH   6  19
ENDBRANCH  17  18
ENDBRANCH  15  17
ENDBRANCH  11  15
TORSDOF 5
ENDMDL
MODEL 3
REMARK VINA RESULT:      -4.9      2.566      5.083
REMARK  Name = 45360991
REMARK  6 active torsions:
REMARK  status: ('A' for Active; 'I' for Inactive)
REMARK    1  A    between atoms: N_3  and  C_16
REMARK    2  A    between atoms: N_6  and  C_19
REMARK    3  A    between atoms: C_11  and  C_15
REMARK    4  A    between atoms: C_15  and  C_17
REMARK    5  A    between atoms: C_17  and  C_18
REMARK    6  A    between atoms: C_19  and  C_20
REMARK                            x       y       z     vdW  Elec       q    Type
REMARK                         _______ _______ _______ _____ _____    ______ ____
ROOT
ATOM      1  O   UNL     1      -2.052   5.927  25.296  0.00  0.00    -0.274 OA
ATOM      3  N   UNL     1      -1.985   2.293  23.880  0.00  0.00    -0.296 NA
ATOM      4  N   UNL     1      -4.265   4.468  25.730  0.00  0.00    -0.304 NA
ATOM      5  N   UNL     1      -0.601   4.181  25.582  0.00  0.00    -0.312 N 
ATOM      8  C   UNL     1      -3.103   2.543  24.816  0.00  0.00    +0.084 C 
ATOM      9  C   UNL     1      -2.989   3.742  25.796  0.00  0.00    +0.158 C 
ATOM     10  C   UNL     1      -4.448   2.825  24.122  0.00  0.00    +0.036 C 
ATOM     11  C   UNL     1      -0.697   1.938  24.536  0.00  0.00    +0.074 C 
ATOM     12  C   UNL     1      -5.249   3.545  25.184  0.00  0.00    +0.083 C 
ATOM     13  C   UNL     1      -0.353   2.768  25.788  0.00  0.00    +0.123 C 
ATOM     14  C   UNL     1      -1.866   4.732  25.520  0.00  0.00    +0.232 C 
ATOM     16  C   UNL     1      -2.353   1.267  22.889  0.00  0.00    +0.105 C 
ATOM     25  H   UNL     1      -4.173   5.250  25.079  0.00  0.00    +0.123 HD
ATOM     26  H   UNL     1       0.196   4.792  25.429  0.00  0.00    +0.149 HD
ENDROOT
BRANCH  11  15
ATOM     15  C   UNL     1       0.472   2.089  23.540  0.00  0.00    +0.029 C 
BRANCH  15  17
ATOM     17  C   UNL     1       1.366   0.864  23.572  0.00  0.00    +0.097 C 
BRANCH  17  18
ATOM      2  O   UNL     1       0.223  -1.030  22.588  0.00  0.00    -0.276 OA
ATOM      6  N   UNL     1       0.250  -0.804  24.899  0.00  0.00    -0.311 N 
ATOM     18  C   UNL     1       0.556  -0.421  23.600  0.00  0.00    +0.213 C 
ATOM     27  H   UNL     1       0.554  -0.225  25.677  0.00  0.00    +0.149 HD
BRANCH   6  19
ATOM     19  C   UNL     1      -0.514  -1.993  25.190  0.00  0.00    +0.141 C 
BRANCH  19  20
ATOM      7  N   UNL     1      -4.016  -0.604  25.518  0.00  0.00    -0.263 NA
ATOM     20  C   UNL     1      -1.983  -1.788  24.959  0.00  0.00    -0.012 A 
ATOM     21  C   UNL     1      -2.674  -2.547  24.022  0.00  0.00    +0.008 A 
ATOM     22  C   UNL     1      -2.693  -0.838  25.675  0.00  0.00    +0.115 A 
ATOM     23  C   UNL     1      -4.036  -2.336  23.831  0.00  0.00    +0.020 A 
ATOM     24  C   UNL     1      -4.654  -1.362  24.598  0.00  0.00    +0.111 A 
ENDBRANCH  19  20
ENDBRANCH   6  19
ENDBRANCH  17  18
ENDBRANCH  15  17
ENDBRANCH  11  15
TORSDOF 5
ENDMDL
MODEL 4
REMARK VINA RESULT:      -4.6      3.053      4.267
REMARK  Name = 45360991
REMARK  6 active torsions:
REMARK  status: ('A' for Active; 'I' for Inactive)
REMARK    1  A    between atoms: N_3  and  C_16
REMARK    2  A    between atoms: N_6  and  C_19
REMARK    3  A    between atoms: C_11  and  C_15
REMARK    4  A    between atoms: C_15  and  C_17
REMARK    5  A    between atoms: C_17  and  C_18
REMARK    6  A    between atoms: C_19  and  C_20
REMARK                            x       y       z     vdW  Elec       q    Type
REMARK                         _______ _______ _______ _____ _____    ______ ____
ROOT
ATOM      1  O   UNL     1      -3.426   0.429  23.482  0.00  0.00    -0.274 OA
ATOM      3  N   UNL     1      -3.098   3.612  25.714  0.00  0.00    -0.296 NA
ATOM      4  N   UNL     1      -5.735   1.453  24.396  0.00  0.00    -0.304 NA
ATOM      5  N   UNL     1      -2.426   2.460  23.144  0.00  0.00    -0.312 N 
ATOM      8  C   UNL     1      -4.482   3.340  25.272  0.00  0.00    +0.084 C 
ATOM      9  C   UNL     1      -4.695   2.427  24.034  0.00  0.00    +0.158 C 
ATOM     10  C   UNL     1      -5.352   2.642  26.334  0.00  0.00    +0.036 C 
ATOM     11  C   UNL     1      -2.270   4.359  24.727  0.00  0.00    +0.074 C 
ATOM     12  C   UNL     1      -6.464   2.013  25.525  0.00  0.00    +0.083 C 
ATOM     13  C   UNL     1      -2.432   3.904  23.264  0.00  0.00    +0.123 C 
ATOM     14  C   UNL     1      -3.475   1.657  23.549  0.00  0.00    +0.232 C 
ATOM     16  C   UNL     1      -3.090   4.305  27.014  0.00  0.00    +0.105 C 
ATOM     25  H   UNL     1      -5.291   0.588  24.708  0.00  0.00    +0.123 HD
ATOM     26  H   UNL     1      -1.588   2.010  22.789  0.00  0.00    +0.149 HD
ENDROOT
BRANCH  11  15
ATOM     15  C   UNL     1      -0.774   4.247  25.088  0.00  0.00    +0.029 C 
BRANCH  15  17
ATOM     17  C   UNL     1      -0.525   3.048  25.983  0.00  0.00    +0.097 C 
BRANCH  17  18
ATOM      2  O   UNL     1       0.529   1.900  24.131  0.00  0.00    -0.276 OA
ATOM      6  N   UNL     1      -0.511   0.651  25.789  0.00  0.00    -0.311 N 
ATOM     18  C   UNL     1      -0.100   1.830  25.183  0.00  0.00    +0.213 C 
ATOM     27  H   UNL     1      -1.045   0.691  26.653  0.00  0.00    +0.149 HD
BRANCH   6  19
ATOM     19  C   UNL     1      -0.228  -0.646  25.222  0.00  0.00    +0.141 C 
BRANCH  19  20
ATOM      7  N   UNL     1      -2.620  -3.249  23.880  0.00  0.00    -0.263 NA
ATOM     20  C   UNL     1      -1.474  -1.463  25.038  0.00  0.00    -0.012 A 
ATOM     21  C   UNL     1      -2.608  -1.224  25.807  0.00  0.00    +0.008 A 
ATOM     22  C   UNL     1      -1.531  -2.478  24.097  0.00  0.00    +0.115 A 
ATOM     23  C   UNL     1      -3.748  -1.996  25.613  0.00  0.00    +0.020 A 
ATOM     24  C   UNL     1      -3.703  -2.987  24.645  0.00  0.00    +0.111 A 
ENDBRANCH  19  20
ENDBRANCH   6  19
ENDBRANCH  17  18
ENDBRANCH  15  17
ENDBRANCH  11  15
TORSDOF 5
ENDMDL
MODEL 5
REMARK VINA RESULT:      -3.9     17.684     19.317
REMARK  Name = 45360991
REMARK  6 active torsions:
REMARK  status: ('A' for Active; 'I' for Inactive)
REMARK    1  A    between atoms: N_3  and  C_16
REMARK    2  A    between atoms: N_6  and  C_19
REMARK    3  A    between atoms: C_11  and  C_15
REMARK    4  A    between atoms: C_15  and  C_17
REMARK    5  A    between atoms: C_17  and  C_18
REMARK    6  A    between atoms: C_19  and  C_20
REMARK                            x       y       z     vdW  Elec       q    Type
REMARK                         _______ _______ _______ _____ _____    ______ ____
ROOT
ATOM      1  O   UNL     1      14.788  -2.728  22.422  0.00  0.00    -0.274 OA
ATOM      3  N   UNL     1      16.921  -4.107  25.383  0.00  0.00    -0.296 NA
ATOM      4  N   UNL     1      16.523  -0.992  23.515  0.00  0.00    -0.304 NA
ATOM      5  N   UNL     1      16.169  -4.543  22.622  0.00  0.00    -0.312 N 
ATOM      8  C   UNL     1      17.404  -2.811  24.859  0.00  0.00    +0.084 C 
ATOM      9  C   UNL     1      16.974  -2.388  23.428  0.00  0.00    +0.158 C 
ATOM     10  C   UNL     1      16.965  -1.595  25.695  0.00  0.00    +0.036 C 
ATOM     11  C   UNL     1      17.405  -5.297  24.631  0.00  0.00    +0.074 C 
ATOM     12  C   UNL     1      17.096  -0.437  24.732  0.00  0.00    +0.083 C 
ATOM     13  C   UNL     1      17.397  -5.146  23.097  0.00  0.00    +0.123 C 
ATOM     14  C   UNL     1      15.860  -3.207  22.792  0.00  0.00    +0.232 C 
ATOM     16  C   UNL     1      17.240  -4.244  26.814  0.00  0.00    +0.105 C 
ATOM     25  H   UNL     1      15.506  -0.973  23.609  0.00  0.00    +0.123 HD
ATOM     26  H   UNL     1      15.476  -5.142  22.182  0.00  0.00    +0.149 HD
ENDROOT
BRANCH  11  15
ATOM     15  C   UNL     1      16.556  -6.536  24.983  0.00  0.00    +0.029 C 
BRANCH  15  17
ATOM     17  C   UNL     1      17.370  -7.807  24.826  0.00  0.00    +0.097 C 
BRANCH  17  18
ATOM      2  O   UNL     1      17.124  -9.998  25.827  0.00  0.00    -0.276 OA
ATOM      6  N   UNL     1      16.886  -8.113  27.162  0.00  0.00    -0.311 N 
ATOM     18  C   UNL     1      17.118  -8.777  25.967  0.00  0.00    +0.213 C 
ATOM     27  H   UNL     1      16.883  -7.097  27.179  0.00  0.00    +0.149 HD
BRANCH   6  19
ATOM     19  C   UNL     1      16.621  -8.816  28.395  0.00  0.00    +0.141 C 
BRANCH  19  20
ATOM      7  N   UNL     1      13.592  -8.513  30.639  0.00  0.00    -0.263 NA
ATOM     20  C   UNL     1      15.474  -8.210  29.151  0.00  0.00    -0.012 A 
ATOM     21  C   UNL     1      15.212  -6.846  29.085  0.00  0.00    +0.008 A 
ATOM     22  C   UNL     1      14.642  -8.993  29.935  0.00  0.00    +0.115 A 
ATOM     23  C   UNL     1      14.141  -6.315  29.796  0.00  0.00    +0.020 A 
ATOM     24  C   UNL     1      13.369  -7.183  30.550  0.00  0.00    +0.111 A 
ENDBRANCH  19  20
ENDBRANCH   6  19
ENDBRANCH  17  18
ENDBRANCH  15  17
ENDBRANCH  11  15
TORSDOF 5
ENDMDL
MODEL 6
REMARK VINA RESULT:      -3.3      2.729      6.492
REMARK  Name = 45360991
REMARK  6 active torsions:
REMARK  status: ('A' for Active; 'I' for Inactive)
REMARK    1  A    between atoms: N_3  and  C_16
REMARK    2  A    between atoms: N_6  and  C_19
REMARK    3  A    between atoms: C_11  and  C_15
REMARK    4  A    between atoms: C_15  and  C_17
REMARK    5  A    between atoms: C_17  and  C_18
REMARK    6  A    between atoms: C_19  and  C_20
REMARK                            x       y       z     vdW  Elec       q    Type
REMARK                         _______ _______ _______ _____ _____    ______ ____
ROOT
ATOM      1  O   UNL     1      -1.964   1.868  22.308  0.00  0.00    -0.274 OA
ATOM      3  N   UNL     1      -0.880   0.119  25.621  0.00  0.00    -0.296 NA
ATOM      4  N   UNL     1      -0.880   3.472  24.171  0.00  0.00    -0.304 NA
ATOM      5  N   UNL     1      -0.583   0.096  22.742  0.00  0.00    -0.312 N 
ATOM      8  C   UNL     1      -0.362   1.497  25.484  0.00  0.00    +0.084 C 
ATOM      9  C   UNL     1      -0.304   2.124  24.065  0.00  0.00    +0.158 C 
ATOM     10  C   UNL     1      -1.172   2.549  26.264  0.00  0.00    +0.036 C 
ATOM     11  C   UNL     1      -0.060  -0.920  24.940  0.00  0.00    +0.074 C 
ATOM     12  C   UNL     1      -0.818   3.849  25.576  0.00  0.00    +0.083 C 
ATOM     13  C   UNL     1       0.452  -0.531  23.539  0.00  0.00    +0.123 C 
ATOM     14  C   UNL     1      -1.050   1.376  22.969  0.00  0.00    +0.232 C 
ATOM     16  C   UNL     1      -1.067  -0.230  27.040  0.00  0.00    +0.105 C 
ATOM     25  H   UNL     1      -1.864   3.440  23.898  0.00  0.00    +0.123 HD
ATOM     26  H   UNL     1      -1.023  -0.451  22.008  0.00  0.00    +0.149 HD
ENDROOT
BRANCH  11  15
ATOM     15  C   UNL     1      -0.864  -2.229  24.795  0.00  0.00    +0.029 C 
BRANCH  15  17
ATOM     17  C   UNL     1      -2.044  -2.035  23.862  0.00  0.00    +0.097 C 
BRANCH  17  18
ATOM      2  O   UNL     1      -3.644  -2.198  25.672  0.00  0.00    -0.276 OA
ATOM      6  N   UNL     1      -4.004  -0.646  23.982  0.00  0.00    -0.311 N 
ATOM     18  C   UNL     1      -3.303  -1.659  24.622  0.00  0.00    +0.213 C 
ATOM     27  H   UNL     1      -3.654  -0.272  23.105  0.00  0.00    +0.149 HD
BRANCH   6  19
ATOM     19  C   UNL     1      -5.238  -0.113  24.508  0.00  0.00    +0.141 C 
BRANCH  19  20
ATOM      7  N   UNL     1      -5.727   3.176  26.309  0.00  0.00    -0.263 NA
ATOM     20  C   UNL     1      -5.119   1.343  24.854  0.00  0.00    -0.012 A 
ATOM     21  C   UNL     1      -4.334   2.200  24.091  0.00  0.00    +0.008 A 
ATOM     22  C   UNL     1      -5.789   1.875  25.944  0.00  0.00    +0.115 A 
ATOM     23  C   UNL     1      -4.245   3.544  24.435  0.00  0.00    +0.020 A 
ATOM     24  C   UNL     1      -4.955   3.978  25.543  0.00  0.00    +0.111 A 
ENDBRANCH  19  20
ENDBRANCH   6  19
ENDBRANCH  17  18
ENDBRANCH  15  17
ENDBRANCH  11  15
TORSDOF 5
ENDMDL
MODEL 7
REMARK VINA RESULT:      -3.3      1.784      2.800
REMARK  Name = 45360991
REMARK  6 active torsions:
REMARK  status: ('A' for Active; 'I' for Inactive)
REMARK    1  A    between atoms: N_3  and  C_16
REMARK    2  A    between atoms: N_6  and  C_19
REMARK    3  A    between atoms: C_11  and  C_15
REMARK    4  A    between atoms: C_15  and  C_17
REMARK    5  A    between atoms: C_17  and  C_18
REMARK    6  A    between atoms: C_19  and  C_20
REMARK                            x       y       z     vdW  Elec       q    Type
REMARK                         _______ _______ _______ _____ _____    ______ ____
ROOT
ATOM      1  O   UNL     1      -2.253   3.594  23.823  0.00  0.00    -0.274 OA
ATOM      3  N   UNL     1      -2.982  -0.083  24.902  0.00  0.00    -0.296 NA
ATOM      4  N   UNL     1      -4.641   3.171  24.978  0.00  0.00    -0.304 NA
ATOM      5  N   UNL     1      -1.121   2.119  25.158  0.00  0.00    -0.312 N 
ATOM      8  C   UNL     1      -3.940   0.897  25.458  0.00  0.00    +0.084 C 
ATOM      9  C   UNL     1      -3.517   2.390  25.514  0.00  0.00    +0.158 C 
ATOM     10  C   UNL     1      -5.272   0.973  24.690  0.00  0.00    +0.036 C 
ATOM     11  C   UNL     1      -1.722  -0.226  25.682  0.00  0.00    +0.074 C 
ATOM     12  C   UNL     1      -5.824   2.328  25.071  0.00  0.00    +0.083 C 
ATOM     13  C   UNL     1      -1.114   1.098  26.186  0.00  0.00    +0.123 C 
ATOM     14  C   UNL     1      -2.266   2.764  24.732  0.00  0.00    +0.232 C 
ATOM     16  C   UNL     1      -3.623  -1.398  24.724  0.00  0.00    +0.105 C 
ATOM     25  H   UNL     1      -4.473   3.368  23.991  0.00  0.00    +0.123 HD
ATOM     26  H   UNL     1      -0.246   2.340  24.692  0.00  0.00    +0.149 HD
ENDROOT
BRANCH  11  15
ATOM     15  C   UNL     1      -0.646  -0.942  24.838  0.00  0.00    +0.029 C 
BRANCH  15  17
ATOM     17  C   UNL     1      -0.628  -0.402  23.421  0.00  0.00    +0.097 C 
BRANCH  17  18
ATOM      2  O   UNL     1       1.101   1.274  23.672  0.00  0.00    -0.276 OA
ATOM      6  N   UNL     1       1.366  -0.391  22.076  0.00  0.00    -0.311 N 
ATOM     18  C   UNL     1       0.694   0.270  23.094  0.00  0.00    +0.213 C 
ATOM     27  H   UNL     1       0.942  -1.207  21.643  0.00  0.00    +0.149 HD
BRANCH   6  19
ATOM     19  C   UNL     1       2.647   0.055  21.583  0.00  0.00    +0.141 C 
BRANCH  19  20
ATOM      7  N   UNL     1       5.515   0.916  23.893  0.00  0.00    -0.263 NA
ATOM     20  C   UNL     1       3.728  -0.094  22.615  0.00  0.00    -0.012 A 
ATOM     21  C   UNL     1       3.963  -1.315  23.237  0.00  0.00    +0.008 A 
ATOM     22  C   UNL     1       4.525   0.981  22.975  0.00  0.00    +0.115 A 
ATOM     23  C   UNL     1       4.972  -1.422  24.188  0.00  0.00    +0.020 A 
ATOM     24  C   UNL     1       5.714  -0.288  24.477  0.00  0.00    +0.111 A 
ENDBRANCH  19  20
ENDBRANCH   6  19
ENDBRANCH  17  18
ENDBRANCH  15  17
ENDBRANCH  11  15
TORSDOF 5
ENDMDL
MODEL 8
REMARK VINA RESULT:      -2.9      2.895      6.798
REMARK  Name = 45360991
REMARK  6 active torsions:
REMARK  status: ('A' for Active; 'I' for Inactive)
REMARK    1  A    between atoms: N_3  and  C_16
REMARK    2  A    between atoms: N_6  and  C_19
REMARK    3  A    between atoms: C_11  and  C_15
REMARK    4  A    between atoms: C_15  and  C_17
REMARK    5  A    between atoms: C_17  and  C_18
REMARK    6  A    between atoms: C_19  and  C_20
REMARK                            x       y       z     vdW  Elec       q    Type
REMARK                         _______ _______ _______ _____ _____    ______ ____
ROOT
ATOM      1  O   UNL     1       0.423  -2.610  25.335  0.00  0.00    -0.274 OA
ATOM      3  N   UNL     1      -1.810   0.588  25.382  0.00  0.00    -0.296 NA
ATOM      4  N   UNL     1      -2.168  -2.990  24.733  0.00  0.00    -0.304 NA
ATOM      5  N   UNL     1       0.584  -0.594  24.264  0.00  0.00    -0.312 N 
ATOM      8  C   UNL     1      -2.464  -0.580  24.754  0.00  0.00    +0.084 C 
ATOM      9  C   UNL     1      -1.567  -1.740  24.244  0.00  0.00    +0.158 C 
ATOM     10  C   UNL     1      -3.445  -1.321  25.681  0.00  0.00    +0.036 C 
ATOM     11  C   UNL     1      -0.921   1.362  24.472  0.00  0.00    +0.074 C 
ATOM     12  C   UNL     1      -3.555  -2.693  25.056  0.00  0.00    +0.083 C 
ATOM     13  C   UNL     1      -0.030   0.508  23.550  0.00  0.00    +0.123 C 
ATOM     14  C   UNL     1      -0.111  -1.710  24.688  0.00  0.00    +0.232 C 
ATOM     16  C   UNL     1      -2.810   1.479  25.997  0.00  0.00    +0.105 C 
ATOM     25  H   UNL     1      -1.699  -3.273  25.594  0.00  0.00    +0.123 HD
ATOM     26  H   UNL     1       1.567  -0.521  24.508  0.00  0.00    +0.149 HD
ENDROOT
BRANCH  11  15
ATOM     15  C   UNL     1       0.004   2.290  25.287  0.00  0.00    +0.029 C 
BRANCH  15  17
ATOM     17  C   UNL     1       0.085   3.663  24.648  0.00  0.00    +0.097 C 
BRANCH  17  18
ATOM      2  O   UNL     1      -1.450   5.389  25.374  0.00  0.00    -0.276 OA
ATOM      6  N   UNL     1      -2.194   3.766  23.888  0.00  0.00    -0.311 N 
ATOM     18  C   UNL     1      -1.250   4.384  24.696  0.00  0.00    +0.213 C 
ATOM     27  H   UNL     1      -1.943   2.926  23.376  0.00  0.00    +0.149 HD
BRANCH   6  19
ATOM     19  C   UNL     1      -3.544   4.263  23.764  0.00  0.00    +0.141 C 
BRANCH  19  20
ATOM      7  N   UNL     1      -5.959   3.121  26.441  0.00  0.00    -0.263 NA
ATOM     20  C   UNL     1      -4.527   3.411  24.514  0.00  0.00    -0.012 A 
ATOM     21  C   UNL     1      -4.918   2.169  24.028  0.00  0.00    +0.008 A 
ATOM     22  C   UNL     1      -5.072   3.838  25.715  0.00  0.00    +0.115 A 
ATOM     23  C   UNL     1      -5.829   1.402  24.746  0.00  0.00    +0.020 A 
ATOM     24  C   UNL     1      -6.315   1.918  25.936  0.00  0.00    +0.111 A 
ENDBRANCH  19  20
ENDBRANCH   6  19
ENDBRANCH  17  18
ENDBRANCH  15  17
ENDBRANCH  11  15
TORSDOF 5
ENDMDL
MODEL 9
REMARK VINA RESULT:      -2.8      2.837      4.339
REMARK  Name = 45360991
REMARK  6 active torsions:
REMARK  status: ('A' for Active; 'I' for Inactive)
REMARK    1  A    between atoms: N_3  and  C_16
REMARK    2  A    between atoms: N_6  and  C_19
REMARK    3  A    between atoms: C_11  and  C_15
REMARK    4  A    between atoms: C_15  and  C_17
REMARK    5  A    between atoms: C_17  and  C_18
REMARK    6  A    between atoms: C_19  and  C_20
REMARK                            x       y       z     vdW  Elec       q    Type
REMARK                         _______ _______ _______ _____ _____    ______ ____
ROOT
ATOM      1  O   UNL     1      -7.105   1.482  24.742  0.00  0.00    -0.274 OA
ATOM      3  N   UNL     1      -3.381   2.233  23.859  0.00  0.00    -0.296 NA
ATOM      4  N   UNL     1      -5.490  -0.659  24.591  0.00  0.00    -0.304 NA
ATOM      5  N   UNL     1      -5.535   2.851  25.690  0.00  0.00    -0.312 N 
ATOM      8  C   UNL     1      -3.607   0.854  24.340  0.00  0.00    +0.084 C 
ATOM      9  C   UNL     1      -4.895   0.560  25.157  0.00  0.00    +0.158 C 
ATOM     10  C   UNL     1      -3.699  -0.194  23.215  0.00  0.00    +0.036 C 
ATOM     11  C   UNL     1      -3.208   3.244  24.938  0.00  0.00    +0.074 C 
ATOM     12  C   UNL     1      -4.433  -1.346  23.863  0.00  0.00    +0.083 C 
ATOM     13  C   UNL     1      -4.176   3.097  26.128  0.00  0.00    +0.123 C 
ATOM     14  C   UNL     1      -5.957   1.651  25.151  0.00  0.00    +0.232 C 
ATOM     16  C   UNL     1      -2.239   2.282  22.928  0.00  0.00    +0.105 C 
ATOM     25  H   UNL     1      -6.215  -0.399  23.921  0.00  0.00    +0.123 HD
ATOM     26  H   UNL     1      -6.202   3.616  25.737  0.00  0.00    +0.149 HD
ENDROOT
BRANCH  11  15
ATOM     15  C   UNL     1      -3.378   4.669  24.371  0.00  0.00    +0.029 C 
BRANCH  15  17
ATOM     17  C   UNL     1      -2.232   5.561  24.809  0.00  0.00    +0.097 C 
BRANCH  17  18
ATOM      2  O   UNL     1       0.041   5.042  24.154  0.00  0.00    -0.276 OA
ATOM      6  N   UNL     1      -0.958   3.804  25.846  0.00  0.00    -0.311 N 
ATOM     18  C   UNL     1      -0.921   4.797  24.877  0.00  0.00    +0.213 C 
ATOM     27  H   UNL     1      -1.807   3.661  26.386  0.00  0.00    +0.149 HD
BRANCH   6  19
ATOM     19  C   UNL     1       0.168   2.938  26.104  0.00  0.00    +0.141 C 
BRANCH  19  20
ATOM      7  N   UNL     1       0.619   0.323  23.410  0.00  0.00    -0.263 NA
ATOM     20  C   UNL     1       0.060   1.639  25.360  0.00  0.00    -0.012 A 
ATOM     21  C   UNL     1      -0.665   0.573  25.880  0.00  0.00    +0.008 A 
ATOM     22  C   UNL     1       0.678   1.465  24.132  0.00  0.00    +0.115 A 
ATOM     23  C   UNL     1      -0.749  -0.618  25.167  0.00  0.00    +0.020 A 
ATOM     24  C   UNL     1      -0.095  -0.691  23.947  0.00  0.00    +0.111 A 
ENDBRANCH  19  20
ENDBRANCH   6  19
ENDBRANCH  17  18
ENDBRANCH  15  17
ENDBRANCH  11  15
TORSDOF 5
ENDMDL
MODEL 10
REMARK VINA RESULT:      -2.5      2.601      6.997
REMARK  Name = 45360991
REMARK  6 active torsions:
REMARK  status: ('A' for Active; 'I' for Inactive)
REMARK    1  A    between atoms: N_3  and  C_16
REMARK    2  A    between atoms: N_6  and  C_19
REMARK    3  A    between atoms: C_11  and  C_15
REMARK    4  A    between atoms: C_15  and  C_17
REMARK    5  A    between atoms: C_17  and  C_18
REMARK    6  A    between atoms: C_19  and  C_20
REMARK                            x       y       z     vdW  Elec       q    Type
REMARK                         _______ _______ _______ _____ _____    ______ ____
ROOT
ATOM      1  O   UNL     1      -3.908  -0.004  25.110  0.00  0.00    -0.274 OA
ATOM      3  N   UNL     1      -0.221   0.169  23.848  0.00  0.00    -0.296 NA
ATOM      4  N   UNL     1      -2.556  -2.325  25.145  0.00  0.00    -0.304 NA
ATOM      5  N   UNL     1      -2.118   1.280  25.731  0.00  0.00    -0.312 N 
ATOM      8  C   UNL     1      -0.551  -1.097  24.538  0.00  0.00    +0.084 C 
ATOM      9  C   UNL     1      -1.782  -1.121  25.483  0.00  0.00    +0.158 C 
ATOM     10  C   UNL     1      -0.859  -2.267  23.585  0.00  0.00    +0.036 C 
ATOM     11  C   UNL     1       0.159   1.286  24.755  0.00  0.00    +0.074 C 
ATOM     12  C   UNL     1      -1.651  -3.225  24.445  0.00  0.00    +0.083 C 
ATOM     13  C   UNL     1      -0.706   1.417  26.024  0.00  0.00    +0.123 C 
ATOM     14  C   UNL     1      -2.716   0.078  25.403  0.00  0.00    +0.232 C 
ATOM     16  C   UNL     1       0.828  -0.045  22.836  0.00  0.00    +0.105 C 
ATOM     25  H   UNL     1      -3.307  -2.072  24.502  0.00  0.00    +0.123 HD
ATOM     26  H   UNL     1      -2.691   2.119  25.718  0.00  0.00    +0.149 HD
ENDROOT
BRANCH  11  15
ATOM     15  C   UNL     1       0.094   2.633  24.005  0.00  0.00    +0.029 C 
BRANCH  15  17
ATOM     17  C   UNL     1      -0.014   3.788  24.982  0.00  0.00    +0.097 C 
BRANCH  17  18
ATOM      2  O   UNL     1      -1.557   5.625  25.312  0.00  0.00    -0.276 OA
ATOM      6  N   UNL     1      -2.284   3.727  24.188  0.00  0.00    -0.311 N 
ATOM     18  C   UNL     1      -1.349   4.501  24.862  0.00  0.00    +0.213 C 
ATOM     27  H   UNL     1      -2.027   2.798  23.866  0.00  0.00    +0.149 HD
BRANCH   6  19
ATOM     19  C   UNL     1      -3.631   4.185  23.945  0.00  0.00    +0.141 C 
BRANCH  19  20
ATOM      7  N   UNL     1      -5.717   2.857  26.806  0.00  0.00    -0.263 NA
ATOM     20  C   UNL     1      -4.644   3.377  24.702  0.00  0.00    -0.012 A 
ATOM     21  C   UNL     1      -5.430   2.427  24.059  0.00  0.00    +0.008 A 
ATOM     22  C   UNL     1      -4.825   3.552  26.065  0.00  0.00    +0.115 A 
ATOM     23  C   UNL     1      -6.359   1.692  24.787  0.00  0.00    +0.020 A 
ATOM     24  C   UNL     1      -6.462   1.942  26.146  0.00  0.00    +0.111 A 
ENDBRANCH  19  20
ENDBRANCH   6  19
ENDBRANCH  17  18
ENDBRANCH  15  17
ENDBRANCH  11  15
TORSDOF 5
ENDMDL
