MODEL 1
REMARK VINA RESULT:      -1.5      0.000      0.000
REMARK  Name = 71693982
REMARK  7 active torsions:
REMARK  status: ('A' for Active; 'I' for Inactive)
REMARK    1  A    between atoms: O_4  and  C_12
REMARK    2  A    between atoms: O_5  and  C_14
REMARK    3  A    between atoms: N_7  and  C_11
REMARK    4  A    between atoms: C_10  and  C_15
REMARK    5  A    between atoms: C_18  and  C_20
REMARK    6  A    between atoms: C_21  and  C_22
REMARK    7  A    between atoms: C_27  and  C_28
REMARK                            x       y       z     vdW  Elec       q    Type
REMARK                         _______ _______ _______ _____ _____    ______ ____
ROOT
ATOM     10  C   UNL     1      -1.610  -0.606  25.646  0.00  0.00    +0.046 C 
ATOM     11  C   UNL     1      -1.122  -1.241  24.323  0.00  0.00    +0.112 C 
ATOM     12  C   UNL     1      -1.584  -2.694  24.436  0.00  0.00    +0.164 C 
ATOM     13  C   UNL     1      -2.779  -1.499  26.138  0.00  0.00    +0.044 C 
ATOM     14  C   UNL     1      -2.966  -2.570  25.065  0.00  0.00    +0.145 C 
ENDROOT
BRANCH  10  15
ATOM      8  N   UNL     1      -1.295   3.173  25.729  0.00  0.00    -0.251 NA
ATOM     15  C   UNL     1      -1.960   0.860  25.505  0.00  0.00    -0.024 A 
ATOM     16  C   UNL     1      -3.211   1.256  25.044  0.00  0.00    +0.007 A 
ATOM     17  C   UNL     1      -1.046   1.848  25.831  0.00  0.00    +0.115 A 
ATOM     19  C   UNL     1      -3.504   2.610  24.926  0.00  0.00    +0.032 A 
ATOM     21  C   UNL     1      -2.520   3.521  25.278  0.00  0.00    +0.144 A 
BRANCH  21  22
ATOM      1  F   UNL     1      -3.648   5.296  24.139  0.00  0.00    -0.164 F 
ATOM      2  F   UNL     1      -1.685   5.737  24.946  0.00  0.00    -0.164 F 
ATOM      3  F   UNL     1      -3.379   5.494  26.287  0.00  0.00    -0.164 F 
ATOM     22  C   UNL     1      -2.801   4.982  25.163  0.00  0.00    +0.434 C 
ENDBRANCH  21  22
ENDBRANCH  10  15
BRANCH  11   7
ATOM      6  O   UNL     1       0.305   0.733  22.803  0.00  0.00    -0.270 OA
ATOM      7  N   UNL     1       0.306  -1.141  24.170  0.00  0.00    -0.305 N 
ATOM     18  C   UNL     1       0.909  -0.147  23.411  0.00  0.00    +0.244 C 
ATOM     29  H   UNL     1       0.868  -1.851  24.627  0.00  0.00    +0.149 HD
BRANCH  18  20
ATOM     20  C   UNL     1       2.392  -0.197  23.331  0.00  0.00    +0.037 A 
ATOM     23  C   UNL     1       3.100   0.887  22.811  0.00  0.00    +0.014 A 
ATOM     24  C   UNL     1       3.076  -1.328  23.777  0.00  0.00    +0.014 A 
ATOM     25  C   UNL     1       4.492   0.840  22.738  0.00  0.00    +0.019 A 
ATOM     26  C   UNL     1       4.468  -1.375  23.704  0.00  0.00    +0.019 A 
ATOM     27  C   UNL     1       5.176  -0.291  23.184  0.00  0.00    +0.052 A 
BRANCH  27  28
ATOM      9  N   UNL     1       7.760  -0.377  23.046  0.00  0.00    -0.191 NA
ATOM     28  C   UNL     1       6.602  -0.339  23.108  0.00  0.00    +0.099 C 
ENDBRANCH  27  28
ENDBRANCH  18  20
ENDBRANCH  11   7
BRANCH  12   4
ATOM      4  O   UNL     1      -1.652  -3.334  23.175  0.00  0.00    -0.387 OA
ATOM     30  H   UNL     1      -1.225  -4.203  23.266  0.00  0.00    +0.210 HD
ENDBRANCH  12   4
BRANCH  14   5
ATOM      5  O   UNL     1      -3.919  -2.104  24.115  0.00  0.00    -0.389 OA
ATOM     31  H   UNL     1      -4.006  -2.788  23.428  0.00  0.00    +0.210 HD
ENDBRANCH  14   5
TORSDOF 7
ENDMDL
