MODEL 1
REMARK VINA RESULT:      -2.5      0.000      0.000
REMARK  Name = 25338202
REMARK  6 active torsions:
REMARK  status: ('A' for Active; 'I' for Inactive)
REMARK    1  A    between atoms: O_3  and  C_10
REMARK    2  A    between atoms: O_5  and  C_26
REMARK    3  A    between atoms: O_5  and  C_27
REMARK    4  A    between atoms: N_6  and  C_9
REMARK    5  A    between atoms: N_7  and  C_11
REMARK    6  A    between atoms: N_8  and  C_21
REMARK                            x       y       z     vdW  Elec       q    Type
REMARK                         _______ _______ _______ _____ _____    ______ ____
ROOT
ATOM      1  O   UNL     1      -1.952   1.649  25.651  0.00  0.00    -0.342 OA
ATOM      2  O   UNL     1      -3.784   3.073  25.677  0.00  0.00    -0.347 OA
ATOM      9  C   UNL     1      -3.814   1.160  24.198  0.00  0.00    +0.143 C 
ATOM     10  C   UNL     1      -3.176   1.997  23.067  0.00  0.00    +0.159 C 
ATOM     11  C   UNL     1      -1.769   2.530  23.415  0.00  0.00    +0.136 C 
ATOM     12  C   UNL     1      -3.383   1.697  25.576  0.00  0.00    +0.270 C 
ATOM     13  C   UNL     1      -1.584   2.822  24.918  0.00  0.00    +0.170 C 
ATOM     14  C   UNL     1      -2.574   3.823  25.483  0.00  0.00    +0.196 C 
ENDROOT
BRANCH  11   7
ATOM      4  O   UNL     1       0.912   2.307  24.399  0.00  0.00    -0.252 OA
ATOM      7  N   UNL     1      -0.758   1.596  22.968  0.00  0.00    -0.291 N 
ATOM      8  N   UNL     1       1.282   0.555  22.879  0.00  0.00    -0.269 N 
ATOM     20  C   UNL     1       0.531   1.554  23.504  0.00  0.00    +0.304 C 
ATOM     28  H   UNL     1      -0.974   0.996  22.177  0.00  0.00    +0.151 HD
ATOM     30  H   UNL     1       0.813   0.018  22.154  0.00  0.00    +0.156 HD
BRANCH   8  21
ATOM     21  C   UNL     1       2.626   0.194  23.132  0.00  0.00    +0.035 A 
ATOM     22  C   UNL     1       2.931  -1.096  23.568  0.00  0.00    +0.027 A 
ATOM     23  C   UNL     1       3.646   1.126  22.947  0.00  0.00    +0.027 A 
ATOM     24  C   UNL     1       4.256  -1.453  23.818  0.00  0.00    +0.047 A 
ATOM     25  C   UNL     1       4.971   0.770  23.197  0.00  0.00    +0.047 A 
ATOM     26  C   UNL     1       5.276  -0.520  23.632  0.00  0.00    +0.120 A 
BRANCH  26   5
ATOM      5  O   UNL     1       6.569  -0.869  23.876  0.00  0.00    -0.495 OA
ATOM     27  C   UNL     1       7.516  -0.612  22.840  0.00  0.00    +0.277 C 
ENDBRANCH  26   5
ENDBRANCH   8  21
ENDBRANCH  11   7
BRANCH   9   6
ATOM      6  N   UNL     1      -3.420  -0.243  24.069  0.00  0.00    -0.293 NA
ATOM     15  C   UNL     1      -4.608  -1.107  24.012  0.00  0.00    +0.085 C 
ATOM     16  C   UNL     1      -2.534  -0.632  25.174  0.00  0.00    +0.085 C 
ATOM     17  C   UNL     1      -4.216  -2.574  23.827  0.00  0.00    +0.015 C 
ATOM     18  C   UNL     1      -2.073  -2.083  25.028  0.00  0.00    +0.015 C 
ATOM     19  C   UNL     1      -3.261  -3.034  24.922  0.00  0.00    +0.002 C 
ENDBRANCH   9   6
BRANCH  10   3
ATOM      3  O   UNL     1      -4.040   3.112  22.808  0.00  0.00    -0.388 OA
ATOM     29  H   UNL     1      -4.951   2.829  22.995  0.00  0.00    +0.210 HD
ENDBRANCH  10   3
TORSDOF 5
ENDMDL
MODEL 2
REMARK VINA RESULT:      -1.9      1.763      3.768
REMARK  Name = 25338202
REMARK  6 active torsions:
REMARK  status: ('A' for Active; 'I' for Inactive)
REMARK    1  A    between atoms: O_3  and  C_10
REMARK    2  A    between atoms: O_5  and  C_26
REMARK    3  A    between atoms: O_5  and  C_27
REMARK    4  A    between atoms: N_6  and  C_9
REMARK    5  A    between atoms: N_7  and  C_11
REMARK    6  A    between atoms: N_8  and  C_21
REMARK                            x       y       z     vdW  Elec       q    Type
REMARK                         _______ _______ _______ _____ _____    ______ ____
ROOT
ATOM      1  O   UNL     1      -3.777   0.477  23.145  0.00  0.00    -0.342 OA
ATOM      2  O   UNL     1      -5.138  -0.275  24.866  0.00  0.00    -0.347 OA
ATOM      9  C   UNL     1      -3.211   1.080  25.410  0.00  0.00    +0.143 C 
ATOM     10  C   UNL     1      -2.334  -0.185  25.549  0.00  0.00    +0.159 C 
ATOM     11  C   UNL     1      -2.213  -0.995  24.239  0.00  0.00    +0.136 C 
ATOM     12  C   UNL     1      -4.354   0.838  24.407  0.00  0.00    +0.270 C 
ATOM     13  C   UNL     1      -3.470  -0.905  23.351  0.00  0.00    +0.170 C 
ATOM     14  C   UNL     1      -4.744  -1.373  24.029  0.00  0.00    +0.196 C 
ENDROOT
BRANCH  11   7
ATOM      4  O   UNL     1       0.523  -1.176  25.069  0.00  0.00    -0.252 OA
ATOM      7  N   UNL     1      -1.051  -0.562  23.492  0.00  0.00    -0.291 N 
ATOM      8  N   UNL     1       1.163  -0.188  23.037  0.00  0.00    -0.269 N 
ATOM     20  C   UNL     1       0.254  -0.688  23.973  0.00  0.00    +0.304 C 
ATOM     28  H   UNL     1      -1.200  -0.077  22.612  0.00  0.00    +0.151 HD
ATOM     30  H   UNL     1       0.773   0.181  22.174  0.00  0.00    +0.156 HD
BRANCH   8  21
ATOM     21  C   UNL     1       2.573  -0.131  23.142  0.00  0.00    +0.035 A 
ATOM     22  C   UNL     1       3.283  -1.242  23.598  0.00  0.00    +0.027 A 
ATOM     23  C   UNL     1       3.253   1.034  22.790  0.00  0.00    +0.027 A 
ATOM     24  C   UNL     1       4.673  -1.186  23.703  0.00  0.00    +0.047 A 
ATOM     25  C   UNL     1       4.642   1.090  22.894  0.00  0.00    +0.047 A 
ATOM     26  C   UNL     1       5.352  -0.021  23.351  0.00  0.00    +0.120 A 
BRANCH  26   5
ATOM      5  O   UNL     1       6.709   0.033  23.452  0.00  0.00    -0.495 OA
ATOM     27  C   UNL     1       7.455  -0.896  22.667  0.00  0.00    +0.277 C 
ENDBRANCH  26   5
ENDBRANCH   8  21
ENDBRANCH  11   7
BRANCH   9   6
ATOM      6  N   UNL     1      -2.396   2.212  24.969  0.00  0.00    -0.293 NA
ATOM     15  C   UNL     1      -1.137   2.265  25.726  0.00  0.00    +0.085 C 
ATOM     16  C   UNL     1      -3.147   3.468  25.099  0.00  0.00    +0.085 C 
ATOM     17  C   UNL     1      -0.251   3.414  25.242  0.00  0.00    +0.015 C 
ATOM     18  C   UNL     1      -2.327   4.656  24.596  0.00  0.00    +0.015 C 
ATOM     19  C   UNL     1      -0.985   4.747  25.314  0.00  0.00    +0.002 C 
ENDBRANCH   9   6
BRANCH  10   3
ATOM      3  O   UNL     1      -2.926  -1.019  26.554  0.00  0.00    -0.388 OA
ATOM     29  H   UNL     1      -2.862  -1.940  26.247  0.00  0.00    +0.210 HD
ENDBRANCH  10   3
TORSDOF 5
ENDMDL
MODEL 3
REMARK VINA RESULT:       0.9      1.622      2.034
REMARK  Name = 25338202
REMARK  6 active torsions:
REMARK  status: ('A' for Active; 'I' for Inactive)
REMARK    1  A    between atoms: O_3  and  C_10
REMARK    2  A    between atoms: O_5  and  C_26
REMARK    3  A    between atoms: O_5  and  C_27
REMARK    4  A    between atoms: N_6  and  C_9
REMARK    5  A    between atoms: N_7  and  C_11
REMARK    6  A    between atoms: N_8  and  C_21
REMARK                            x       y       z     vdW  Elec       q    Type
REMARK                         _______ _______ _______ _____ _____    ______ ____
ROOT
ATOM      1  O   UNL     1      -4.341   2.449  26.375  0.00  0.00    -0.342 OA
ATOM      2  O   UNL     1      -6.245   3.039  25.189  0.00  0.00    -0.347 OA
ATOM      9  C   UNL     1      -4.763   1.369  24.261  0.00  0.00    +0.143 C 
ATOM     10  C   UNL     1      -3.961   2.462  23.519  0.00  0.00    +0.159 C 
ATOM     11  C   UNL     1      -3.286   3.478  24.467  0.00  0.00    +0.136 C 
ATOM     12  C   UNL     1      -5.393   1.939  25.545  0.00  0.00    +0.270 C 
ATOM     13  C   UNL     1      -4.081   3.718  25.766  0.00  0.00    +0.170 C 
ATOM     14  C   UNL     1      -5.498   4.213  25.545  0.00  0.00    +0.196 C 
ENDROOT
BRANCH  11   7
ATOM      4  O   UNL     1      -1.456   2.137  22.718  0.00  0.00    -0.252 OA
ATOM      7  N   UNL     1      -1.942   3.045  24.787  0.00  0.00    -0.291 N 
ATOM      8  N   UNL     1       0.119   2.099  24.459  0.00  0.00    -0.269 N 
ATOM     20  C   UNL     1      -1.113   2.395  23.870  0.00  0.00    +0.304 C 
ATOM     28  H   UNL     1      -1.618   3.151  25.744  0.00  0.00    +0.151 HD
ATOM     30  H   UNL     1       0.242   2.383  25.427  0.00  0.00    +0.156 HD
BRANCH   8  21
ATOM     21  C   UNL     1       1.228   1.448  23.869  0.00  0.00    +0.035 A 
ATOM     22  C   UNL     1       1.179   0.075  23.623  0.00  0.00    +0.027 A 
ATOM     23  C   UNL     1       2.370   2.176  23.536  0.00  0.00    +0.027 A 
ATOM     24  C   UNL     1       2.273  -0.568  23.043  0.00  0.00    +0.047 A 
ATOM     25  C   UNL     1       3.463   1.532  22.956  0.00  0.00    +0.047 A 
ATOM     26  C   UNL     1       3.414   0.160  22.709  0.00  0.00    +0.120 A 
BRANCH  26   5
ATOM      5  O   UNL     1       4.480  -0.468  22.143  0.00  0.00    -0.495 OA
ATOM     27  C   UNL     1       5.731  -0.360  22.820  0.00  0.00    +0.277 C 
ENDBRANCH  26   5
ENDBRANCH   8  21
ENDBRANCH  11   7
BRANCH   9   6
ATOM      6  N   UNL     1      -3.891   0.243  24.594  0.00  0.00    -0.293 NA
ATOM     15  C   UNL     1      -3.992  -0.806  23.570  0.00  0.00    +0.085 C 
ATOM     16  C   UNL     1      -4.219  -0.283  25.927  0.00  0.00    +0.085 C 
ATOM     17  C   UNL     1      -3.048  -1.970  23.878  0.00  0.00    +0.015 C 
ATOM     18  C   UNL     1      -3.283  -1.430  26.312  0.00  0.00    +0.015 C 
ATOM     19  C   UNL     1      -3.308  -2.540  25.267  0.00  0.00    +0.002 C 
ENDBRANCH   9   6
BRANCH  10   3
ATOM      3  O   UNL     1      -4.869   3.166  22.661  0.00  0.00    -0.388 OA
ATOM     29  H   UNL     1      -4.463   3.212  21.779  0.00  0.00    +0.210 HD
ENDBRANCH  10   3
TORSDOF 5
ENDMDL
