MODEL 1
REMARK VINA RESULT:      -6.8      0.000      0.000
REMARK  Name = 71693787
REMARK  6 active torsions:
REMARK  status: ('A' for Active; 'I' for Inactive)
REMARK    1  A    between atoms: O_1  and  C_10
REMARK    2  A    between atoms: O_2  and  C_11
REMARK    3  A    between atoms: N_4  and  C_8
REMARK    4  A    between atoms: N_5  and  C_18
REMARK    5  A    between atoms: C_6  and  C_7
REMARK    6  A    between atoms: C_18  and  C_19
REMARK                            x       y       z     vdW  Elec       q    Type
REMARK                         _______ _______ _______ _____ _____    ______ ____
ROOT
ATOM      6  C   UNL     1      -1.471   1.667  23.916  0.00  0.00    +0.017 C 
ATOM      8  C   UNL     1      -0.270   1.827  24.878  0.00  0.00    +0.109 C 
ATOM      9  C   UNL     1      -2.517   2.667  24.413  0.00  0.00    +0.039 C 
ATOM     10  C   UNL     1      -0.560   3.089  25.707  0.00  0.00    +0.163 C 
ATOM     11  C   UNL     1      -1.660   3.810  24.933  0.00  0.00    +0.145 C 
ENDROOT
BRANCH   8   4
ATOM      3  O   UNL     1       1.290  -0.304  23.710  0.00  0.00    -0.253 OA
ATOM      4  N   UNL     1       0.971   1.953  24.154  0.00  0.00    -0.294 N 
ATOM      5  N   UNL     1       2.827   1.270  22.973  0.00  0.00    -0.300 N 
ATOM     17  C   UNL     1       1.663   0.865  23.620  0.00  0.00    +0.300 C 
ATOM     20  H   UNL     1       1.410   2.867  24.098  0.00  0.00    +0.151 HD
ATOM     23  H   UNL     1       3.047   2.260  22.939  0.00  0.00    +0.150 HD
BRANCH   5  18
ATOM     18  C   UNL     1       3.728   0.342  22.332  0.00  0.00    +0.102 C 
ATOM     19  C   UNL     1       5.008   0.174  23.125  0.00  0.00    +0.024 C 
ENDBRANCH   5  18
ENDBRANCH   8   4
BRANCH   6   7
ATOM      7  C   UNL     1      -2.007   0.243  23.868  0.00  0.00    -0.006 C 
ATOM     12  C   UNL     1      -3.542   0.240  23.878  0.00  0.00    +0.004 C 
ATOM     13  C   UNL     1      -1.451  -0.584  25.036  0.00  0.00    +0.004 C 
ATOM     14  C   UNL     1      -4.103  -1.179  23.886  0.00  0.00    +0.000 C 
ATOM     15  C   UNL     1      -2.016  -2.002  25.041  0.00  0.00    +0.000 C 
ATOM     16  C   UNL     1      -3.542  -2.001  25.042  0.00  0.00    +0.000 C 
ENDBRANCH   6   7
BRANCH  10   1
ATOM      1  O   UNL     1      -1.037   2.674  26.987  0.00  0.00    -0.387 OA
ATOM     21  H   UNL     1      -0.270   2.636  27.584  0.00  0.00    +0.210 HD
ENDBRANCH  10   1
BRANCH  11   2
ATOM      2  O   UNL     1      -2.391   4.701  25.752  0.00  0.00    -0.389 OA
ATOM     22  H   UNL     1      -3.260   4.832  25.336  0.00  0.00    +0.210 HD
ENDBRANCH  11   2
TORSDOF 5
ENDMDL
MODEL 2
REMARK VINA RESULT:      -6.0      1.656      2.241
REMARK  Name = 71693787
REMARK  6 active torsions:
REMARK  status: ('A' for Active; 'I' for Inactive)
REMARK    1  A    between atoms: O_1  and  C_10
REMARK    2  A    between atoms: O_2  and  C_11
REMARK    3  A    between atoms: N_4  and  C_8
REMARK    4  A    between atoms: N_5  and  C_18
REMARK    5  A    between atoms: C_6  and  C_7
REMARK    6  A    between atoms: C_18  and  C_19
REMARK                            x       y       z     vdW  Elec       q    Type
REMARK                         _______ _______ _______ _____ _____    ______ ____
ROOT
ATOM      6  C   UNL     1      -3.523   1.468  24.132  0.00  0.00    +0.017 C 
ATOM      8  C   UNL     1      -2.309   2.023  24.916  0.00  0.00    +0.109 C 
ATOM      9  C   UNL     1      -4.640   2.491  24.351  0.00  0.00    +0.039 C 
ATOM     10  C   UNL     1      -2.687   3.458  25.317  0.00  0.00    +0.163 C 
ATOM     11  C   UNL     1      -3.876   3.804  24.424  0.00  0.00    +0.145 C 
ENDROOT
BRANCH   8   4
ATOM      3  O   UNL     1      -0.346  -0.089  24.764  0.00  0.00    -0.253 OA
ATOM      4  N   UNL     1      -1.112   2.004  24.113  0.00  0.00    -0.294 N 
ATOM      5  N   UNL     1       0.854   1.181  23.238  0.00  0.00    -0.300 N 
ATOM     17  C   UNL     1      -0.212   0.938  24.099  0.00  0.00    +0.300 C 
ATOM     20  H   UNL     1      -0.863   2.840  23.592  0.00  0.00    +0.151 HD
ATOM     23  H   UNL     1       0.873   2.054  22.720  0.00  0.00    +0.150 HD
BRANCH   5  18
ATOM     18  C   UNL     1       1.928   0.237  23.036  0.00  0.00    +0.102 C 
ATOM     19  C   UNL     1       1.869  -0.382  21.655  0.00  0.00    +0.024 C 
ENDBRANCH   5  18
ENDBRANCH   8   4
BRANCH   6   7
ATOM      7  C   UNL     1      -3.925   0.069  24.574  0.00  0.00    -0.006 C 
ATOM     12  C   UNL     1      -3.065  -0.394  25.759  0.00  0.00    +0.004 C 
ATOM     13  C   UNL     1      -3.820  -0.921  23.405  0.00  0.00    +0.004 C 
ATOM     14  C   UNL     1      -3.413  -1.818  26.186  0.00  0.00    +0.000 C 
ATOM     15  C   UNL     1      -4.167  -2.343  23.837  0.00  0.00    +0.000 C 
ATOM     16  C   UNL     1      -3.317  -2.796  25.020  0.00  0.00    +0.000 C 
ENDBRANCH   6   7
BRANCH  10   1
ATOM      1  O   UNL     1      -3.078   3.443  26.689  0.00  0.00    -0.387 OA
ATOM     21  H   UNL     1      -2.296   3.679  27.217  0.00  0.00    +0.210 HD
ENDBRANCH  10   1
BRANCH  11   2
ATOM      2  O   UNL     1      -4.658   4.851  24.962  0.00  0.00    -0.389 OA
ATOM     22  H   UNL     1      -5.523   4.826  24.518  0.00  0.00    +0.210 HD
ENDBRANCH  11   2
TORSDOF 5
ENDMDL
MODEL 3
REMARK VINA RESULT:      -6.0      2.426      3.827
REMARK  Name = 71693787
REMARK  6 active torsions:
REMARK  status: ('A' for Active; 'I' for Inactive)
REMARK    1  A    between atoms: O_1  and  C_10
REMARK    2  A    between atoms: O_2  and  C_11
REMARK    3  A    between atoms: N_4  and  C_8
REMARK    4  A    between atoms: N_5  and  C_18
REMARK    5  A    between atoms: C_6  and  C_7
REMARK    6  A    between atoms: C_18  and  C_19
REMARK                            x       y       z     vdW  Elec       q    Type
REMARK                         _______ _______ _______ _____ _____    ______ ____
ROOT
ATOM      6  C   UNL     1      -1.086   1.063  25.181  0.00  0.00    +0.017 C 
ATOM      8  C   UNL     1      -0.315   0.563  23.936  0.00  0.00    +0.109 C 
ATOM      9  C   UNL     1      -1.732  -0.189  25.779  0.00  0.00    +0.039 C 
ATOM     10  C   UNL     1      -0.319  -0.971  24.025  0.00  0.00    +0.163 C 
ATOM     11  C   UNL     1      -0.705  -1.268  25.472  0.00  0.00    +0.145 C 
ENDROOT
BRANCH   8   4
ATOM      3  O   UNL     1       1.884  -0.384  22.320  0.00  0.00    -0.253 OA
ATOM      4  N   UNL     1       1.031   1.081  23.908  0.00  0.00    -0.294 N 
ATOM      5  N   UNL     1       3.237   1.247  23.266  0.00  0.00    -0.300 N 
ATOM     17  C   UNL     1       2.038   0.561  23.094  0.00  0.00    +0.300 C 
ATOM     20  H   UNL     1       1.286   1.806  24.572  0.00  0.00    +0.151 HD
ATOM     23  H   UNL     1       3.266   2.024  23.919  0.00  0.00    +0.150 HD
BRANCH   5  18
ATOM     18  C   UNL     1       4.441   0.912  22.542  0.00  0.00    +0.102 C 
ATOM     19  C   UNL     1       5.398   0.109  23.398  0.00  0.00    +0.024 C 
ENDBRANCH   5  18
ENDBRANCH   8   4
BRANCH   6   7
ATOM      7  C   UNL     1      -2.109   2.141  24.851  0.00  0.00    -0.006 C 
ATOM     12  C   UNL     1      -2.065   3.267  25.894  0.00  0.00    +0.004 C 
ATOM     13  C   UNL     1      -3.518   1.540  24.755  0.00  0.00    +0.004 C 
ATOM     14  C   UNL     1      -3.120   4.335  25.615  0.00  0.00    +0.000 C 
ATOM     15  C   UNL     1      -4.570   2.612  24.478  0.00  0.00    +0.000 C 
ATOM     16  C   UNL     1      -4.517   3.733  25.511  0.00  0.00    +0.000 C 
ENDBRANCH   6   7
BRANCH  10   1
ATOM      1  O   UNL     1      -1.316  -1.462  23.129  0.00  0.00    -0.387 OA
ATOM     21  H   UNL     1      -0.882  -1.623  22.274  0.00  0.00    +0.210 HD
ENDBRANCH  10   1
BRANCH  11   2
ATOM      2  O   UNL     1      -1.233  -2.570  25.625  0.00  0.00    -0.389 OA
ATOM     22  H   UNL     1      -0.566  -3.101  26.093  0.00  0.00    +0.210 HD
ENDBRANCH  11   2
TORSDOF 5
ENDMDL
MODEL 4
REMARK VINA RESULT:      -4.9      2.086      4.156
REMARK  Name = 71693787
REMARK  6 active torsions:
REMARK  status: ('A' for Active; 'I' for Inactive)
REMARK    1  A    between atoms: O_1  and  C_10
REMARK    2  A    between atoms: O_2  and  C_11
REMARK    3  A    between atoms: N_4  and  C_8
REMARK    4  A    between atoms: N_5  and  C_18
REMARK    5  A    between atoms: C_6  and  C_7
REMARK    6  A    between atoms: C_18  and  C_19
REMARK                            x       y       z     vdW  Elec       q    Type
REMARK                         _______ _______ _______ _____ _____    ______ ____
ROOT
ATOM      6  C   UNL     1      -1.396   0.003  25.620  0.00  0.00    +0.017 C 
ATOM      8  C   UNL     1      -1.253  -0.410  24.135  0.00  0.00    +0.109 C 
ATOM      9  C   UNL     1      -2.530  -0.867  26.168  0.00  0.00    +0.039 C 
ATOM     10  C   UNL     1      -2.109  -1.675  23.965  0.00  0.00    +0.163 C 
ATOM     11  C   UNL     1      -2.358  -2.162  25.390  0.00  0.00    +0.145 C 
ENDROOT
BRANCH   8   4
ATOM      3  O   UNL     1       0.681   1.509  23.176  0.00  0.00    -0.253 OA
ATOM      4  N   UNL     1       0.124  -0.661  23.790  0.00  0.00    -0.294 N 
ATOM      5  N   UNL     1       2.262  -0.187  23.073  0.00  0.00    -0.300 N 
ATOM     17  C   UNL     1       0.994   0.329  23.331  0.00  0.00    +0.300 C 
ATOM     20  H   UNL     1       0.460  -1.620  23.800  0.00  0.00    +0.151 HD
ATOM     23  H   UNL     1       2.431  -1.173  23.243  0.00  0.00    +0.150 HD
BRANCH   5  18
ATOM     18  C   UNL     1       3.353   0.625  22.589  0.00  0.00    +0.102 C 
ATOM     19  C   UNL     1       4.663   0.241  23.244  0.00  0.00    +0.024 C 
ENDBRANCH   5  18
ENDBRANCH   8   4
BRANCH   6   7
ATOM      7  C   UNL     1      -1.667   1.489  25.799  0.00  0.00    -0.006 C 
ATOM     12  C   UNL     1      -2.514   2.030  24.639  0.00  0.00    +0.004 C 
ATOM     13  C   UNL     1      -0.351   2.270  25.924  0.00  0.00    +0.004 C 
ATOM     14  C   UNL     1      -2.755   3.532  24.768  0.00  0.00    +0.000 C 
ATOM     15  C   UNL     1      -0.596   3.771  26.052  0.00  0.00    +0.000 C 
ATOM     16  C   UNL     1      -1.445   4.303  24.901  0.00  0.00    +0.000 C 
ENDBRANCH   6   7
BRANCH  10   1
ATOM      1  O   UNL     1      -3.336  -1.295  23.343  0.00  0.00    -0.387 OA
ATOM     21  H   UNL     1      -4.018  -1.273  24.036  0.00  0.00    +0.210 HD
ENDBRANCH  10   1
BRANCH  11   2
ATOM      2  O   UNL     1      -3.497  -2.995  25.476  0.00  0.00    -0.389 OA
ATOM     22  H   UNL     1      -4.177  -2.509  25.971  0.00  0.00    +0.210 HD
ENDBRANCH  11   2
TORSDOF 5
ENDMDL
MODEL 5
REMARK VINA RESULT:      -4.9      2.816      5.009
REMARK  Name = 71693787
REMARK  6 active torsions:
REMARK  status: ('A' for Active; 'I' for Inactive)
REMARK    1  A    between atoms: O_1  and  C_10
REMARK    2  A    between atoms: O_2  and  C_11
REMARK    3  A    between atoms: N_4  and  C_8
REMARK    4  A    between atoms: N_5  and  C_18
REMARK    5  A    between atoms: C_6  and  C_7
REMARK    6  A    between atoms: C_18  and  C_19
REMARK                            x       y       z     vdW  Elec       q    Type
REMARK                         _______ _______ _______ _____ _____    ______ ____
ROOT
ATOM      6  C   UNL     1      -1.984   0.953  25.049  0.00  0.00    +0.017 C 
ATOM      8  C   UNL     1      -1.612   2.066  24.039  0.00  0.00    +0.109 C 
ATOM      9  C   UNL     1      -0.767   0.827  25.969  0.00  0.00    +0.039 C 
ATOM     10  C   UNL     1      -0.329   2.715  24.582  0.00  0.00    +0.163 C 
ATOM     11  C   UNL     1      -0.254   2.256  26.036  0.00  0.00    +0.145 C 
ENDROOT
BRANCH   8   4
ATOM      3  O   UNL     1      -3.746   2.577  25.918  0.00  0.00    -0.253 OA
ATOM      4  N   UNL     1      -2.673   3.034  23.909  0.00  0.00    -0.294 N 
ATOM      5  N   UNL     1      -4.564   4.214  24.491  0.00  0.00    -0.300 N 
ATOM     17  C   UNL     1      -3.669   3.217  24.869  0.00  0.00    +0.300 C 
ATOM     20  H   UNL     1      -2.751   3.555  23.040  0.00  0.00    +0.151 HD
ATOM     23  H   UNL     1      -4.413   4.698  23.612  0.00  0.00    +0.150 HD
BRANCH   5  18
ATOM     18  C   UNL     1      -5.690   4.604  25.306  0.00  0.00    +0.102 C 
ATOM     19  C   UNL     1      -6.424   3.396  25.852  0.00  0.00    +0.024 C 
ENDBRANCH   5  18
ENDBRANCH   8   4
BRANCH   6   7
ATOM      7  C   UNL     1      -2.342  -0.363  24.376  0.00  0.00    -0.006 C 
ATOM     12  C   UNL     1      -3.856  -0.610  24.434  0.00  0.00    +0.004 C 
ATOM     13  C   UNL     1      -1.574  -1.527  25.019  0.00  0.00    +0.004 C 
ATOM     14  C   UNL     1      -4.233  -1.952  23.813  0.00  0.00    +0.000 C 
ATOM     15  C   UNL     1      -1.955  -2.867  24.395  0.00  0.00    +0.000 C 
ATOM     16  C   UNL     1      -3.462  -3.104  24.448  0.00  0.00    +0.000 C 
ENDBRANCH   6   7
BRANCH  10   1
ATOM      1  O   UNL     1       0.773   2.201  23.835  0.00  0.00    -0.387 OA
ATOM     21  H   UNL     1       1.130   2.933  23.304  0.00  0.00    +0.210 HD
ENDBRANCH  10   1
BRANCH  11   2
ATOM      2  O   UNL     1       1.061   2.331  26.549  0.00  0.00    -0.389 OA
ATOM     22  H   UNL     1       1.629   2.686  25.844  0.00  0.00    +0.210 HD
ENDBRANCH  11   2
TORSDOF 5
ENDMDL
MODEL 6
REMARK VINA RESULT:      -4.0     13.844     17.429
REMARK  Name = 71693787
REMARK  6 active torsions:
REMARK  status: ('A' for Active; 'I' for Inactive)
REMARK    1  A    between atoms: O_1  and  C_10
REMARK    2  A    between atoms: O_2  and  C_11
REMARK    3  A    between atoms: N_4  and  C_8
REMARK    4  A    between atoms: N_5  and  C_18
REMARK    5  A    between atoms: C_6  and  C_7
REMARK    6  A    between atoms: C_18  and  C_19
REMARK                            x       y       z     vdW  Elec       q    Type
REMARK                         _______ _______ _______ _____ _____    ______ ____
ROOT
ATOM      6  C   UNL     1      14.260   8.994  18.469  0.00  0.00    +0.017 C 
ATOM      8  C   UNL     1      12.977   8.191  18.791  0.00  0.00    +0.109 C 
ATOM      9  C   UNL     1      14.328   9.041  16.940  0.00  0.00    +0.039 C 
ATOM     10  C   UNL     1      12.223   8.049  17.459  0.00  0.00    +0.163 C 
ATOM     11  C   UNL     1      12.860   9.094  16.546  0.00  0.00    +0.145 C 
ENDROOT
BRANCH   8   4
ATOM      3  O   UNL     1      11.570   6.986  21.006  0.00  0.00    -0.253 OA
ATOM      4  N   UNL     1      12.170   8.864  19.779  0.00  0.00    -0.294 N 
ATOM      5  N   UNL     1      10.813   9.090  21.626  0.00  0.00    -0.300 N 
ATOM     17  C   UNL     1      11.521   8.202  20.821  0.00  0.00    +0.300 C 
ATOM     20  H   UNL     1      11.994   9.858  19.667  0.00  0.00    +0.151 HD
ATOM     23  H   UNL     1      10.841  10.080  21.403  0.00  0.00    +0.150 HD
BRANCH   5  18
ATOM     18  C   UNL     1      10.052   8.666  22.778  0.00  0.00    +0.102 C 
ATOM     19  C   UNL     1      10.717   9.094  24.070  0.00  0.00    +0.024 C 
ENDBRANCH   5  18
ENDBRANCH   8   4
BRANCH   6   7
ATOM      7  C   UNL     1      15.511   8.386  19.086  0.00  0.00    -0.006 C 
ATOM     12  C   UNL     1      15.410   6.855  19.121  0.00  0.00    +0.004 C 
ATOM     13  C   UNL     1      15.750   8.950  20.494  0.00  0.00    +0.004 C 
ATOM     14  C   UNL     1      16.631   6.224  19.786  0.00  0.00    +0.000 C 
ATOM     15  C   UNL     1      16.970   8.316  21.156  0.00  0.00    +0.000 C 
ATOM     16  C   UNL     1      16.870   6.793  21.180  0.00  0.00    +0.000 C 
ENDBRANCH   6   7
BRANCH  10   1
ATOM      1  O   UNL     1      12.459   6.734  16.958  0.00  0.00    -0.387 OA
ATOM     21  H   UNL     1      11.607   6.388  16.640  0.00  0.00    +0.210 HD
ENDBRANCH  10   1
BRANCH  11   2
ATOM      2  O   UNL     1      12.660   8.798  15.179  0.00  0.00    -0.389 OA
ATOM     22  H   UNL     1      11.716   8.597  15.060  0.00  0.00    +0.210 HD
ENDBRANCH  11   2
TORSDOF 5
ENDMDL
MODEL 7
REMARK VINA RESULT:      -4.0      2.633      5.006
REMARK  Name = 71693787
REMARK  6 active torsions:
REMARK  status: ('A' for Active; 'I' for Inactive)
REMARK    1  A    between atoms: O_1  and  C_10
REMARK    2  A    between atoms: O_2  and  C_11
REMARK    3  A    between atoms: N_4  and  C_8
REMARK    4  A    between atoms: N_5  and  C_18
REMARK    5  A    between atoms: C_6  and  C_7
REMARK    6  A    between atoms: C_18  and  C_19
REMARK                            x       y       z     vdW  Elec       q    Type
REMARK                         _______ _______ _______ _____ _____    ______ ____
ROOT
ATOM      6  C   UNL     1      -1.972   1.570  24.168  0.00  0.00    +0.017 C 
ATOM      8  C   UNL     1      -1.423   1.044  25.517  0.00  0.00    +0.109 C 
ATOM      9  C   UNL     1      -0.758   2.162  23.448  0.00  0.00    +0.039 C 
ATOM     10  C   UNL     1       0.109   1.104  25.401  0.00  0.00    +0.163 C 
ATOM     11  C   UNL     1       0.373   1.254  23.905  0.00  0.00    +0.145 C 
ENDROOT
BRANCH   8   4
ATOM      3  O   UNL     1      -2.637  -0.785  23.640  0.00  0.00    -0.253 OA
ATOM      4  N   UNL     1      -1.874  -0.300  25.779  0.00  0.00    -0.294 N 
ATOM      5  N   UNL     1      -2.795  -2.364  25.333  0.00  0.00    -0.300 N 
ATOM     17  C   UNL     1      -2.453  -1.120  24.810  0.00  0.00    +0.300 C 
ATOM     20  H   UNL     1      -1.847  -0.644  26.735  0.00  0.00    +0.151 HD
ATOM     23  H   UNL     1      -2.593  -2.556  26.309  0.00  0.00    +0.150 HD
BRANCH   5  18
ATOM     18  C   UNL     1      -3.410  -3.403  24.541  0.00  0.00    +0.102 C 
ATOM     19  C   UNL     1      -4.505  -2.849  23.652  0.00  0.00    +0.024 C 
ENDBRANCH   5  18
ENDBRANCH   8   4
BRANCH   6   7
ATOM      7  C   UNL     1      -3.095   2.582  24.339  0.00  0.00    -0.006 C 
ATOM     12  C   UNL     1      -2.781   3.553  25.485  0.00  0.00    +0.004 C 
ATOM     13  C   UNL     1      -4.434   1.870  24.578  0.00  0.00    +0.004 C 
ATOM     14  C   UNL     1      -3.919   4.545  25.712  0.00  0.00    +0.000 C 
ATOM     15  C   UNL     1      -5.569   2.866  24.805  0.00  0.00    +0.000 C 
ATOM     16  C   UNL     1      -5.249   3.835  25.940  0.00  0.00    +0.000 C 
ENDBRANCH   6   7
BRANCH  10   1
ATOM      1  O   UNL     1       0.558   2.260  26.108  0.00  0.00    -0.387 OA
ATOM     21  H   UNL     1      -0.010   3.003  25.840  0.00  0.00    +0.210 HD
ENDBRANCH  10   1
BRANCH  11   2
ATOM      2  O   UNL     1       1.646   1.808  23.643  0.00  0.00    -0.389 OA
ATOM     22  H   UNL     1       1.919   2.300  24.437  0.00  0.00    +0.210 HD
ENDBRANCH  11   2
TORSDOF 5
ENDMDL
MODEL 8
REMARK VINA RESULT:      -3.8      2.964      4.342
REMARK  Name = 71693787
REMARK  6 active torsions:
REMARK  status: ('A' for Active; 'I' for Inactive)
REMARK    1  A    between atoms: O_1  and  C_10
REMARK    2  A    between atoms: O_2  and  C_11
REMARK    3  A    between atoms: N_4  and  C_8
REMARK    4  A    between atoms: N_5  and  C_18
REMARK    5  A    between atoms: C_6  and  C_7
REMARK    6  A    between atoms: C_18  and  C_19
REMARK                            x       y       z     vdW  Elec       q    Type
REMARK                         _______ _______ _______ _____ _____    ______ ____
ROOT
ATOM      6  C   UNL     1      -2.749   2.706  24.001  0.00  0.00    +0.017 C 
ATOM      8  C   UNL     1      -1.950   1.842  25.006  0.00  0.00    +0.109 C 
ATOM      9  C   UNL     1      -2.086   4.085  24.046  0.00  0.00    +0.039 C 
ATOM     10  C   UNL     1      -0.707   2.667  25.376  0.00  0.00    +0.163 C 
ATOM     11  C   UNL     1      -0.626   3.742  24.295  0.00  0.00    +0.145 C 
ENDROOT
BRANCH   8   4
ATOM      3  O   UNL     1      -2.806  -0.778  25.869  0.00  0.00    -0.253 OA
ATOM      4  N   UNL     1      -1.581   0.572  24.430  0.00  0.00    -0.294 N 
ATOM      5  N   UNL     1      -1.532  -1.717  24.173  0.00  0.00    -0.300 N 
ATOM     17  C   UNL     1      -2.043  -0.653  24.912  0.00  0.00    +0.300 C 
ATOM     20  H   UNL     1      -0.887   0.558  23.689  0.00  0.00    +0.151 HD
ATOM     23  H   UNL     1      -0.917  -1.516  23.390  0.00  0.00    +0.150 HD
BRANCH   5  18
ATOM     18  C   UNL     1      -1.852  -3.095  24.461  0.00  0.00    +0.102 C 
ATOM     19  C   UNL     1      -3.346  -3.341  24.403  0.00  0.00    +0.024 C 
ENDBRANCH   5  18
ENDBRANCH   8   4
BRANCH   6   7
ATOM      7  C   UNL     1      -4.235   2.767  24.321  0.00  0.00    -0.006 C 
ATOM     12  C   UNL     1      -4.495   3.686  25.522  0.00  0.00    +0.004 C 
ATOM     13  C   UNL     1      -4.792   1.360  24.580  0.00  0.00    +0.004 C 
ATOM     14  C   UNL     1      -5.974   3.721  25.897  0.00  0.00    +0.000 C 
ATOM     15  C   UNL     1      -6.271   1.399  24.956  0.00  0.00    +0.000 C 
ATOM     16  C   UNL     1      -6.525   2.320  26.145  0.00  0.00    +0.000 C 
ENDBRANCH   6   7
BRANCH  10   1
ATOM      1  O   UNL     1      -0.935   3.257  26.655  0.00  0.00    -0.387 OA
ATOM     21  H   UNL     1      -1.535   4.012  26.522  0.00  0.00    +0.210 HD
ENDBRANCH  10   1
BRANCH  11   2
ATOM      2  O   UNL     1       0.125   4.863  24.715  0.00  0.00    -0.389 OA
ATOM     22  H   UNL     1       0.106   4.878  25.687  0.00  0.00    +0.210 HD
ENDBRANCH  11   2
TORSDOF 5
ENDMDL
MODEL 9
REMARK VINA RESULT:      -3.6      3.438      4.719
REMARK  Name = 71693787
REMARK  6 active torsions:
REMARK  status: ('A' for Active; 'I' for Inactive)
REMARK    1  A    between atoms: O_1  and  C_10
REMARK    2  A    between atoms: O_2  and  C_11
REMARK    3  A    between atoms: N_4  and  C_8
REMARK    4  A    between atoms: N_5  and  C_18
REMARK    5  A    between atoms: C_6  and  C_7
REMARK    6  A    between atoms: C_18  and  C_19
REMARK                            x       y       z     vdW  Elec       q    Type
REMARK                         _______ _______ _______ _____ _____    ______ ____
ROOT
ATOM      6  C   UNL     1      -4.069   1.128  24.954  0.00  0.00    +0.017 C 
ATOM      8  C   UNL     1      -4.399   1.978  26.204  0.00  0.00    +0.109 C 
ATOM      9  C   UNL     1      -5.420   0.862  24.285  0.00  0.00    +0.039 C 
ATOM     10  C   UNL     1      -5.872   2.395  26.055  0.00  0.00    +0.163 C 
ATOM     11  C   UNL     1      -6.193   2.137  24.585  0.00  0.00    +0.145 C 
ENDROOT
BRANCH   8   4
ATOM      3  O   UNL     1      -2.822   3.153  24.090  0.00  0.00    -0.253 OA
ATOM      4  N   UNL     1      -3.538   3.131  26.299  0.00  0.00    -0.294 N 
ATOM      5  N   UNL     1      -2.061   4.751  25.590  0.00  0.00    -0.300 N 
ATOM     17  C   UNL     1      -2.807   3.634  25.222  0.00  0.00    +0.300 C 
ATOM     20  H   UNL     1      -3.388   3.552  27.211  0.00  0.00    +0.151 HD
ATOM     23  H   UNL     1      -2.122   5.085  26.547  0.00  0.00    +0.150 HD
BRANCH   5  18
ATOM     18  C   UNL     1      -1.215   5.466  24.664  0.00  0.00    +0.102 C 
ATOM     19  C   UNL     1      -0.084   4.594  24.159  0.00  0.00    +0.024 C 
ENDBRANCH   5  18
ENDBRANCH   8   4
BRANCH   6   7
ATOM      7  C   UNL     1      -3.326  -0.157  25.289  0.00  0.00    -0.006 C 
ATOM     12  C   UNL     1      -1.830  -0.015  24.978  0.00  0.00    +0.004 C 
ATOM     13  C   UNL     1      -3.932  -1.347  24.532  0.00  0.00    +0.004 C 
ATOM     14  C   UNL     1      -1.071  -1.310  25.256  0.00  0.00    +0.000 C 
ATOM     15  C   UNL     1      -3.169  -2.640  24.811  0.00  0.00    +0.000 C 
ATOM     16  C   UNL     1      -1.681  -2.492  24.509  0.00  0.00    +0.000 C 
ENDBRANCH   6   7
BRANCH  10   1
ATOM      1  O   UNL     1      -6.655   1.549  26.896  0.00  0.00    -0.387 OA
ATOM     21  H   UNL     1      -6.121   1.348  27.683  0.00  0.00    +0.210 HD
ENDBRANCH  10   1
BRANCH  11   2
ATOM      2  O   UNL     1      -7.581   1.988  24.363  0.00  0.00    -0.389 OA
ATOM     22  H   UNL     1      -8.033   2.186  25.201  0.00  0.00    +0.210 HD
ENDBRANCH  11   2
TORSDOF 5
ENDMDL
MODEL 10
REMARK VINA RESULT:      -3.4      3.424      5.482
REMARK  Name = 71693787
REMARK  6 active torsions:
REMARK  status: ('A' for Active; 'I' for Inactive)
REMARK    1  A    between atoms: O_1  and  C_10
REMARK    2  A    between atoms: O_2  and  C_11
REMARK    3  A    between atoms: N_4  and  C_8
REMARK    4  A    between atoms: N_5  and  C_18
REMARK    5  A    between atoms: C_6  and  C_7
REMARK    6  A    between atoms: C_18  and  C_19
REMARK                            x       y       z     vdW  Elec       q    Type
REMARK                         _______ _______ _______ _____ _____    ______ ____
ROOT
ATOM      6  C   UNL     1      -3.119   2.845  26.063  0.00  0.00    +0.017 C 
ATOM      8  C   UNL     1      -3.737   1.909  24.996  0.00  0.00    +0.109 C 
ATOM      9  C   UNL     1      -4.110   4.003  26.200  0.00  0.00    +0.039 C 
ATOM     10  C   UNL     1      -5.170   2.418  24.769  0.00  0.00    +0.163 C 
ATOM     11  C   UNL     1      -5.449   3.321  25.968  0.00  0.00    +0.145 C 
ENDROOT
BRANCH   8   4
ATOM      3  O   UNL     1      -3.528  -0.450  23.343  0.00  0.00    -0.253 OA
ATOM      4  N   UNL     1      -3.734   0.536  25.436  0.00  0.00    -0.294 N 
ATOM      5  N   UNL     1      -3.652  -1.759  25.255  0.00  0.00    -0.300 N 
ATOM     17  C   UNL     1      -3.629  -0.549  24.566  0.00  0.00    +0.300 C 
ATOM     20  H   UNL     1      -3.899   0.341  26.419  0.00  0.00    +0.151 HD
ATOM     23  H   UNL     1      -3.726  -1.743  26.267  0.00  0.00    +0.150 HD
BRANCH   5  18
ATOM     18  C   UNL     1      -3.558  -3.039  24.593  0.00  0.00    +0.102 C 
ATOM     19  C   UNL     1      -2.163  -3.284  24.056  0.00  0.00    +0.024 C 
ENDBRANCH   5  18
ENDBRANCH   8   4
BRANCH   6   7
ATOM      7  C   UNL     1      -1.720   3.319  25.697  0.00  0.00    -0.006 C 
ATOM     12  C   UNL     1      -1.759   4.754  25.153  0.00  0.00    +0.004 C 
ATOM     13  C   UNL     1      -1.073   2.368  24.680  0.00  0.00    +0.004 C 
ATOM     14  C   UNL     1      -0.373   5.234  24.728  0.00  0.00    +0.000 C 
ATOM     15  C   UNL     1       0.311   2.852  24.257  0.00  0.00    +0.000 C 
ATOM     16  C   UNL     1       0.270   4.281  23.725  0.00  0.00    +0.000 C 
ENDBRANCH   6   7
BRANCH  10   1
ATOM      1  O   UNL     1      -5.181   3.173  23.558  0.00  0.00    -0.387 OA
ATOM     21  H   UNL     1      -6.094   3.479  23.416  0.00  0.00    +0.210 HD
ENDBRANCH  10   1
BRANCH  11   2
ATOM      2  O   UNL     1      -6.485   4.246  25.706  0.00  0.00    -0.389 OA
ATOM     22  H   UNL     1      -7.183   4.095  26.367  0.00  0.00    +0.210 HD
ENDBRANCH  11   2
TORSDOF 5
ENDMDL
