MODEL 1
REMARK VINA RESULT:      -6.1      0.000      0.000
REMARK  Name = 75536869
REMARK  5 active torsions:
REMARK  status: ('A' for Active; 'I' for Inactive)
REMARK    1  A    between atoms: O_5  and  C_13
REMARK    2  A    between atoms: O_5  and  C_16
REMARK    3  A    between atoms: N_6  and  C_10
REMARK    4  A    between atoms: C_7  and  C_10
REMARK    5  A    between atoms: C_21  and  C_22
REMARK                            x       y       z     vdW  Elec       q    Type
REMARK                         _______ _______ _______ _____ _____    ______ ____
ROOT
ATOM      5  O   UNL     1      -0.480   3.025  24.208  0.00  0.00    -0.485 OA
ENDROOT
BRANCH   5  13
ATOM      4  O   UNL     1       2.137   0.927  22.902  0.00  0.00    -0.375 OA
ATOM      6  N   UNL     1      -0.097  -0.681  24.367  0.00  0.00    -0.296 NA
ATOM     11  C   UNL     1      -0.728   0.643  24.374  0.00  0.00    +0.131 C 
ATOM     12  C   UNL     1       0.614  -1.006  23.129  0.00  0.00    +0.112 C 
ATOM     13  C   UNL     1       0.014   1.795  23.678  0.00  0.00    +0.213 C 
ATOM     14  C   UNL     1       2.041  -0.461  23.190  0.00  0.00    +0.175 C 
ATOM     15  C   UNL     1       1.525   1.774  23.869  0.00  0.00    +0.205 C 
BRANCH   6  10
ATOM     10  C   UNL     1      -1.082  -1.710  24.704  0.00  0.00    +0.088 C 
BRANCH  10   7
ATOM      7  C   UNL     1      -2.476  -1.183  24.598  0.00  0.00    +0.003 C 
ATOM      8  C   UNL     1      -3.439  -1.352  25.741  0.00  0.00    +0.005 C 
ATOM      9  C   UNL     1      -3.636  -2.131  24.471  0.00  0.00    +0.005 C 
ENDBRANCH  10   7
ENDBRANCH   6  10
ENDBRANCH   5  13
BRANCH   5  16
ATOM     16  C   UNL     1      -1.802   3.052  24.560  0.00  0.00    +0.121 A 
ATOM     17  C   UNL     1      -2.195   3.675  25.744  0.00  0.00    +0.046 A 
ATOM     18  C   UNL     1      -2.755   2.454  23.735  0.00  0.00    +0.046 A 
ATOM     19  C   UNL     1      -3.542   3.701  26.104  0.00  0.00    +0.016 A 
ATOM     20  C   UNL     1      -4.103   2.481  24.096  0.00  0.00    +0.016 A 
ATOM     21  C   UNL     1      -4.496   3.104  25.280  0.00  0.00    +0.055 A 
BRANCH  21  22
ATOM      1  F   UNL     1      -6.474   4.388  25.679  0.00  0.00    -0.166 F 
ATOM      2  F   UNL     1      -6.180   2.627  26.911  0.00  0.00    -0.166 F 
ATOM      3  F   UNL     1      -6.722   2.407  24.816  0.00  0.00    -0.166 F 
ATOM     22  C   UNL     1      -5.936   3.132  25.665  0.00  0.00    +0.417 C 
ENDBRANCH  21  22
ENDBRANCH   5  16
TORSDOF 5
ENDMDL
MODEL 2
REMARK VINA RESULT:      -6.1      3.114      5.257
REMARK  Name = 75536869
REMARK  5 active torsions:
REMARK  status: ('A' for Active; 'I' for Inactive)
REMARK    1  A    between atoms: O_5  and  C_13
REMARK    2  A    between atoms: O_5  and  C_16
REMARK    3  A    between atoms: N_6  and  C_10
REMARK    4  A    between atoms: C_7  and  C_10
REMARK    5  A    between atoms: C_21  and  C_22
REMARK                            x       y       z     vdW  Elec       q    Type
REMARK                         _______ _______ _______ _____ _____    ______ ____
ROOT
ATOM      5  O   UNL     1      -0.090   1.678  25.105  0.00  0.00    -0.485 OA
ENDROOT
BRANCH   5  13
ATOM      4  O   UNL     1      -0.377   5.260  24.893  0.00  0.00    -0.375 OA
ATOM      6  N   UNL     1      -3.132   3.834  25.208  0.00  0.00    -0.296 NA
ATOM     11  C   UNL     1      -2.253   2.677  25.407  0.00  0.00    +0.131 C 
ATOM     12  C   UNL     1      -2.655   5.070  25.831  0.00  0.00    +0.112 C 
ATOM     13  C   UNL     1      -0.735   2.919  25.395  0.00  0.00    +0.213 C 
ATOM     14  C   UNL     1      -1.694   5.793  24.887  0.00  0.00    +0.175 C 
ATOM     15  C   UNL     1      -0.270   3.942  24.367  0.00  0.00    +0.205 C 
BRANCH   6  10
ATOM     10  C   UNL     1      -4.494   3.510  25.634  0.00  0.00    +0.088 C 
BRANCH  10   7
ATOM      7  C   UNL     1      -5.087   2.432  24.787  0.00  0.00    +0.003 C 
ATOM      8  C   UNL     1      -6.447   1.878  25.109  0.00  0.00    +0.005 C 
ATOM      9  C   UNL     1      -5.223   1.034  25.325  0.00  0.00    +0.005 C 
ENDBRANCH  10   7
ENDBRANCH   6  10
ENDBRANCH   5  13
BRANCH   5  16
ATOM     16  C   UNL     1      -0.904   0.594  24.925  0.00  0.00    +0.121 A 
ATOM     17  C   UNL     1      -1.748   0.532  23.816  0.00  0.00    +0.046 A 
ATOM     18  C   UNL     1      -0.891  -0.449  25.851  0.00  0.00    +0.046 A 
ATOM     19  C   UNL     1      -2.579  -0.573  23.633  0.00  0.00    +0.016 A 
ATOM     20  C   UNL     1      -1.722  -1.555  25.667  0.00  0.00    +0.016 A 
ATOM     21  C   UNL     1      -2.566  -1.617  24.559  0.00  0.00    +0.055 A 
BRANCH  21  22
ATOM      1  F   UNL     1      -2.904  -3.771  23.578  0.00  0.00    -0.166 F 
ATOM      2  F   UNL     1      -4.647  -2.495  23.771  0.00  0.00    -0.166 F 
ATOM      3  F   UNL     1      -3.775  -3.415  25.538  0.00  0.00    -0.166 F 
ATOM     22  C   UNL     1      -3.454  -2.798  24.363  0.00  0.00    +0.417 C 
ENDBRANCH  21  22
ENDBRANCH   5  16
TORSDOF 5
ENDMDL
MODEL 3
REMARK VINA RESULT:      -5.6      2.894      4.448
REMARK  Name = 75536869
REMARK  5 active torsions:
REMARK  status: ('A' for Active; 'I' for Inactive)
REMARK    1  A    between atoms: O_5  and  C_13
REMARK    2  A    between atoms: O_5  and  C_16
REMARK    3  A    between atoms: N_6  and  C_10
REMARK    4  A    between atoms: C_7  and  C_10
REMARK    5  A    between atoms: C_21  and  C_22
REMARK                            x       y       z     vdW  Elec       q    Type
REMARK                         _______ _______ _______ _____ _____    ______ ____
ROOT
ATOM      5  O   UNL     1      -0.331  -0.216  24.484  0.00  0.00    -0.485 OA
ENDROOT
BRANCH   5  13
ATOM      4  O   UNL     1      -2.063  -3.369  24.390  0.00  0.00    -0.375 OA
ATOM      6  N   UNL     1      -3.984  -0.934  24.710  0.00  0.00    -0.296 NA
ATOM     11  C   UNL     1      -2.732  -0.207  24.473  0.00  0.00    +0.131 C 
ATOM     12  C   UNL     1      -4.147  -2.138  23.894  0.00  0.00    +0.112 C 
ATOM     13  C   UNL     1      -1.465  -1.032  24.192  0.00  0.00    +0.213 C 
ATOM     14  C   UNL     1      -3.471  -3.327  24.577  0.00  0.00    +0.175 C 
ATOM     15  C   UNL     1      -1.352  -2.308  25.016  0.00  0.00    +0.205 C 
BRANCH   6  10
ATOM     10  C   UNL     1      -5.125  -0.030  24.565  0.00  0.00    +0.088 C 
BRANCH  10   7
ATOM      7  C   UNL     1      -4.871   1.279  25.240  0.00  0.00    +0.003 C 
ATOM      8  C   UNL     1      -5.959   2.314  25.317  0.00  0.00    +0.005 C 
ATOM      9  C   UNL     1      -4.768   2.542  24.431  0.00  0.00    +0.005 C 
ENDBRANCH  10   7
ENDBRANCH   6  10
ENDBRANCH   5  13
BRANCH   5  16
ATOM     16  C   UNL     1      -0.558   1.128  24.601  0.00  0.00    +0.121 A 
ATOM     17  C   UNL     1      -0.377   1.762  25.830  0.00  0.00    +0.046 A 
ATOM     18  C   UNL     1      -0.971   1.864  23.490  0.00  0.00    +0.046 A 
ATOM     19  C   UNL     1      -0.610   3.131  25.949  0.00  0.00    +0.016 A 
ATOM     20  C   UNL     1      -1.203   3.235  23.610  0.00  0.00    +0.016 A 
ATOM     21  C   UNL     1      -1.023   3.868  24.839  0.00  0.00    +0.055 A 
BRANCH  21  22
ATOM      1  F   UNL     1      -2.009   5.668  26.066  0.00  0.00    -0.166 F 
ATOM      2  F   UNL     1      -1.948   5.867  23.907  0.00  0.00    -0.166 F 
ATOM      3  F   UNL     1      -0.118   6.055  25.066  0.00  0.00    -0.166 F 
ATOM     22  C   UNL     1      -1.272   5.333  24.966  0.00  0.00    +0.417 C 
ENDBRANCH  21  22
ENDBRANCH   5  16
TORSDOF 5
ENDMDL
MODEL 4
REMARK VINA RESULT:      -5.6      3.438      5.078
REMARK  Name = 75536869
REMARK  5 active torsions:
REMARK  status: ('A' for Active; 'I' for Inactive)
REMARK    1  A    between atoms: O_5  and  C_13
REMARK    2  A    between atoms: O_5  and  C_16
REMARK    3  A    between atoms: N_6  and  C_10
REMARK    4  A    between atoms: C_7  and  C_10
REMARK    5  A    between atoms: C_21  and  C_22
REMARK                            x       y       z     vdW  Elec       q    Type
REMARK                         _______ _______ _______ _____ _____    ______ ____
ROOT
ATOM      5  O   UNL     1      -4.164   2.565  24.712  0.00  0.00    -0.485 OA
ENDROOT
BRANCH   5  13
ATOM      4  O   UNL     1      -2.173   5.534  25.127  0.00  0.00    -0.375 OA
ATOM      6  N   UNL     1      -0.457   2.973  24.656  0.00  0.00    -0.296 NA
ATOM     11  C   UNL     1      -1.788   2.405  24.412  0.00  0.00    +0.131 C 
ATOM     12  C   UNL     1      -0.270   4.322  24.119  0.00  0.00    +0.112 C 
ATOM     13  C   UNL     1      -2.996   3.352  24.479  0.00  0.00    +0.213 C 
ATOM     14  C   UNL     1      -0.762   5.358  25.130  0.00  0.00    +0.175 C 
ATOM     15  C   UNL     1      -2.910   4.403  25.577  0.00  0.00    +0.205 C 
BRANCH   6  10
ATOM     10  C   UNL     1       0.577   2.057  24.175  0.00  0.00    +0.088 C 
BRANCH  10   7
ATOM      7  C   UNL     1      -0.023   0.854  23.522  0.00  0.00    +0.003 C 
ATOM      8  C   UNL     1       0.052  -0.489  24.195  0.00  0.00    +0.005 C 
ATOM      9  C   UNL     1       0.863  -0.223  22.958  0.00  0.00    +0.005 C 
ENDBRANCH  10   7
ENDBRANCH   6  10
ENDBRANCH   5  13
BRANCH   5  16
ATOM     16  C   UNL     1      -4.011   1.207  24.641  0.00  0.00    +0.121 A 
ATOM     17  C   UNL     1      -4.072   0.438  25.803  0.00  0.00    +0.046 A 
ATOM     18  C   UNL     1      -3.794   0.594  23.407  0.00  0.00    +0.046 A 
ATOM     19  C   UNL     1      -3.914  -0.946  25.731  0.00  0.00    +0.016 A 
ATOM     20  C   UNL     1      -3.637  -0.791  23.337  0.00  0.00    +0.016 A 
ATOM     21  C   UNL     1      -3.697  -1.561  24.498  0.00  0.00    +0.055 A 
BRANCH  21  22
ATOM      1  F   UNL     1      -4.504  -3.664  23.696  0.00  0.00    -0.166 F 
ATOM      2  F   UNL     1      -3.543  -3.656  25.640  0.00  0.00    -0.166 F 
ATOM      3  F   UNL     1      -2.350  -3.406  23.839  0.00  0.00    -0.166 F 
ATOM     22  C   UNL     1      -3.529  -3.040  24.421  0.00  0.00    +0.417 C 
ENDBRANCH  21  22
ENDBRANCH   5  16
TORSDOF 5
ENDMDL
MODEL 5
REMARK VINA RESULT:      -5.5      4.310      6.936
REMARK  Name = 75536869
REMARK  5 active torsions:
REMARK  status: ('A' for Active; 'I' for Inactive)
REMARK    1  A    between atoms: O_5  and  C_13
REMARK    2  A    between atoms: O_5  and  C_16
REMARK    3  A    between atoms: N_6  and  C_10
REMARK    4  A    between atoms: C_7  and  C_10
REMARK    5  A    between atoms: C_21  and  C_22
REMARK                            x       y       z     vdW  Elec       q    Type
REMARK                         _______ _______ _______ _____ _____    ______ ____
ROOT
ATOM      5  O   UNL     1      -3.324  -0.200  24.704  0.00  0.00    -0.485 OA
ENDROOT
BRANCH   5  13
ATOM      4  O   UNL     1      -6.340   1.727  25.075  0.00  0.00    -0.375 OA
ATOM      6  N   UNL     1      -3.784   3.287  25.944  0.00  0.00    -0.296 NA
ATOM     11  C   UNL     1      -3.142   2.099  25.370  0.00  0.00    +0.131 C 
ATOM     12  C   UNL     1      -4.948   3.765  25.197  0.00  0.00    +0.112 C 
ATOM     13  C   UNL     1      -4.047   1.030  24.737  0.00  0.00    +0.213 C 
ATOM     14  C   UNL     1      -6.202   3.019  25.652  0.00  0.00    +0.175 C 
ATOM     15  C   UNL     1      -5.351   0.789  25.484  0.00  0.00    +0.205 C 
BRANCH   6  10
ATOM     10  C   UNL     1      -2.796   4.350  26.134  0.00  0.00    +0.088 C 
BRANCH  10   7
ATOM      7  C   UNL     1      -1.907   4.485  24.941  0.00  0.00    +0.003 C 
ATOM      8  C   UNL     1      -0.435   4.195  25.056  0.00  0.00    +0.005 C 
ATOM      9  C   UNL     1      -0.909   5.608  24.863  0.00  0.00    +0.005 C 
ENDBRANCH  10   7
ENDBRANCH   6  10
ENDBRANCH   5  13
BRANCH   5  16
ATOM     16  C   UNL     1      -2.034  -0.140  24.250  0.00  0.00    +0.121 A 
ATOM     17  C   UNL     1      -1.612   0.955  23.496  0.00  0.00    +0.046 A 
ATOM     18  C   UNL     1      -1.144  -1.173  24.541  0.00  0.00    +0.046 A 
ATOM     19  C   UNL     1      -0.298   1.016  23.032  0.00  0.00    +0.016 A 
ATOM     20  C   UNL     1       0.171  -1.110  24.077  0.00  0.00    +0.016 A 
ATOM     21  C   UNL     1       0.594  -0.016  23.323  0.00  0.00    +0.055 A 
BRANCH  21  22
ATOM      1  F   UNL     1       2.804  -0.929  23.337  0.00  0.00    -0.166 F 
ATOM      2  F   UNL     1       2.630   1.223  23.126  0.00  0.00    -0.166 F 
ATOM      3  F   UNL     1       2.084  -0.077  21.471  0.00  0.00    -0.166 F 
ATOM     22  C   UNL     1       1.998   0.050  22.827  0.00  0.00    +0.417 C 
ENDBRANCH  21  22
ENDBRANCH   5  16
TORSDOF 5
ENDMDL
MODEL 6
REMARK VINA RESULT:      -5.2      1.625      3.485
REMARK  Name = 75536869
REMARK  5 active torsions:
REMARK  status: ('A' for Active; 'I' for Inactive)
REMARK    1  A    between atoms: O_5  and  C_13
REMARK    2  A    between atoms: O_5  and  C_16
REMARK    3  A    between atoms: N_6  and  C_10
REMARK    4  A    between atoms: C_7  and  C_10
REMARK    5  A    between atoms: C_21  and  C_22
REMARK                            x       y       z     vdW  Elec       q    Type
REMARK                         _______ _______ _______ _____ _____    ______ ____
ROOT
ATOM      5  O   UNL     1      -1.505  -1.206  24.180  0.00  0.00    -0.485 OA
ENDROOT
BRANCH   5  13
ATOM      4  O   UNL     1       1.704  -0.555  22.687  0.00  0.00    -0.375 OA
ATOM      6  N   UNL     1       0.466   1.958  24.056  0.00  0.00    -0.296 NA
ATOM     11  C   UNL     1      -0.506   0.954  24.501  0.00  0.00    +0.131 C 
ATOM     12  C   UNL     1       1.855   1.496  24.057  0.00  0.00    +0.112 C 
ATOM     13  C   UNL     1      -0.262  -0.509  24.099  0.00  0.00    +0.213 C 
ATOM     14  C   UNL     1       2.169   0.787  22.739  0.00  0.00    +0.175 C 
ATOM     15  C   UNL     1       0.287  -0.690  22.690  0.00  0.00    +0.205 C 
BRANCH   6  10
ATOM     10  C   UNL     1       0.311   3.188  24.834  0.00  0.00    +0.088 C 
BRANCH  10   7
ATOM      7  C   UNL     1      -1.037   3.798  24.623  0.00  0.00    +0.003 C 
ATOM      8  C   UNL     1      -1.316   5.199  25.092  0.00  0.00    +0.005 C 
ATOM      9  C   UNL     1      -1.954   4.032  25.791  0.00  0.00    +0.005 C 
ENDBRANCH  10   7
ENDBRANCH   6  10
ENDBRANCH   5  13
BRANCH   5  16
ATOM     16  C   UNL     1      -2.610  -0.452  24.469  0.00  0.00    +0.121 A 
ATOM     17  C   UNL     1      -2.918   0.661  23.687  0.00  0.00    +0.046 A 
ATOM     18  C   UNL     1      -3.428  -0.797  25.545  0.00  0.00    +0.046 A 
ATOM     19  C   UNL     1      -4.043   1.430  23.982  0.00  0.00    +0.016 A 
ATOM     20  C   UNL     1      -4.554  -0.027  25.839  0.00  0.00    +0.016 A 
ATOM     21  C   UNL     1      -4.862   1.086  25.058  0.00  0.00    +0.055 A 
BRANCH  21  22
ATOM      1  F   UNL     1      -5.844   3.254  25.293  0.00  0.00    -0.166 F 
ATOM      2  F   UNL     1      -6.555   1.702  26.631  0.00  0.00    -0.166 F 
ATOM      3  F   UNL     1      -7.108   1.659  24.528  0.00  0.00    -0.166 F 
ATOM     22  C   UNL     1      -6.065   1.908  25.373  0.00  0.00    +0.417 C 
ENDBRANCH  21  22
ENDBRANCH   5  16
TORSDOF 5
ENDMDL
MODEL 7
REMARK VINA RESULT:      -4.7      3.994      6.029
REMARK  Name = 75536869
REMARK  5 active torsions:
REMARK  status: ('A' for Active; 'I' for Inactive)
REMARK    1  A    between atoms: O_5  and  C_13
REMARK    2  A    between atoms: O_5  and  C_16
REMARK    3  A    between atoms: N_6  and  C_10
REMARK    4  A    between atoms: C_7  and  C_10
REMARK    5  A    between atoms: C_21  and  C_22
REMARK                            x       y       z     vdW  Elec       q    Type
REMARK                         _______ _______ _______ _____ _____    ______ ____
ROOT
ATOM      5  O   UNL     1      -2.192   3.490  25.285  0.00  0.00    -0.485 OA
ENDROOT
BRANCH   5  13
ATOM      4  O   UNL     1      -5.750   3.637  25.806  0.00  0.00    -0.375 OA
ATOM      6  N   UNL     1      -4.798   0.889  24.683  0.00  0.00    -0.296 NA
ATOM     11  C   UNL     1      -3.487   1.498  24.938  0.00  0.00    +0.131 C 
ATOM     12  C   UNL     1      -5.804   1.169  25.708  0.00  0.00    +0.112 C 
ATOM     13  C   UNL     1      -3.458   2.896  25.576  0.00  0.00    +0.213 C 
ATOM     14  C   UNL     1      -6.499   2.497  25.408  0.00  0.00    +0.175 C 
ATOM     15  C   UNL     1      -4.545   3.837  25.076  0.00  0.00    +0.205 C 
BRANCH   6  10
ATOM     10  C   UNL     1      -4.649  -0.549  24.457  0.00  0.00    +0.088 C 
BRANCH  10   7
ATOM      7  C   UNL     1      -3.518  -1.111  25.255  0.00  0.00    +0.003 C 
ATOM      8  C   UNL     1      -2.350  -1.759  24.563  0.00  0.00    +0.005 C 
ATOM      9  C   UNL     1      -3.320  -2.599  25.345  0.00  0.00    +0.005 C 
ENDBRANCH  10   7
ENDBRANCH   6  10
ENDBRANCH   5  13
BRANCH   5  16
ATOM     16  C   UNL     1      -1.262   2.684  24.688  0.00  0.00    +0.121 A 
ATOM     17  C   UNL     1      -1.548   2.075  23.466  0.00  0.00    +0.046 A 
ATOM     18  C   UNL     1      -0.027   2.471  25.302  0.00  0.00    +0.046 A 
ATOM     19  C   UNL     1      -0.600   1.253  22.858  0.00  0.00    +0.016 A 
ATOM     20  C   UNL     1       0.921   1.648  24.692  0.00  0.00    +0.016 A 
ATOM     21  C   UNL     1       0.635   1.039  23.471  0.00  0.00    +0.055 A 
BRANCH  21  22
ATOM      1  F   UNL     1       1.277  -0.277  21.581  0.00  0.00    -0.166 F 
ATOM      2  F   UNL     1       1.925  -0.974  23.530  0.00  0.00    -0.166 F 
ATOM      3  F   UNL     1       2.849   0.783  22.644  0.00  0.00    -0.166 F 
ATOM     22  C   UNL     1       1.648   0.160  22.821  0.00  0.00    +0.417 C 
ENDBRANCH  21  22
ENDBRANCH   5  16
TORSDOF 5
ENDMDL
MODEL 8
REMARK VINA RESULT:      -3.7      1.671      3.718
REMARK  Name = 75536869
REMARK  5 active torsions:
REMARK  status: ('A' for Active; 'I' for Inactive)
REMARK    1  A    between atoms: O_5  and  C_13
REMARK    2  A    between atoms: O_5  and  C_16
REMARK    3  A    between atoms: N_6  and  C_10
REMARK    4  A    between atoms: C_7  and  C_10
REMARK    5  A    between atoms: C_21  and  C_22
REMARK                            x       y       z     vdW  Elec       q    Type
REMARK                         _______ _______ _______ _____ _____    ______ ____
ROOT
ATOM      5  O   UNL     1      -0.324   2.900  24.235  0.00  0.00    -0.485 OA
ENDROOT
BRANCH   5  13
ATOM      4  O   UNL     1      -0.545  -0.688  24.418  0.00  0.00    -0.375 OA
ATOM      6  N   UNL     1       1.970   0.299  22.862  0.00  0.00    -0.296 NA
ATOM     11  C   UNL     1       1.492   1.591  23.365  0.00  0.00    +0.131 C 
ATOM     12  C   UNL     1       1.849  -0.803  23.817  0.00  0.00    +0.112 C 
ATOM     13  C   UNL     1       0.251   1.593  24.272  0.00  0.00    +0.213 C 
ATOM     14  C   UNL     1       0.454  -1.423  23.724  0.00  0.00    +0.175 C 
ATOM     15  C   UNL     1      -0.825   0.595  23.867  0.00  0.00    +0.205 C 
BRANCH   6  10
ATOM     10  C   UNL     1       3.341   0.429  22.366  0.00  0.00    +0.088 C 
BRANCH  10   7
ATOM      7  C   UNL     1       4.328   0.419  23.487  0.00  0.00    +0.003 C 
ATOM      8  C   UNL     1       5.788   0.186  23.209  0.00  0.00    +0.005 C 
ATOM      9  C   UNL     1       4.980  -0.868  23.911  0.00  0.00    +0.005 C 
ENDBRANCH  10   7
ENDBRANCH   6  10
ENDBRANCH   5  13
BRANCH   5  16
ATOM     16  C   UNL     1      -1.647   2.995  24.569  0.00  0.00    +0.121 A 
ATOM     17  C   UNL     1      -2.024   3.636  25.749  0.00  0.00    +0.046 A 
ATOM     18  C   UNL     1      -2.618   2.450  23.730  0.00  0.00    +0.046 A 
ATOM     19  C   UNL     1      -3.373   3.732  26.090  0.00  0.00    +0.016 A 
ATOM     20  C   UNL     1      -3.968   2.547  24.072  0.00  0.00    +0.016 A 
ATOM     21  C   UNL     1      -4.345   3.187  25.251  0.00  0.00    +0.055 A 
BRANCH  21  22
ATOM      1  F   UNL     1      -6.073   2.800  26.859  0.00  0.00    -0.166 F 
ATOM      2  F   UNL     1      -6.616   2.613  24.767  0.00  0.00    -0.166 F 
ATOM      3  F   UNL     1      -6.238   4.578  25.618  0.00  0.00    -0.166 F 
ATOM     22  C   UNL     1      -5.787   3.290  25.616  0.00  0.00    +0.417 C 
ENDBRANCH  21  22
ENDBRANCH   5  16
TORSDOF 5
ENDMDL
MODEL 9
REMARK VINA RESULT:      -2.6      4.971      7.002
REMARK  Name = 75536869
REMARK  5 active torsions:
REMARK  status: ('A' for Active; 'I' for Inactive)
REMARK    1  A    between atoms: O_5  and  C_13
REMARK    2  A    between atoms: O_5  and  C_16
REMARK    3  A    between atoms: N_6  and  C_10
REMARK    4  A    between atoms: C_7  and  C_10
REMARK    5  A    between atoms: C_21  and  C_22
REMARK                            x       y       z     vdW  Elec       q    Type
REMARK                         _______ _______ _______ _____ _____    ______ ____
ROOT
ATOM      5  O   UNL     1      -1.277   1.157  23.844  0.00  0.00    -0.485 OA
ENDROOT
BRANCH   5  13
ATOM      4  O   UNL     1      -0.695   4.540  24.926  0.00  0.00    -0.375 OA
ATOM      6  N   UNL     1      -3.697   3.711  25.083  0.00  0.00    -0.296 NA
ATOM     11  C   UNL     1      -3.116   2.405  24.752  0.00  0.00    +0.131 C 
ATOM     12  C   UNL     1      -2.906   4.501  26.028  0.00  0.00    +0.112 C 
ATOM     13  C   UNL     1      -1.587   2.310  24.627  0.00  0.00    +0.213 C 
ATOM     14  C   UNL     1      -1.843   5.302  25.277  0.00  0.00    +0.175 C 
ATOM     15  C   UNL     1      -0.935   3.517  23.966  0.00  0.00    +0.205 C 
BRANCH   6  10
ATOM     10  C   UNL     1      -5.076   3.546  25.545  0.00  0.00    +0.088 C 
BRANCH  10   7
ATOM      7  C   UNL     1      -5.453   2.102  25.625  0.00  0.00    +0.003 C 
ATOM      8  C   UNL     1      -6.711   1.611  24.962  0.00  0.00    +0.005 C 
ATOM      9  C   UNL     1      -6.626   1.671  26.461  0.00  0.00    +0.005 C 
ENDBRANCH  10   7
ENDBRANCH   6  10
ENDBRANCH   5  13
BRANCH   5  16
ATOM     16  C   UNL     1       0.049   0.926  23.595  0.00  0.00    +0.121 A 
ATOM     17  C   UNL     1       0.433  -0.177  22.833  0.00  0.00    +0.046 A 
ATOM     18  C   UNL     1       1.015   1.794  24.105  0.00  0.00    +0.046 A 
ATOM     19  C   UNL     1       1.784  -0.413  22.582  0.00  0.00    +0.016 A 
ATOM     20  C   UNL     1       2.366   1.557  23.852  0.00  0.00    +0.016 A 
ATOM     21  C   UNL     1       2.751   0.454  23.091  0.00  0.00    +0.055 A 
BRANCH  21  22
ATOM      1  F   UNL     1       4.522   0.255  21.495  0.00  0.00    -0.166 F 
ATOM      2  F   UNL     1       4.626  -1.024  23.244  0.00  0.00    -0.166 F 
ATOM      3  F   UNL     1       5.011   1.108  23.435  0.00  0.00    -0.166 F 
ATOM     22  C   UNL     1       4.196   0.201  22.821  0.00  0.00    +0.417 C 
ENDBRANCH  21  22
ENDBRANCH   5  16
TORSDOF 5
ENDMDL
