MODEL 1
REMARK VINA RESULT:      -4.9      0.000      0.000
REMARK  Name = 40586240
REMARK  7 active torsions:
REMARK  status: ('A' for Active; 'I' for Inactive)
REMARK    1  A    between atoms: S_1  and  N_8
REMARK    2  A    between atoms: S_1  and  C_23
REMARK    3  A    between atoms: O_4  and  C_13
REMARK    4  A    between atoms: O_4  and  C_22
REMARK    5  A    between atoms: N_8  and  C_12
REMARK    6  A    between atoms: N_9  and  C_16
REMARK    7  A    between atoms: C_28  and  C_29
REMARK                            x       y       z     vdW  Elec       q    Type
REMARK                         _______ _______ _______ _____ _____    ______ ____
ROOT
ATOM      2  O   UNL     1      -2.029   1.994  25.457  0.00  0.00    -0.369 OA
ATOM      3  O   UNL     1      -1.504   4.956  24.865  0.00  0.00    -0.368 OA
ATOM     10  C   UNL     1      -2.428   4.015  24.281  0.00  0.00    +0.171 C 
ATOM     11  C   UNL     1      -1.718   2.676  24.230  0.00  0.00    +0.191 C 
ATOM     12  C   UNL     1      -3.586   3.774  25.223  0.00  0.00    +0.133 C 
ATOM     13  C   UNL     1      -0.265   3.081  24.167  0.00  0.00    +0.235 C 
ATOM     14  C   UNL     1      -3.013   2.745  26.182  0.00  0.00    +0.183 C 
ATOM     15  C   UNL     1      -0.236   4.309  25.049  0.00  0.00    +0.207 C 
ENDROOT
BRANCH  12   8
ATOM      8  N   UNL     1      -4.733   3.254  24.518  0.00  0.00    -0.182 NA
ATOM     30  H   UNL     1      -5.087   3.779  23.710  0.00  0.00    +0.148 HD
BRANCH   8   1
ATOM      1  S   UNL     1      -5.684   2.040  25.228  0.00  0.00    +0.059 S 
ATOM      5  O   UNL     1      -6.901   1.866  24.460  0.00  0.00    -0.153 OA
ATOM      6  O   UNL     1      -5.751   2.274  26.658  0.00  0.00    -0.153 OA
BRANCH   1  23
ATOM     23  C   UNL     1      -4.679   0.605  24.988  0.00  0.00    +0.105 A 
ATOM     24  C   UNL     1      -4.311  -0.180  26.080  0.00  0.00    +0.029 A 
ATOM     25  C   UNL     1      -4.252   0.260  23.705  0.00  0.00    +0.029 A 
ATOM     26  C   UNL     1      -3.517  -1.311  25.891  0.00  0.00    +0.005 A 
ATOM     27  C   UNL     1      -3.457  -0.871  23.516  0.00  0.00    +0.005 A 
ATOM     28  C   UNL     1      -3.089  -1.657  24.608  0.00  0.00    -0.050 A 
ATOM     29  C   UNL     1      -2.240  -2.866  24.406  0.00  0.00    +0.044 C 
ENDBRANCH   1  23
ENDBRANCH   8   1
ENDBRANCH  12   8
BRANCH  13   4
ATOM      4  O   UNL     1       0.618   2.081  24.622  0.00  0.00    -0.442 OA
BRANCH   4  22
ATOM      7  O   UNL     1       0.318   0.308  23.192  0.00  0.00    -0.226 OA
ATOM      9  N   UNL     1       2.382   1.346  23.408  0.00  0.00    -0.278 N 
ATOM     22  C   UNL     1       1.045   1.162  23.690  0.00  0.00    +0.401 C 
ATOM     31  H   UNL     1       2.875   2.065  23.928  0.00  0.00    +0.152 HD
BRANCH   9  16
ATOM     16  C   UNL     1       3.123   0.536  22.466  0.00  0.00    +0.076 C 
ATOM     17  C   UNL     1       4.593   0.963  22.409  0.00  0.00    +0.022 C 
ATOM     18  C   UNL     1       2.988  -0.954  22.796  0.00  0.00    +0.022 C 
ATOM     19  C   UNL     1       5.366   0.567  23.668  0.00  0.00    +0.002 C 
ATOM     20  C   UNL     1       3.764  -1.346  24.054  0.00  0.00    +0.002 C 
ATOM     21  C   UNL     1       5.227  -0.921  23.969  0.00  0.00    +0.000 C 
ENDBRANCH   9  16
ENDBRANCH   4  22
ENDBRANCH  13   4
TORSDOF 6
ENDMDL
MODEL 2
REMARK VINA RESULT:      -3.9      2.081      7.217
REMARK  Name = 40586240
REMARK  7 active torsions:
REMARK  status: ('A' for Active; 'I' for Inactive)
REMARK    1  A    between atoms: S_1  and  N_8
REMARK    2  A    between atoms: S_1  and  C_23
REMARK    3  A    between atoms: O_4  and  C_13
REMARK    4  A    between atoms: O_4  and  C_22
REMARK    5  A    between atoms: N_8  and  C_12
REMARK    6  A    between atoms: N_9  and  C_16
REMARK    7  A    between atoms: C_28  and  C_29
REMARK                            x       y       z     vdW  Elec       q    Type
REMARK                         _______ _______ _______ _____ _____    ______ ____
ROOT
ATOM      2  O   UNL     1      -2.518  -0.354  26.055  0.00  0.00    -0.369 OA
ATOM      3  O   UNL     1      -2.816  -2.419  23.807  0.00  0.00    -0.368 OA
ATOM     10  C   UNL     1      -1.907  -1.311  23.972  0.00  0.00    +0.171 C 
ATOM     11  C   UNL     1      -2.690  -0.195  24.636  0.00  0.00    +0.191 C 
ATOM     12  C   UNL     1      -0.843  -1.660  24.988  0.00  0.00    +0.133 C 
ATOM     13  C   UNL     1      -4.107  -0.493  24.207  0.00  0.00    +0.235 C 
ATOM     14  C   UNL     1      -1.550  -1.385  26.304  0.00  0.00    +0.183 C 
ATOM     15  C   UNL     1      -4.130  -2.004  24.207  0.00  0.00    +0.207 C 
ENDROOT
BRANCH  12   8
ATOM      8  N   UNL     1       0.323  -0.823  24.832  0.00  0.00    -0.182 NA
ATOM     30  H   UNL     1       0.795  -0.484  25.678  0.00  0.00    +0.148 HD
BRANCH   8   1
ATOM      1  S   UNL     1       0.664  -0.119  23.325  0.00  0.00    +0.059 S 
ATOM      5  O   UNL     1       0.228   1.264  23.327  0.00  0.00    -0.153 OA
ATOM      6  O   UNL     1       0.225  -1.021  22.277  0.00  0.00    -0.153 OA
BRANCH   1  23
ATOM     23  C   UNL     1       2.432  -0.133  23.310  0.00  0.00    +0.105 A 
ATOM     24  C   UNL     1       3.125  -1.258  23.755  0.00  0.00    +0.029 A 
ATOM     25  C   UNL     1       3.133   0.984  22.854  0.00  0.00    +0.029 A 
ATOM     26  C   UNL     1       4.519  -1.269  23.744  0.00  0.00    +0.005 A 
ATOM     27  C   UNL     1       4.528   0.974  22.845  0.00  0.00    +0.005 A 
ATOM     28  C   UNL     1       5.222  -0.152  23.289  0.00  0.00    -0.050 A 
ATOM     29  C   UNL     1       6.713  -0.163  23.279  0.00  0.00    +0.044 C 
ENDBRANCH   1  23
ENDBRANCH   8   1
ENDBRANCH  12   8
BRANCH  13   4
ATOM      4  O   UNL     1      -5.081   0.053  25.068  0.00  0.00    -0.442 OA
BRANCH   4  22
ATOM      7  O   UNL     1      -6.343   1.931  24.673  0.00  0.00    -0.226 OA
ATOM      9  N   UNL     1      -4.124   2.089  25.334  0.00  0.00    -0.278 N 
ATOM     22  C   UNL     1      -5.278   1.414  24.995  0.00  0.00    +0.401 C 
ATOM     31  H   UNL     1      -3.300   1.532  25.538  0.00  0.00    +0.152 HD
BRANCH   9  16
ATOM     16  C   UNL     1      -4.014   3.530  25.354  0.00  0.00    +0.076 C 
ATOM     17  C   UNL     1      -3.076   3.996  26.472  0.00  0.00    +0.022 C 
ATOM     18  C   UNL     1      -3.564   4.067  23.991  0.00  0.00    +0.022 C 
ATOM     19  C   UNL     1      -1.610   3.684  26.173  0.00  0.00    +0.002 C 
ATOM     20  C   UNL     1      -2.096   3.755  23.696  0.00  0.00    +0.002 C 
ATOM     21  C   UNL     1      -1.182   4.238  24.817  0.00  0.00    +0.000 C 
ENDBRANCH   9  16
ENDBRANCH   4  22
ENDBRANCH  13   4
TORSDOF 6
ENDMDL
MODEL 3
REMARK VINA RESULT:      -3.1      1.808      6.779
REMARK  Name = 40586240
REMARK  7 active torsions:
REMARK  status: ('A' for Active; 'I' for Inactive)
REMARK    1  A    between atoms: S_1  and  N_8
REMARK    2  A    between atoms: S_1  and  C_23
REMARK    3  A    between atoms: O_4  and  C_13
REMARK    4  A    between atoms: O_4  and  C_22
REMARK    5  A    between atoms: N_8  and  C_12
REMARK    6  A    between atoms: N_9  and  C_16
REMARK    7  A    between atoms: C_28  and  C_29
REMARK                            x       y       z     vdW  Elec       q    Type
REMARK                         _______ _______ _______ _____ _____    ______ ____
ROOT
ATOM      2  O   UNL     1      -2.323   2.131  24.036  0.00  0.00    -0.369 OA
ATOM      3  O   UNL     1      -0.695   4.523  25.054  0.00  0.00    -0.368 OA
ATOM     10  C   UNL     1      -0.604   3.113  25.343  0.00  0.00    +0.171 C 
ATOM     11  C   UNL     1      -2.022   2.577  25.370  0.00  0.00    +0.191 C 
ATOM     12  C   UNL     1       0.036   2.385  24.184  0.00  0.00    +0.133 C 
ATOM     13  C   UNL     1      -2.825   3.799  25.745  0.00  0.00    +0.235 C 
ATOM     14  C   UNL     1      -1.134   2.199  23.233  0.00  0.00    +0.183 C 
ATOM     15  C   UNL     1      -2.079   4.904  25.032  0.00  0.00    +0.207 C 
ENDROOT
BRANCH  12   8
ATOM      8  N   UNL     1       0.582   1.116  24.600  0.00  0.00    -0.182 NA
ATOM     30  H   UNL     1       1.006   1.050  25.532  0.00  0.00    +0.148 HD
BRANCH   8   1
ATOM      1  S   UNL     1       0.853  -0.106  23.452  0.00  0.00    +0.059 S 
ATOM      5  O   UNL     1       0.369   0.330  22.157  0.00  0.00    -0.153 OA
ATOM      6  O   UNL     1       0.414  -1.374  24.005  0.00  0.00    -0.153 OA
BRANCH   1  23
ATOM     23  C   UNL     1       2.619  -0.156  23.386  0.00  0.00    +0.105 A 
ATOM     24  C   UNL     1       3.302  -1.290  23.826  0.00  0.00    +0.029 A 
ATOM     25  C   UNL     1       3.329   0.939  22.894  0.00  0.00    +0.029 A 
ATOM     26  C   UNL     1       4.695  -1.329  23.775  0.00  0.00    +0.005 A 
ATOM     27  C   UNL     1       4.723   0.900  22.845  0.00  0.00    +0.005 A 
ATOM     28  C   UNL     1       5.406  -0.233  23.284  0.00  0.00    -0.050 A 
ATOM     29  C   UNL     1       6.896  -0.275  23.230  0.00  0.00    +0.044 C 
ENDBRANCH   1  23
ENDBRANCH   8   1
ENDBRANCH  12   8
BRANCH  13   4
ATOM      4  O   UNL     1      -4.176   3.728  25.349  0.00  0.00    -0.442 OA
BRANCH   4  22
ATOM      7  O   UNL     1      -5.859   2.627  26.456  0.00  0.00    -0.226 OA
ATOM      9  N   UNL     1      -4.310   1.475  25.170  0.00  0.00    -0.278 N 
ATOM     22  C   UNL     1      -4.874   2.603  25.726  0.00  0.00    +0.401 C 
ATOM     31  H   UNL     1      -3.466   1.597  24.618  0.00  0.00    +0.152 HD
BRANCH   9  16
ATOM     16  C   UNL     1      -4.817   0.137  25.379  0.00  0.00    +0.076 C 
ATOM     17  C   UNL     1      -4.969  -0.609  24.049  0.00  0.00    +0.022 C 
ATOM     18  C   UNL     1      -3.931  -0.642  26.356  0.00  0.00    +0.022 C 
ATOM     19  C   UNL     1      -3.621  -0.996  23.440  0.00  0.00    +0.002 C 
ATOM     20  C   UNL     1      -2.584  -1.029  25.743  0.00  0.00    +0.002 C 
ATOM     21  C   UNL     1      -2.761  -1.780  24.426  0.00  0.00    +0.000 C 
ENDBRANCH   9  16
ENDBRANCH   4  22
ENDBRANCH  13   4
TORSDOF 6
ENDMDL
MODEL 4
REMARK VINA RESULT:      -2.7      1.551      3.659
REMARK  Name = 40586240
REMARK  7 active torsions:
REMARK  status: ('A' for Active; 'I' for Inactive)
REMARK    1  A    between atoms: S_1  and  N_8
REMARK    2  A    between atoms: S_1  and  C_23
REMARK    3  A    between atoms: O_4  and  C_13
REMARK    4  A    between atoms: O_4  and  C_22
REMARK    5  A    between atoms: N_8  and  C_12
REMARK    6  A    between atoms: N_9  and  C_16
REMARK    7  A    between atoms: C_28  and  C_29
REMARK                            x       y       z     vdW  Elec       q    Type
REMARK                         _______ _______ _______ _____ _____    ______ ____
ROOT
ATOM      2  O   UNL     1      -2.554   1.204  24.060  0.00  0.00    -0.369 OA
ATOM      3  O   UNL     1      -2.127  -1.749  24.770  0.00  0.00    -0.368 OA
ATOM     10  C   UNL     1      -2.682  -0.655  25.529  0.00  0.00    +0.171 C 
ATOM     11  C   UNL     1      -1.880   0.580  25.168  0.00  0.00    +0.191 C 
ATOM     12  C   UNL     1      -4.076  -0.338  25.039  0.00  0.00    +0.133 C 
ATOM     13  C   UNL     1      -0.550  -0.003  24.757  0.00  0.00    +0.235 C 
ATOM     14  C   UNL     1      -3.801   0.533  23.826  0.00  0.00    +0.183 C 
ATOM     15  C   UNL     1      -0.961  -1.287  24.072  0.00  0.00    +0.207 C 
ENDROOT
BRANCH  12   8
ATOM      8  N   UNL     1      -4.831   0.378  26.040  0.00  0.00    -0.182 NA
ATOM     30  H   UNL     1      -5.016  -0.088  26.935  0.00  0.00    +0.148 HD
BRANCH   8   1
ATOM      1  S   UNL     1      -5.700   1.771  25.608  0.00  0.00    +0.059 S 
ATOM      5  O   UNL     1      -6.512   2.202  26.729  0.00  0.00    -0.153 OA
ATOM      6  O   UNL     1      -6.305   1.561  24.307  0.00  0.00    -0.153 OA
BRANCH   1  23
ATOM     23  C   UNL     1      -4.404   2.954  25.389  0.00  0.00    +0.105 A 
ATOM     24  C   UNL     1      -3.523   3.226  26.435  0.00  0.00    +0.029 A 
ATOM     25  C   UNL     1      -4.264   3.617  24.169  0.00  0.00    +0.029 A 
ATOM     26  C   UNL     1      -2.501   4.160  26.263  0.00  0.00    +0.005 A 
ATOM     27  C   UNL     1      -3.243   4.552  23.998  0.00  0.00    +0.005 A 
ATOM     28  C   UNL     1      -2.361   4.823  25.044  0.00  0.00    -0.050 A 
ATOM     29  C   UNL     1      -1.270   5.822  24.860  0.00  0.00    +0.044 C 
ENDBRANCH   1  23
ENDBRANCH   8   1
ENDBRANCH  12   8
BRANCH  13   4
ATOM      4  O   UNL     1       0.194   0.838  23.905  0.00  0.00    -0.442 OA
BRANCH   4  22
ATOM      7  O   UNL     1       0.619  -0.554  22.128  0.00  0.00    -0.226 OA
ATOM      9  N   UNL     1       2.330   0.599  23.191  0.00  0.00    -0.278 N 
ATOM     22  C   UNL     1       1.019   0.221  22.991  0.00  0.00    +0.401 C 
ATOM     31  H   UNL     1       2.525   1.214  23.974  0.00  0.00    +0.152 HD
BRANCH   9  16
ATOM     16  C   UNL     1       3.434   0.120  22.389  0.00  0.00    +0.076 C 
ATOM     17  C   UNL     1       4.676   0.997  22.582  0.00  0.00    +0.022 C 
ATOM     18  C   UNL     1       3.739  -1.351  22.693  0.00  0.00    +0.022 C 
ATOM     19  C   UNL     1       5.321   0.802  23.954  0.00  0.00    +0.002 C 
ATOM     20  C   UNL     1       4.386  -1.542  24.065  0.00  0.00    +0.002 C 
ATOM     21  C   UNL     1       5.626  -0.667  24.229  0.00  0.00    +0.000 C 
ENDBRANCH   9  16
ENDBRANCH   4  22
ENDBRANCH  13   4
TORSDOF 6
ENDMDL
MODEL 5
REMARK VINA RESULT:      -1.3      2.823      5.444
REMARK  Name = 40586240
REMARK  7 active torsions:
REMARK  status: ('A' for Active; 'I' for Inactive)
REMARK    1  A    between atoms: S_1  and  N_8
REMARK    2  A    between atoms: S_1  and  C_23
REMARK    3  A    between atoms: O_4  and  C_13
REMARK    4  A    between atoms: O_4  and  C_22
REMARK    5  A    between atoms: N_8  and  C_12
REMARK    6  A    between atoms: N_9  and  C_16
REMARK    7  A    between atoms: C_28  and  C_29
REMARK                            x       y       z     vdW  Elec       q    Type
REMARK                         _______ _______ _______ _____ _____    ______ ____
ROOT
ATOM      2  O   UNL     1      -0.064   0.982  26.185  0.00  0.00    -0.369 OA
ATOM      3  O   UNL     1       1.376   2.186  23.760  0.00  0.00    -0.368 OA
ATOM     10  C   UNL     1       0.106   2.500  24.370  0.00  0.00    +0.171 C 
ATOM     11  C   UNL     1      -0.497   1.187  24.829  0.00  0.00    +0.191 C 
ATOM     12  C   UNL     1       0.324   3.266  25.654  0.00  0.00    +0.133 C 
ATOM     13  C   UNL     1       0.133   0.191  23.885  0.00  0.00    +0.235 C 
ATOM     14  C   UNL     1       0.621   2.156  26.647  0.00  0.00    +0.183 C 
ATOM     15  C   UNL     1       1.522   0.760  23.701  0.00  0.00    +0.207 C 
ENDROOT
BRANCH  12   8
ATOM      8  N   UNL     1      -0.859   4.004  26.029  0.00  0.00    -0.182 NA
ATOM     30  H   UNL     1      -1.265   3.833  26.956  0.00  0.00    +0.148 HD
BRANCH   8   1
ATOM      1  S   UNL     1      -1.754   4.827  24.844  0.00  0.00    +0.059 S 
ATOM      5  O   UNL     1      -1.113   4.665  23.554  0.00  0.00    -0.153 OA
ATOM      6  O   UNL     1      -2.076   6.152  25.337  0.00  0.00    -0.153 OA
BRANCH   1  23
ATOM     23  C   UNL     1      -3.262   3.904  24.822  0.00  0.00    +0.105 A 
ATOM     24  C   UNL     1      -4.084   3.884  25.949  0.00  0.00    +0.029 A 
ATOM     25  C   UNL     1      -3.628   3.195  23.679  0.00  0.00    +0.029 A 
ATOM     26  C   UNL     1      -5.273   3.155  25.933  0.00  0.00    +0.005 A 
ATOM     27  C   UNL     1      -4.817   2.464  23.663  0.00  0.00    +0.005 A 
ATOM     28  C   UNL     1      -5.640   2.445  24.789  0.00  0.00    -0.050 A 
ATOM     29  C   UNL     1      -6.911   1.665  24.772  0.00  0.00    +0.044 C 
ENDBRANCH   1  23
ENDBRANCH   8   1
ENDBRANCH  12   8
BRANCH  13   4
ATOM      4  O   UNL     1       0.160  -1.124  24.390  0.00  0.00    -0.442 OA
BRANCH   4  22
ATOM      7  O   UNL     1      -1.435  -2.719  23.960  0.00  0.00    -0.226 OA
ATOM      9  N   UNL     1      -1.766  -1.091  25.580  0.00  0.00    -0.278 N 
ATOM     22  C   UNL     1      -1.057  -1.736  24.589  0.00  0.00    +0.401 C 
ATOM     31  H   UNL     1      -1.350  -0.260  25.987  0.00  0.00    +0.152 HD
BRANCH   9  16
ATOM     16  C   UNL     1      -3.083  -1.498  26.018  0.00  0.00    +0.076 C 
ATOM     17  C   UNL     1      -4.164  -0.576  25.446  0.00  0.00    +0.022 C 
ATOM     18  C   UNL     1      -3.355  -2.963  25.659  0.00  0.00    +0.022 C 
ATOM     19  C   UNL     1      -4.376  -0.784  23.947  0.00  0.00    +0.002 C 
ATOM     20  C   UNL     1      -3.568  -3.167  24.158  0.00  0.00    +0.002 C 
ATOM     21  C   UNL     1      -4.656  -2.246  23.615  0.00  0.00    +0.000 C 
ENDBRANCH   9  16
ENDBRANCH   4  22
ENDBRANCH  13   4
TORSDOF 6
ENDMDL
