MODEL 1
REMARK VINA RESULT:       4.2      0.000      0.000
REMARK  Name = 45783334
REMARK  5 active torsions:
REMARK  status: ('A' for Active; 'I' for Inactive)
REMARK    1  A    between atoms: N_3  and  C_18
REMARK    2  A    between atoms: C_11  and  C_21
REMARK    3  A    between atoms: C_15  and  C_24
REMARK    4  A    between atoms: C_18  and  C_23
REMARK    5  A    between atoms: C_25  and  C_27
REMARK                            x       y       z     vdW  Elec       q    Type
REMARK                         _______ _______ _______ _____ _____    ______ ____
ROOT
ATOM      1  O   UNL     1      -5.684   0.931  24.862  0.00  0.00    -0.336 OA
ATOM      5  N   UNL     1      -3.556   1.357  25.416  0.00  0.00    -0.190 NA
ATOM      7  N   UNL     1      -4.931  -0.144  24.372  0.00  0.00    -0.056 NA
ATOM     21  C   UNL     1      -4.798   1.769  25.461  0.00  0.00    +0.245 A 
ATOM     25  C   UNL     1      -3.687   0.180  24.738  0.00  0.00    +0.202 A 
ENDROOT
BRANCH  25  27
ATOM      4  N   UNL     1       0.911  -0.325  23.361  0.00  0.00    -0.315 N 
ATOM      8  N   UNL     1      -0.347  -2.266  23.866  0.00  0.00    -0.240 NA
ATOM     15  C   UNL     1       3.417   0.852  22.483  0.00  0.00    +0.078 C 
ATOM     16  C   UNL     1       2.655  -0.161  21.630  0.00  0.00    +0.031 C 
ATOM     17  C   UNL     1       2.484   1.571  23.454  0.00  0.00    +0.031 C 
ATOM     19  C   UNL     1       1.777  -1.097  22.460  0.00  0.00    +0.107 C 
ATOM     20  C   UNL     1       1.585   0.624  24.252  0.00  0.00    +0.107 C 
ATOM     22  C   UNL     1      -0.290  -0.919  23.766  0.00  0.00    +0.122 A 
ATOM     26  C   UNL     1      -1.354  -0.075  24.039  0.00  0.00    +0.055 A 
ATOM     27  C   UNL     1      -2.554  -0.650  24.441  0.00  0.00    +0.027 A 
ATOM     28  C   UNL     1      -2.653  -2.032  24.556  0.00  0.00    +0.031 A 
ATOM     29  C   UNL     1      -1.530  -2.788  24.260  0.00  0.00    +0.113 A 
BRANCH  15  24
ATOM      2  O   UNL     1       5.601   0.773  23.454  0.00  0.00    -0.276 OA
ATOM     10  N   UNL     1       4.307  -1.127  23.533  0.00  0.00    -0.329 N 
ATOM     24  C   UNL     1       4.552   0.186  23.204  0.00  0.00    +0.214 C 
ATOM     33  H   UNL     1       5.003  -1.677  24.024  0.00  0.00    +0.145 HD
ATOM     34  H   UNL     1       3.458  -1.614  23.263  0.00  0.00    +0.145 HD
ENDBRANCH  15  24
ENDBRANCH  25  27
BRANCH  21  11
ATOM      3  N   UNL     1      -4.599   4.235  25.728  0.00  0.00    -0.284 NA
ATOM     11  C   UNL     1      -5.371   3.027  26.080  0.00  0.00    +0.146 C 
ATOM     12  C   UNL     1      -6.804   3.324  25.602  0.00  0.00    +0.030 C 
ATOM     13  C   UNL     1      -6.753   4.743  25.054  0.00  0.00    +0.017 C 
ATOM     14  C   UNL     1      -5.547   5.349  25.742  0.00  0.00    +0.085 C 
BRANCH   3  18
ATOM     18  C   UNL     1      -3.465   4.470  26.612  0.00  0.00    +0.159 C 
BRANCH  18  23
ATOM      6  N   UNL     1      -1.387   3.187  26.050  0.00  0.00    -0.347 N 
ATOM      9  N   UNL     1      -1.593   5.170  25.071  0.00  0.00    -0.239 NA
ATOM     23  C   UNL     1      -2.151   4.309  25.894  0.00  0.00    +0.121 A 
ATOM     30  C   UNL     1      -0.271   3.341  25.278  0.00  0.00    +0.104 A 
ATOM     31  C   UNL     1      -0.420   4.572  24.684  0.00  0.00    +0.130 A 
ATOM     32  H   UNL     1      -1.606   2.387  26.628  0.00  0.00    +0.167 HD
ENDBRANCH  18  23
ENDBRANCH   3  18
ENDBRANCH  21  11
TORSDOF 5
ENDMDL
MODEL 2
REMARK VINA RESULT:       7.8      1.733      2.724
REMARK  Name = 45783334
REMARK  5 active torsions:
REMARK  status: ('A' for Active; 'I' for Inactive)
REMARK    1  A    between atoms: N_3  and  C_18
REMARK    2  A    between atoms: C_11  and  C_21
REMARK    3  A    between atoms: C_15  and  C_24
REMARK    4  A    between atoms: C_18  and  C_23
REMARK    5  A    between atoms: C_25  and  C_27
REMARK                            x       y       z     vdW  Elec       q    Type
REMARK                         _______ _______ _______ _____ _____    ______ ____
ROOT
ATOM      1  O   UNL     1      -2.681  -0.650  25.752  0.00  0.00    -0.336 OA
ATOM      5  N   UNL     1      -2.239   0.902  24.199  0.00  0.00    -0.190 NA
ATOM      7  N   UNL     1      -1.562  -1.112  25.048  0.00  0.00    -0.056 NA
ATOM     21  C   UNL     1      -3.016   0.540  25.188  0.00  0.00    +0.245 A 
ATOM     25  C   UNL     1      -1.362  -0.143  24.149  0.00  0.00    +0.202 A 
ENDROOT
BRANCH  25  27
ATOM      4  N   UNL     1       3.343  -0.066  23.078  0.00  0.00    -0.315 N 
ATOM      8  N   UNL     1       1.777  -0.277  21.316  0.00  0.00    -0.240 NA
ATOM     15  C   UNL     1       6.112   0.144  23.927  0.00  0.00    +0.078 C 
ATOM     16  C   UNL     1       5.488   1.138  22.949  0.00  0.00    +0.031 C 
ATOM     17  C   UNL     1       5.049  -0.518  24.800  0.00  0.00    +0.031 C 
ATOM     19  C   UNL     1       4.318   0.544  22.164  0.00  0.00    +0.107 C 
ATOM     20  C   UNL     1       3.867  -1.075  24.004  0.00  0.00    +0.107 C 
ATOM     22  C   UNL     1       2.017  -0.153  22.641  0.00  0.00    +0.122 A 
ATOM     26  C   UNL     1       1.026  -0.104  23.607  0.00  0.00    +0.055 A 
ATOM     27  C   UNL     1      -0.297  -0.188  23.188  0.00  0.00    +0.027 A 
ATOM     28  C   UNL     1      -0.585  -0.315  21.834  0.00  0.00    +0.031 A 
ATOM     29  C   UNL     1       0.478  -0.355  20.946  0.00  0.00    +0.113 A 
BRANCH  15  24
ATOM      2  O   UNL     1       6.523  -2.015  22.983  0.00  0.00    -0.276 OA
ATOM     10  N   UNL     1       8.168  -0.417  22.799  0.00  0.00    -0.329 N 
ATOM     24  C   UNL     1       6.931  -0.876  23.191  0.00  0.00    +0.214 C 
ATOM     33  H   UNL     1       8.806  -1.020  22.293  0.00  0.00    +0.145 HD
ATOM     34  H   UNL     1       8.513   0.508  23.034  0.00  0.00    +0.145 HD
ENDBRANCH  15  24
ENDBRANCH  25  27
BRANCH  21  11
ATOM      3  N   UNL     1      -4.250   2.688  25.429  0.00  0.00    -0.284 NA
ATOM     11  C   UNL     1      -4.213   1.254  25.781  0.00  0.00    +0.146 C 
ATOM     12  C   UNL     1      -5.553   0.692  25.271  0.00  0.00    +0.030 C 
ATOM     13  C   UNL     1      -6.298   1.893  24.706  0.00  0.00    +0.017 C 
ATOM     14  C   UNL     1      -5.661   3.072  25.411  0.00  0.00    +0.085 C 
BRANCH   3  18
ATOM     18  C   UNL     1      -3.466   3.520  26.333  0.00  0.00    +0.159 C 
BRANCH  18  23
ATOM      6  N   UNL     1      -1.062   3.121  25.750  0.00  0.00    -0.347 N 
ATOM      9  N   UNL     1      -1.902   5.073  25.104  0.00  0.00    -0.239 NA
ATOM     23  C   UNL     1      -2.157   3.939  25.718  0.00  0.00    +0.121 A 
ATOM     30  C   UNL     1      -0.044   3.777  25.117  0.00  0.00    +0.104 A 
ATOM     31  C   UNL     1      -0.586   4.978  24.728  0.00  0.00    +0.130 A 
ATOM     32  H   UNL     1      -1.012   2.201  26.164  0.00  0.00    +0.167 HD
ENDBRANCH  18  23
ENDBRANCH   3  18
ENDBRANCH  21  11
TORSDOF 5
ENDMDL
