MODEL 1
REMARK VINA RESULT:      17.1      0.000      0.000
REMARK  Name = 11941403
REMARK  5 active torsions:
REMARK  status: ('A' for Active; 'I' for Inactive)
REMARK    1  A    between atoms: S_1  and  C_31
REMARK    2  A    between atoms: S_1  and  C_32
REMARK    3  A    between atoms: N_6  and  C_8
REMARK    4  A    between atoms: C_11  and  C_17
REMARK    5  A    between atoms: C_24  and  C_26
REMARK                            x       y       z     vdW  Elec       q    Type
REMARK                         _______ _______ _______ _____ _____    ______ ____
ROOT
ATOM      3  O   UNL     1      -4.354  -1.325  25.281  0.00  0.00    -0.273 OA
ATOM      4  O   UNL     1      -0.995   0.657  21.736  0.00  0.00    -0.270 OA
ATOM      5  N   UNL     1      -2.551   0.721  23.429  0.00  0.00    -0.284 N 
ATOM      7  N   UNL     1      -2.142  -1.762  24.954  0.00  0.00    -0.283 N 
ATOM      8  C   UNL     1      -4.157   1.472  24.994  0.00  0.00    +0.104 C 
ATOM      9  C   UNL     1      -2.930   0.567  24.822  0.00  0.00    +0.183 C 
ATOM     10  C   UNL     1      -4.761   1.525  23.590  0.00  0.00    +0.043 C 
ATOM     12  C   UNL     1      -3.542   1.480  22.681  0.00  0.00    +0.111 C 
ATOM     18  C   UNL     1      -3.226  -0.911  25.002  0.00  0.00    +0.240 C 
ATOM     19  C   UNL     1      -1.338   0.361  22.881  0.00  0.00    +0.249 C 
ATOM     20  C   UNL     1      -0.407  -0.447  23.711  0.00  0.00    +0.059 A 
ATOM     21  C   UNL     1      -0.810  -1.471  24.585  0.00  0.00    +0.046 A 
ATOM     22  C   UNL     1       0.963  -0.259  23.453  0.00  0.00    +0.023 A 
ATOM     23  C   UNL     1       0.167  -2.324  25.126  0.00  0.00    +0.024 A 
ATOM     24  C   UNL     1       1.921  -1.086  24.036  0.00  0.00    -0.017 A 
ATOM     25  C   UNL     1       1.522  -2.127  24.865  0.00  0.00    +0.010 A 
ATOM     34  H   UNL     1      -2.309  -2.701  25.308  0.00  0.00    +0.155 HD
ENDROOT
BRANCH  24  26
ATOM     26  C   UNL     1       3.326  -0.874  23.763  0.00  0.00    -0.018 A 
ATOM     27  C   UNL     1       3.754   0.331  23.207  0.00  0.00    +0.009 A 
ATOM     28  C   UNL     1       4.252  -1.875  24.057  0.00  0.00    +0.009 A 
ATOM     29  C   UNL     1       5.109   0.536  22.944  0.00  0.00    +0.015 A 
ATOM     30  C   UNL     1       5.608  -1.670  23.794  0.00  0.00    +0.015 A 
ATOM     31  C   UNL     1       6.036  -0.465  23.238  0.00  0.00    +0.008 A 
BRANCH  31   1
ATOM      1  S   UNL     1       7.766  -0.204  22.901  0.00  0.00    -0.129 S 
ATOM     32  C   UNL     1       8.213  -1.743  22.049  0.00  0.00    +0.090 C 
ENDBRANCH  31   1
ENDBRANCH  24  26
BRANCH   8   6
ATOM      2  O   UNL     1      -1.505   2.359  25.773  0.00  0.00    -0.276 OA
ATOM      6  N   UNL     1      -3.769   2.788  25.446  0.00  0.00    -0.310 N 
ATOM     17  C   UNL     1      -2.471   3.117  25.796  0.00  0.00    +0.216 C 
ATOM     33  H   UNL     1      -4.476   3.518  25.442  0.00  0.00    +0.149 HD
BRANCH  17  11
ATOM     11  C   UNL     1      -2.339   4.552  26.204  0.00  0.00    +0.075 C 
ATOM     13  C   UNL     1      -3.335   5.420  25.425  0.00  0.00    +0.013 C 
ATOM     14  C   UNL     1      -0.947   5.086  25.861  0.00  0.00    +0.013 C 
ATOM     15  C   UNL     1      -2.501   6.493  24.734  0.00  0.00    +0.001 C 
ATOM     16  C   UNL     1      -1.139   5.847  24.556  0.00  0.00    +0.001 C 
ENDBRANCH  17  11
ENDBRANCH   8   6
TORSDOF 4
ENDMDL
MODEL 2
REMARK VINA RESULT:      20.6      2.192      4.767
REMARK  Name = 11941403
REMARK  5 active torsions:
REMARK  status: ('A' for Active; 'I' for Inactive)
REMARK    1  A    between atoms: S_1  and  C_31
REMARK    2  A    between atoms: S_1  and  C_32
REMARK    3  A    between atoms: N_6  and  C_8
REMARK    4  A    between atoms: C_11  and  C_17
REMARK    5  A    between atoms: C_24  and  C_26
REMARK                            x       y       z     vdW  Elec       q    Type
REMARK                         _______ _______ _______ _____ _____    ______ ____
ROOT
ATOM      3  O   UNL     1      -3.582   5.220  24.010  0.00  0.00    -0.273 OA
ATOM      4  O   UNL     1      -0.216   2.494  27.011  0.00  0.00    -0.270 OA
ATOM      5  N   UNL     1      -2.205   2.932  25.941  0.00  0.00    -0.284 N 
ATOM      7  N   UNL     1      -1.475   4.486  23.552  0.00  0.00    -0.283 N 
ATOM      8  C   UNL     1      -4.466   2.851  25.253  0.00  0.00    +0.104 C 
ATOM      9  C   UNL     1      -3.025   2.992  24.745  0.00  0.00    +0.183 C 
ATOM     10  C   UNL     1      -4.394   3.392  26.683  0.00  0.00    +0.043 C 
ATOM     12  C   UNL     1      -3.012   2.964  27.152  0.00  0.00    +0.111 C 
ATOM     18  C   UNL     1      -2.725   4.339  24.112  0.00  0.00    +0.240 C 
ATOM     19  C   UNL     1      -0.846   2.699  25.973  0.00  0.00    +0.249 C 
ATOM     20  C   UNL     1      -0.101   2.724  24.688  0.00  0.00    +0.059 A 
ATOM     21  C   UNL     1      -0.364   3.618  23.636  0.00  0.00    +0.046 A 
ATOM     22  C   UNL     1       1.037   1.899  24.625  0.00  0.00    +0.023 A 
ATOM     23  C   UNL     1       0.556   3.710  22.578  0.00  0.00    +0.024 A 
ATOM     24  C   UNL     1       1.914   1.971  23.544  0.00  0.00    -0.017 A 
ATOM     25  C   UNL     1       1.680   2.886  22.525  0.00  0.00    +0.010 A 
ATOM     34  H   UNL     1      -1.367   5.285  22.931  0.00  0.00    +0.155 HD
ENDROOT
BRANCH  24  26
ATOM     26  C   UNL     1       3.077   1.112  23.493  0.00  0.00    -0.018 A 
ATOM     27  C   UNL     1       2.920  -0.274  23.519  0.00  0.00    +0.009 A 
ATOM     28  C   UNL     1       4.354   1.669  23.418  0.00  0.00    +0.009 A 
ATOM     29  C   UNL     1       4.042  -1.104  23.470  0.00  0.00    +0.015 A 
ATOM     30  C   UNL     1       5.475   0.839  23.369  0.00  0.00    +0.015 A 
ATOM     31  C   UNL     1       5.318  -0.547  23.395  0.00  0.00    +0.008 A 
BRANCH  31   1
ATOM      1  S   UNL     1       6.749  -1.606  23.333  0.00  0.00    -0.129 S 
ATOM     32  C   UNL     1       8.064  -0.428  22.908  0.00  0.00    +0.090 C 
ENDBRANCH  31   1
ENDBRANCH  24  26
BRANCH   8   6
ATOM      2  O   UNL     1      -3.045   0.587  24.120  0.00  0.00    -0.276 OA
ATOM      6  N   UNL     1      -4.887   1.469  25.238  0.00  0.00    -0.310 N 
ATOM     17  C   UNL     1      -4.135   0.454  24.671  0.00  0.00    +0.216 C 
ATOM     33  H   UNL     1      -5.745   1.229  25.727  0.00  0.00    +0.149 HD
BRANCH  17  11
ATOM     11  C   UNL     1      -4.789  -0.886  24.816  0.00  0.00    +0.075 C 
ATOM     13  C   UNL     1      -4.027  -1.742  25.834  0.00  0.00    +0.013 C 
ATOM     14  C   UNL     1      -4.746  -1.653  23.494  0.00  0.00    +0.013 C 
ATOM     15  C   UNL     1      -3.652  -3.026  25.101  0.00  0.00    +0.001 C 
ATOM     16  C   UNL     1      -3.571  -2.610  23.643  0.00  0.00    +0.001 C 
ENDBRANCH  17  11
ENDBRANCH   8   6
TORSDOF 4
ENDMDL
