MODEL 1
REMARK VINA RESULT:      -1.2      0.000      0.000
REMARK  Name = 26742708
REMARK  6 active torsions:
REMARK  status: ('A' for Active; 'I' for Inactive)
REMARK    1  A    between atoms: O_3  and  C_29
REMARK    2  A    between atoms: O_3  and  C_30
REMARK    3  A    between atoms: N_5  and  C_16
REMARK    4  A    between atoms: C_15  and  C_17
REMARK    5  A    between atoms: C_16  and  C_18
REMARK    6  A    between atoms: C_17  and  C_19
REMARK                            x       y       z     vdW  Elec       q    Type
REMARK                         _______ _______ _______ _____ _____    ______ ____
ROOT
ATOM      1  O   UNL     1      -5.680   2.923  26.911  0.00  0.00    -0.276 OA
ATOM      2  O   UNL     1      -0.417  -1.433  25.386  0.00  0.00    -0.275 OA
ATOM      4  N   UNL     1      -2.568  -1.196  24.541  0.00  0.00    -0.301 N 
ATOM      5  N   UNL     1      -4.660   3.199  24.846  0.00  0.00    -0.297 N 
ATOM      6  C   UNL     1      -4.416   0.197  23.624  0.00  0.00    +0.011 C 
ATOM      7  C   UNL     1      -5.117   0.099  24.999  0.00  0.00    +0.004 C 
ATOM      8  C   UNL     1      -4.102  -0.114  26.138  0.00  0.00    +0.023 C 
ATOM      9  C   UNL     1      -3.503  -1.030  23.420  0.00  0.00    +0.111 C 
ATOM     10  C   UNL     1      -3.617   1.492  23.385  0.00  0.00    +0.024 C 
ATOM     11  C   UNL     1      -6.103   1.240  25.283  0.00  0.00    +0.100 C 
ATOM     12  C   UNL     1      -3.202  -1.315  25.854  0.00  0.00    +0.108 C 
ATOM     13  C   UNL     1      -4.470   2.753  23.466  0.00  0.00    +0.108 C 
ATOM     14  C   UNL     1      -5.466   2.532  25.760  0.00  0.00    +0.216 C 
ATOM     15  C   UNL     1      -1.181  -1.269  24.430  0.00  0.00    +0.220 C 
ENDROOT
BRANCH   5  16
ATOM     16  C   UNL     1      -3.943   4.402  25.246  0.00  0.00    +0.142 C 
BRANCH  16  18
ATOM     18  C   UNL     1      -2.464   4.168  25.348  0.00  0.00    -0.030 A 
ATOM     20  C   UNL     1      -1.979   3.061  26.045  0.00  0.00    +0.005 A 
ATOM     21  C   UNL     1      -1.573   5.057  24.745  0.00  0.00    +0.005 A 
ATOM     24  C   UNL     1      -0.604   2.843  26.140  0.00  0.00    +0.000 A 
ATOM     25  C   UNL     1      -0.199   4.839  24.839  0.00  0.00    +0.000 A 
ATOM     26  C   UNL     1       0.286   3.731  25.537  0.00  0.00    +0.000 A 
ENDBRANCH  16  18
ENDBRANCH   5  16
BRANCH  15  17
ATOM     17  C   UNL     1      -0.604  -1.133  23.043  0.00  0.00    +0.131 C 
BRANCH  17  19
ATOM     19  C   UNL     1       0.740  -0.477  23.092  0.00  0.00    -0.038 A 
ATOM     22  C   UNL     1       1.884  -1.206  22.770  0.00  0.00    +0.007 A 
ATOM     23  C   UNL     1       0.847   0.865  23.457  0.00  0.00    +0.007 A 
ATOM     27  C   UNL     1       3.137  -0.593  22.813  0.00  0.00    +0.046 A 
ATOM     28  C   UNL     1       2.099   1.478  23.500  0.00  0.00    +0.046 A 
ATOM     29  C   UNL     1       3.245   0.748  23.178  0.00  0.00    +0.120 A 
BRANCH  29   3
ATOM      3  O   UNL     1       4.466   1.347  23.218  0.00  0.00    -0.495 OA
ATOM     30  C   UNL     1       5.577   0.533  23.591  0.00  0.00    +0.277 C 
ENDBRANCH  29   3
ENDBRANCH  17  19
ENDBRANCH  15  17
TORSDOF 5
ENDMDL
MODEL 2
REMARK VINA RESULT:       1.3      1.917      5.398
REMARK  Name = 26742708
REMARK  6 active torsions:
REMARK  status: ('A' for Active; 'I' for Inactive)
REMARK    1  A    between atoms: O_3  and  C_29
REMARK    2  A    between atoms: O_3  and  C_30
REMARK    3  A    between atoms: N_5  and  C_16
REMARK    4  A    between atoms: C_15  and  C_17
REMARK    5  A    between atoms: C_16  and  C_18
REMARK    6  A    between atoms: C_17  and  C_19
REMARK                            x       y       z     vdW  Elec       q    Type
REMARK                         _______ _______ _______ _____ _____    ______ ____
ROOT
ATOM      1  O   UNL     1      -0.215   5.044  25.507  0.00  0.00    -0.276 OA
ATOM      2  O   UNL     1      -5.939   1.276  26.936  0.00  0.00    -0.275 OA
ATOM      4  N   UNL     1      -5.327   2.596  25.126  0.00  0.00    -0.301 N 
ATOM      5  N   UNL     1      -0.567   3.148  24.218  0.00  0.00    -0.297 N 
ATOM      6  C   UNL     1      -3.702   3.282  23.369  0.00  0.00    +0.011 C 
ATOM      7  C   UNL     1      -3.380   4.536  24.214  0.00  0.00    +0.004 C 
ATOM      8  C   UNL     1      -3.636   4.290  25.713  0.00  0.00    +0.023 C 
ATOM      9  C   UNL     1      -5.133   2.799  23.684  0.00  0.00    +0.111 C 
ATOM     10  C   UNL     1      -2.708   2.115  23.522  0.00  0.00    +0.024 C 
ATOM     11  C   UNL     1      -1.999   5.143  23.935  0.00  0.00    +0.100 C 
ATOM     12  C   UNL     1      -5.053   3.773  25.951  0.00  0.00    +0.108 C 
ATOM     13  C   UNL     1      -1.281   2.480  23.130  0.00  0.00    +0.108 C 
ATOM     14  C   UNL     1      -0.842   4.447  24.628  0.00  0.00    +0.216 C 
ATOM     15  C   UNL     1      -5.760   1.414  25.723  0.00  0.00    +0.220 C 
ENDROOT
BRANCH   5  16
ATOM     16  C   UNL     1       0.472   2.376  24.887  0.00  0.00    +0.142 C 
BRANCH  16  18
ATOM     18  C   UNL     1       1.151   1.419  23.951  0.00  0.00    -0.030 A 
ATOM     20  C   UNL     1       0.467   0.296  23.483  0.00  0.00    +0.005 A 
ATOM     21  C   UNL     1       2.467   1.651  23.548  0.00  0.00    +0.005 A 
ATOM     24  C   UNL     1       1.098  -0.594  22.613  0.00  0.00    +0.000 A 
ATOM     25  C   UNL     1       3.098   0.762  22.679  0.00  0.00    +0.000 A 
ATOM     26  C   UNL     1       2.413  -0.361  22.211  0.00  0.00    +0.000 A 
ENDBRANCH  16  18
ENDBRANCH   5  16
BRANCH  15  17
ATOM     17  C   UNL     1      -6.017   0.246  24.805  0.00  0.00    +0.131 C 
BRANCH  17  19
ATOM     19  C   UNL     1      -4.800  -0.619  24.697  0.00  0.00    -0.038 A 
ATOM     22  C   UNL     1      -4.789  -1.699  23.815  0.00  0.00    +0.007 A 
ATOM     23  C   UNL     1      -3.677  -0.343  25.477  0.00  0.00    +0.007 A 
ATOM     27  C   UNL     1      -3.653  -2.504  23.713  0.00  0.00    +0.046 A 
ATOM     28  C   UNL     1      -2.543  -1.147  25.375  0.00  0.00    +0.046 A 
ATOM     29  C   UNL     1      -2.531  -2.228  24.492  0.00  0.00    +0.120 A 
BRANCH  29   3
ATOM      3  O   UNL     1      -1.423  -3.012  24.392  0.00  0.00    -0.495 OA
ATOM     30  C   UNL     1      -0.325  -2.699  25.249  0.00  0.00    +0.277 C 
ENDBRANCH  29   3
ENDBRANCH  17  19
ENDBRANCH  15  17
TORSDOF 5
ENDMDL
MODEL 3
REMARK VINA RESULT:       1.8      1.914      5.955
REMARK  Name = 26742708
REMARK  6 active torsions:
REMARK  status: ('A' for Active; 'I' for Inactive)
REMARK    1  A    between atoms: O_3  and  C_29
REMARK    2  A    between atoms: O_3  and  C_30
REMARK    3  A    between atoms: N_5  and  C_16
REMARK    4  A    between atoms: C_15  and  C_17
REMARK    5  A    between atoms: C_16  and  C_18
REMARK    6  A    between atoms: C_17  and  C_19
REMARK                            x       y       z     vdW  Elec       q    Type
REMARK                         _______ _______ _______ _____ _____    ______ ____
ROOT
ATOM      1  O   UNL     1      -0.343  -2.282  22.633  0.00  0.00    -0.276 OA
ATOM      2  O   UNL     1      -6.167   1.439  23.745  0.00  0.00    -0.275 OA
ATOM      4  N   UNL     1      -4.878   0.074  25.113  0.00  0.00    -0.301 N 
ATOM      5  N   UNL     1      -0.152  -0.432  24.019  0.00  0.00    -0.297 N 
ATOM      6  C   UNL     1      -2.683  -0.639  26.048  0.00  0.00    +0.011 C 
ATOM      7  C   UNL     1      -2.725  -1.863  25.102  0.00  0.00    +0.004 C 
ATOM      8  C   UNL     1      -3.561  -1.575  23.840  0.00  0.00    +0.023 C 
ATOM      9  C   UNL     1      -4.122  -0.169  26.349  0.00  0.00    +0.111 C 
ATOM     10  C   UNL     1      -1.837   0.547  25.549  0.00  0.00    +0.024 C 
ATOM     11  C   UNL     1      -1.347  -2.456  24.784  0.00  0.00    +0.100 C 
ATOM     12  C   UNL     1      -4.955  -1.073  24.208  0.00  0.00    +0.108 C 
ATOM     13  C   UNL     1      -0.371   0.192  25.323  0.00  0.00    +0.108 C 
ATOM     14  C   UNL     1      -0.566  -1.722  23.710  0.00  0.00    +0.216 C 
ATOM     15  C   UNL     1      -5.517   1.267  24.780  0.00  0.00    +0.220 C 
ENDROOT
BRANCH   5  16
ATOM     16  C   UNL     1       0.530   0.376  23.017  0.00  0.00    +0.142 C 
BRANCH  16  18
ATOM     18  C   UNL     1       2.022   0.227  23.094  0.00  0.00    -0.030 A 
ATOM     20  C   UNL     1       2.848   1.305  22.775  0.00  0.00    +0.005 A 
ATOM     21  C   UNL     1       2.583  -0.989  23.486  0.00  0.00    +0.005 A 
ATOM     24  C   UNL     1       4.234   1.167  22.847  0.00  0.00    +0.000 A 
ATOM     25  C   UNL     1       3.968  -1.127  23.559  0.00  0.00    +0.000 A 
ATOM     26  C   UNL     1       4.795  -0.048  23.239  0.00  0.00    +0.000 A 
ENDBRANCH  16  18
ENDBRANCH   5  16
BRANCH  15  17
ATOM     17  C   UNL     1      -5.386   2.402  25.763  0.00  0.00    +0.131 C 
BRANCH  17  19
ATOM     19  C   UNL     1      -4.130   3.176  25.513  0.00  0.00    -0.038 A 
ATOM     22  C   UNL     1      -3.493   3.831  26.566  0.00  0.00    +0.007 A 
ATOM     23  C   UNL     1      -3.595   3.240  24.226  0.00  0.00    +0.007 A 
ATOM     27  C   UNL     1      -2.320   4.551  26.334  0.00  0.00    +0.046 A 
ATOM     28  C   UNL     1      -2.423   3.959  23.994  0.00  0.00    +0.046 A 
ATOM     29  C   UNL     1      -1.786   4.615  25.048  0.00  0.00    +0.120 A 
BRANCH  29   3
ATOM      3  O   UNL     1      -0.641   5.315  24.820  0.00  0.00    -0.495 OA
ATOM     30  C   UNL     1       0.167   4.901  23.719  0.00  0.00    +0.277 C 
ENDBRANCH  29   3
ENDBRANCH  17  19
ENDBRANCH  15  17
TORSDOF 5
ENDMDL
