MODEL 1
REMARK VINA RESULT:      -3.3      0.000      0.000
REMARK  Name = 26745437
REMARK  7 active torsions:
REMARK  status: ('A' for Active; 'I' for Inactive)
REMARK    1  A    between atoms: O_4  and  C_23
REMARK    2  A    between atoms: N_5  and  C_14
REMARK    3  A    between atoms: N_8  and  C_18
REMARK    4  A    between atoms: C_9  and  C_15
REMARK    5  A    between atoms: C_14  and  C_16
REMARK    6  A    between atoms: C_18  and  C_22
REMARK    7  A    between atoms: C_20  and  C_23
REMARK                            x       y       z     vdW  Elec       q    Type
REMARK                         _______ _______ _______ _____ _____    ______ ____
ROOT
ATOM      5  N   UNL     1      -1.930   1.179  25.713  0.00  0.00    -0.278 NA
ATOM      6  N   UNL     1      -4.070  -1.178  23.769  0.00  0.00    -0.347 N 
ATOM      7  N   UNL     1      -2.717  -2.753  24.601  0.00  0.00    -0.240 NA
ATOM      9  C   UNL     1      -0.726   0.310  25.699  0.00  0.00    +0.150 C 
ATOM     10  C   UNL     1      -1.068  -1.207  25.759  0.00  0.00    +0.085 C 
ATOM     11  C   UNL     1      -2.887   0.933  24.609  0.00  0.00    +0.140 C 
ATOM     12  C   UNL     1      -3.085  -0.524  24.445  0.00  0.00    +0.053 A 
ATOM     13  C   UNL     1      -2.267  -1.509  24.941  0.00  0.00    +0.065 A 
ATOM     17  C   UNL     1      -3.805  -2.520  23.893  0.00  0.00    +0.197 A 
ATOM     29  H   UNL     1      -4.845  -0.763  23.269  0.00  0.00    +0.167 HD
ENDROOT
BRANCH   9  15
ATOM      3  O   UNL     1       0.401   1.755  24.163  0.00  0.00    -0.274 OA
ATOM      8  N   UNL     1       0.478  -0.545  23.809  0.00  0.00    -0.310 N 
ATOM     15  C   UNL     1       0.113   0.606  24.487  0.00  0.00    +0.231 C 
ATOM     30  H   UNL     1       0.206  -1.453  24.173  0.00  0.00    +0.149 HD
BRANCH   8  18
ATOM     18  C   UNL     1       1.268  -0.533  22.598  0.00  0.00    +0.139 C 
BRANCH  18  22
ATOM      1 CL   UNL     1       7.128   0.163  23.742  0.00  0.00    -0.084 Cl
ATOM     22  C   UNL     1       2.731  -0.359  22.884  0.00  0.00    -0.030 A 
ATOM     24  C   UNL     1       3.384   0.811  22.495  0.00  0.00    +0.006 A 
ATOM     25  C   UNL     1       3.439  -1.369  23.536  0.00  0.00    +0.006 A 
ATOM     26  C   UNL     1       4.744   0.972  22.760  0.00  0.00    +0.020 A 
ATOM     27  C   UNL     1       4.799  -1.208  23.801  0.00  0.00    +0.020 A 
ATOM     28  C   UNL     1       5.452  -0.038  23.412  0.00  0.00    +0.041 A 
ENDBRANCH  18  22
ENDBRANCH   8  18
ENDBRANCH   9  15
BRANCH   5  14
ATOM     14  C   UNL     1      -1.618   2.598  25.841  0.00  0.00    +0.160 C 
BRANCH  14  16
ATOM      2  O   UNL     1      -3.983   3.159  25.858  0.00  0.00    -0.461 OA
ATOM     16  C   UNL     1      -2.751   3.467  25.374  0.00  0.00    +0.119 A 
ATOM     19  C   UNL     1      -2.821   4.550  24.529  0.00  0.00    +0.046 A 
ATOM     20  C   UNL     1      -4.848   4.055  25.316  0.00  0.00    +0.131 A 
ATOM     21  C   UNL     1      -4.182   4.933  24.492  0.00  0.00    +0.047 A 
BRANCH  20  23
ATOM     23  C   UNL     1      -6.259   3.913  25.704  0.00  0.00    +0.230 C 
BRANCH  23   4
ATOM      4  O   UNL     1      -6.443   2.727  26.480  0.00  0.00    -0.387 OA
ATOM     31  H   UNL     1      -5.582   2.515  26.880  0.00  0.00    +0.210 HD
ENDBRANCH  23   4
ENDBRANCH  20  23
ENDBRANCH  14  16
ENDBRANCH   5  14
TORSDOF 7
ENDMDL
MODEL 2
REMARK VINA RESULT:      -2.3      3.330      6.478
REMARK  Name = 26745437
REMARK  7 active torsions:
REMARK  status: ('A' for Active; 'I' for Inactive)
REMARK    1  A    between atoms: O_4  and  C_23
REMARK    2  A    between atoms: N_5  and  C_14
REMARK    3  A    between atoms: N_8  and  C_18
REMARK    4  A    between atoms: C_9  and  C_15
REMARK    5  A    between atoms: C_14  and  C_16
REMARK    6  A    between atoms: C_18  and  C_22
REMARK    7  A    between atoms: C_20  and  C_23
REMARK                            x       y       z     vdW  Elec       q    Type
REMARK                         _______ _______ _______ _____ _____    ______ ____
ROOT
ATOM      5  N   UNL     1      -1.138   3.686  24.319  0.00  0.00    -0.278 NA
ATOM      6  N   UNL     1      -4.638   2.424  24.068  0.00  0.00    -0.347 N 
ATOM      7  N   UNL     1      -4.909   3.413  26.056  0.00  0.00    -0.240 NA
ATOM      9  C   UNL     1      -1.116   3.728  25.803  0.00  0.00    +0.150 C 
ATOM     10  C   UNL     1      -2.493   4.104  26.422  0.00  0.00    +0.085 C 
ATOM     11  C   UNL     1      -2.117   2.739  23.737  0.00  0.00    +0.140 C 
ATOM     12  C   UNL     1      -3.409   2.872  24.446  0.00  0.00    +0.053 A 
ATOM     13  C   UNL     1      -3.600   3.470  25.668  0.00  0.00    +0.065 A 
ATOM     17  C   UNL     1      -5.509   2.774  25.070  0.00  0.00    +0.197 A 
ATOM     29  H   UNL     1      -4.869   1.927  23.217  0.00  0.00    +0.167 HD
ENDROOT
BRANCH   9  15
ATOM      3  O   UNL     1       0.353   2.328  27.068  0.00  0.00    -0.274 OA
ATOM      8  N   UNL     1      -1.435   1.354  25.939  0.00  0.00    -0.310 N 
ATOM     15  C   UNL     1      -0.642   2.411  26.353  0.00  0.00    +0.231 C 
ATOM     30  H   UNL     1      -2.252   1.532  25.363  0.00  0.00    +0.149 HD
BRANCH   8  18
ATOM     18  C   UNL     1      -1.180  -0.019  26.309  0.00  0.00    +0.139 C 
BRANCH  18  22
ATOM      1 CL   UNL     1      -4.652  -3.855  23.248  0.00  0.00    -0.084 Cl
ATOM     22  C   UNL     1      -2.046  -0.977  25.545  0.00  0.00    -0.030 A 
ATOM     24  C   UNL     1      -3.372  -0.646  25.262  0.00  0.00    +0.006 A 
ATOM     25  C   UNL     1      -1.528  -2.201  25.120  0.00  0.00    +0.006 A 
ATOM     26  C   UNL     1      -4.177  -1.536  24.552  0.00  0.00    +0.020 A 
ATOM     27  C   UNL     1      -2.333  -3.091  24.410  0.00  0.00    +0.020 A 
ATOM     28  C   UNL     1      -3.658  -2.759  24.127  0.00  0.00    +0.041 A 
ENDBRANCH  18  22
ENDBRANCH   8  18
ENDBRANCH   9  15
BRANCH   5  14
ATOM     14  C   UNL     1       0.184   3.515  23.726  0.00  0.00    +0.160 C 
BRANCH  14  16
ATOM      2  O   UNL     1       1.795   1.713  23.462  0.00  0.00    -0.461 OA
ATOM     16  C   UNL     1       0.484   2.073  23.429  0.00  0.00    +0.119 A 
ATOM     19  C   UNL     1      -0.306   0.992  23.118  0.00  0.00    +0.046 A 
ATOM     20  C   UNL     1       1.840   0.387  23.168  0.00  0.00    +0.131 A 
ATOM     21  C   UNL     1       0.573  -0.103  22.949  0.00  0.00    +0.047 A 
BRANCH  20  23
ATOM     23  C   UNL     1       3.174  -0.228  23.146  0.00  0.00    +0.230 C 
BRANCH  23   4
ATOM      4  O   UNL     1       4.170   0.735  23.500  0.00  0.00    -0.387 OA
ATOM     31  H   UNL     1       4.929   0.587  22.911  0.00  0.00    +0.210 HD
ENDBRANCH  23   4
ENDBRANCH  20  23
ENDBRANCH  14  16
ENDBRANCH   5  14
TORSDOF 7
ENDMDL
MODEL 3
REMARK VINA RESULT:      -2.1      1.641      2.512
REMARK  Name = 26745437
REMARK  7 active torsions:
REMARK  status: ('A' for Active; 'I' for Inactive)
REMARK    1  A    between atoms: O_4  and  C_23
REMARK    2  A    between atoms: N_5  and  C_14
REMARK    3  A    between atoms: N_8  and  C_18
REMARK    4  A    between atoms: C_9  and  C_15
REMARK    5  A    between atoms: C_14  and  C_16
REMARK    6  A    between atoms: C_18  and  C_22
REMARK    7  A    between atoms: C_20  and  C_23
REMARK                            x       y       z     vdW  Elec       q    Type
REMARK                         _______ _______ _______ _____ _____    ______ ____
ROOT
ATOM      5  N   UNL     1      -3.527   0.829  24.588  0.00  0.00    -0.278 NA
ATOM      6  N   UNL     1      -4.045  -2.820  24.013  0.00  0.00    -0.347 N 
ATOM      7  N   UNL     1      -2.223  -3.060  25.289  0.00  0.00    -0.240 NA
ATOM      9  C   UNL     1      -2.064   0.722  24.819  0.00  0.00    +0.150 C 
ATOM     10  C   UNL     1      -1.655  -0.597  25.536  0.00  0.00    +0.085 C 
ATOM     11  C   UNL     1      -4.111  -0.269  23.783  0.00  0.00    +0.140 C 
ATOM     12  C   UNL     1      -3.577  -1.565  24.258  0.00  0.00    +0.053 A 
ATOM     13  C   UNL     1      -2.459  -1.738  25.037  0.00  0.00    +0.065 A 
ATOM     17  C   UNL     1      -3.196  -3.687  24.657  0.00  0.00    +0.197 A 
ATOM     29  H   UNL     1      -4.856  -3.070  23.464  0.00  0.00    +0.167 HD
ENDROOT
BRANCH   9  15
ATOM      3  O   UNL     1      -1.766   1.521  22.585  0.00  0.00    -0.274 OA
ATOM      8  N   UNL     1      -0.133   0.148  23.517  0.00  0.00    -0.310 N 
ATOM     15  C   UNL     1      -1.321   0.859  23.519  0.00  0.00    +0.231 C 
ATOM     30  H   UNL     1       0.157  -0.352  24.352  0.00  0.00    +0.149 HD
BRANCH   8  18
ATOM     18  C   UNL     1       0.756   0.097  22.379  0.00  0.00    +0.139 C 
BRANCH  18  22
ATOM      1 CL   UNL     1       6.519  -0.301  24.045  0.00  0.00    -0.084 Cl
ATOM     22  C   UNL     1       2.195  -0.002  22.795  0.00  0.00    -0.030 A 
ATOM     24  C   UNL     1       2.674  -1.177  23.374  0.00  0.00    +0.006 A 
ATOM     25  C   UNL     1       3.053   1.082  22.605  0.00  0.00    +0.006 A 
ATOM     26  C   UNL     1       4.011  -1.269  23.761  0.00  0.00    +0.020 A 
ATOM     27  C   UNL     1       4.390   0.990  22.992  0.00  0.00    +0.020 A 
ATOM     28  C   UNL     1       4.869  -0.185  23.571  0.00  0.00    +0.041 A 
ENDBRANCH  18  22
ENDBRANCH   8  18
ENDBRANCH   9  15
BRANCH   5  14
ATOM     14  C   UNL     1      -3.939   2.135  24.085  0.00  0.00    +0.160 C 
BRANCH  14  16
ATOM      2  O   UNL     1      -2.303   3.908  24.381  0.00  0.00    -0.461 OA
ATOM     16  C   UNL     1      -3.375   3.258  24.907  0.00  0.00    +0.119 A 
ATOM     19  C   UNL     1      -3.717   3.797  26.125  0.00  0.00    +0.046 A 
ATOM     20  C   UNL     1      -1.958   4.872  25.274  0.00  0.00    +0.131 A 
ATOM     21  C   UNL     1      -2.797   4.845  26.364  0.00  0.00    +0.047 A 
BRANCH  20  23
ATOM     23  C   UNL     1      -0.808   5.712  24.912  0.00  0.00    +0.230 C 
BRANCH  23   4
ATOM      4  O   UNL     1       0.064   5.004  24.027  0.00  0.00    -0.387 OA
ATOM     31  H   UNL     1       0.898   5.502  23.993  0.00  0.00    +0.210 HD
ENDBRANCH  23   4
ENDBRANCH  20  23
ENDBRANCH  14  16
ENDBRANCH   5  14
TORSDOF 7
ENDMDL
MODEL 4
REMARK VINA RESULT:      -1.5      1.293      2.002
REMARK  Name = 26745437
REMARK  7 active torsions:
REMARK  status: ('A' for Active; 'I' for Inactive)
REMARK    1  A    between atoms: O_4  and  C_23
REMARK    2  A    between atoms: N_5  and  C_14
REMARK    3  A    between atoms: N_8  and  C_18
REMARK    4  A    between atoms: C_9  and  C_15
REMARK    5  A    between atoms: C_14  and  C_16
REMARK    6  A    between atoms: C_18  and  C_22
REMARK    7  A    between atoms: C_20  and  C_23
REMARK                            x       y       z     vdW  Elec       q    Type
REMARK                         _______ _______ _______ _____ _____    ______ ____
ROOT
ATOM      5  N   UNL     1      -2.251   0.944  25.772  0.00  0.00    -0.278 NA
ATOM      6  N   UNL     1      -4.131  -1.630  23.835  0.00  0.00    -0.347 N 
ATOM      7  N   UNL     1      -2.603  -3.047  24.648  0.00  0.00    -0.240 NA
ATOM      9  C   UNL     1      -0.957   0.215  25.743  0.00  0.00    +0.150 C 
ATOM     10  C   UNL     1      -1.127  -1.330  25.799  0.00  0.00    +0.085 C 
ATOM     11  C   UNL     1      -3.184   0.598  24.675  0.00  0.00    +0.140 C 
ATOM     12  C   UNL     1      -3.220  -0.872  24.505  0.00  0.00    +0.053 A 
ATOM     13  C   UNL     1      -2.292  -1.761  24.990  0.00  0.00    +0.065 A 
ATOM     17  C   UNL     1      -3.716  -2.934  23.950  0.00  0.00    +0.197 A 
ATOM     29  H   UNL     1      -4.952  -1.302  23.344  0.00  0.00    +0.167 HD
ENDROOT
BRANCH   9  15
ATOM      3  O   UNL     1      -0.028   1.782  24.194  0.00  0.00    -0.274 OA
ATOM      8  N   UNL     1       0.337  -0.492  23.852  0.00  0.00    -0.310 N 
ATOM     15  C   UNL     1      -0.167   0.608  24.526  0.00  0.00    +0.231 C 
ATOM     30  H   UNL     1       0.183  -1.424  24.222  0.00  0.00    +0.149 HD
BRANCH   8  18
ATOM     18  C   UNL     1       1.113  -0.387  22.637  0.00  0.00    +0.139 C 
BRANCH  18  22
ATOM      1 CL   UNL     1       7.005   0.022  23.764  0.00  0.00    -0.084 Cl
ATOM     22  C   UNL     1       2.584  -0.284  22.918  0.00  0.00    -0.030 A 
ATOM     24  C   UNL     1       3.252  -1.343  23.535  0.00  0.00    +0.006 A 
ATOM     25  C   UNL     1       3.284   0.870  22.566  0.00  0.00    +0.006 A 
ATOM     26  C   UNL     1       4.619  -1.248  23.796  0.00  0.00    +0.020 A 
ATOM     27  C   UNL     1       4.650   0.966  22.828  0.00  0.00    +0.020 A 
ATOM     28  C   UNL     1       5.318  -0.093  23.444  0.00  0.00    +0.041 A 
ENDBRANCH  18  22
ENDBRANCH   8  18
ENDBRANCH   9  15
BRANCH   5  14
ATOM     14  C   UNL     1      -2.098   2.389  25.904  0.00  0.00    +0.160 C 
BRANCH  14  16
ATOM      2  O   UNL     1      -2.829   2.688  23.605  0.00  0.00    -0.461 OA
ATOM     16  C   UNL     1      -2.913   3.136  24.886  0.00  0.00    +0.119 A 
ATOM     19  C   UNL     1      -3.759   4.217  24.966  0.00  0.00    +0.046 A 
ATOM     20  C   UNL     1      -3.631   3.493  22.860  0.00  0.00    +0.131 A 
ATOM     21  C   UNL     1      -4.226   4.449  23.651  0.00  0.00    +0.047 A 
BRANCH  20  23
ATOM     23  C   UNL     1      -3.699   3.193  21.423  0.00  0.00    +0.230 C 
BRANCH  23   4
ATOM      4  O   UNL     1      -2.595   2.372  21.036  0.00  0.00    -0.387 OA
ATOM     31  H   UNL     1      -1.818   2.693  21.525  0.00  0.00    +0.210 HD
ENDBRANCH  23   4
ENDBRANCH  20  23
ENDBRANCH  14  16
ENDBRANCH   5  14
TORSDOF 7
ENDMDL
MODEL 5
REMARK VINA RESULT:      -1.2      3.497      7.471
REMARK  Name = 26745437
REMARK  7 active torsions:
REMARK  status: ('A' for Active; 'I' for Inactive)
REMARK    1  A    between atoms: O_4  and  C_23
REMARK    2  A    between atoms: N_5  and  C_14
REMARK    3  A    between atoms: N_8  and  C_18
REMARK    4  A    between atoms: C_9  and  C_15
REMARK    5  A    between atoms: C_14  and  C_16
REMARK    6  A    between atoms: C_18  and  C_22
REMARK    7  A    between atoms: C_20  and  C_23
REMARK                            x       y       z     vdW  Elec       q    Type
REMARK                         _______ _______ _______ _____ _____    ______ ____
ROOT
ATOM      5  N   UNL     1       0.172   1.485  23.498  0.00  0.00    -0.278 NA
ATOM      6  N   UNL     1      -3.016   3.394  23.820  0.00  0.00    -0.347 N 
ATOM      7  N   UNL     1      -2.276   3.864  25.878  0.00  0.00    -0.240 NA
ATOM      9  C   UNL     1       0.323   1.229  24.954  0.00  0.00    +0.150 C 
ATOM     10  C   UNL     1      -0.202   2.399  25.835  0.00  0.00    +0.085 C 
ATOM     11  C   UNL     1      -1.218   1.739  23.053  0.00  0.00    +0.140 C 
ATOM     12  C   UNL     1      -1.873   2.676  23.993  0.00  0.00    +0.053 A 
ATOM     13  C   UNL     1      -1.441   2.977  25.261  0.00  0.00    +0.065 A 
ATOM     17  C   UNL     1      -3.217   4.096  24.984  0.00  0.00    +0.197 A 
ATOM     29  H   UNL     1      -3.607   3.410  23.000  0.00  0.00    +0.167 HD
ENDROOT
BRANCH   9  15
ATOM      3  O   UNL     1      -0.055  -1.128  24.822  0.00  0.00    -0.274 OA
ATOM      8  N   UNL     1      -1.365   0.143  26.268  0.00  0.00    -0.310 N 
ATOM     15  C   UNL     1      -0.365  -0.054  25.330  0.00  0.00    +0.231 C 
ATOM     30  H   UNL     1      -1.529   1.072  26.643  0.00  0.00    +0.149 HD
BRANCH   8  18
ATOM     18  C   UNL     1      -2.191  -0.927  26.779  0.00  0.00    +0.139 C 
BRANCH  18  22
ATOM      1 CL   UNL     1      -5.471  -3.499  22.447  0.00  0.00    -0.084 Cl
ATOM     22  C   UNL     1      -3.010  -1.569  25.697  0.00  0.00    -0.030 A 
ATOM     24  C   UNL     1      -2.920  -2.944  25.476  0.00  0.00    +0.006 A 
ATOM     25  C   UNL     1      -3.860  -0.791  24.910  0.00  0.00    +0.006 A 
ATOM     26  C   UNL     1      -3.681  -3.540  24.471  0.00  0.00    +0.020 A 
ATOM     27  C   UNL     1      -4.621  -1.387  23.905  0.00  0.00    +0.020 A 
ATOM     28  C   UNL     1      -4.530  -2.762  23.685  0.00  0.00    +0.041 A 
ENDBRANCH  18  22
ENDBRANCH   8  18
ENDBRANCH   9  15
BRANCH   5  14
ATOM     14  C   UNL     1       0.823   0.481  22.664  0.00  0.00    +0.160 C 
BRANCH  14  16
ATOM      2  O   UNL     1       2.877  -0.658  23.291  0.00  0.00    -0.461 OA
ATOM     16  C   UNL     1       2.315   0.492  22.832  0.00  0.00    +0.119 A 
ATOM     19  C   UNL     1       3.280   1.449  22.616  0.00  0.00    +0.046 A 
ATOM     20  C   UNL     1       4.215  -0.432  23.368  0.00  0.00    +0.131 A 
ATOM     21  C   UNL     1       4.513   0.849  22.964  0.00  0.00    +0.047 A 
BRANCH  20  23
ATOM     23  C   UNL     1       5.036  -1.552  23.847  0.00  0.00    +0.230 C 
BRANCH  23   4
ATOM      4  O   UNL     1       5.892  -1.121  24.908  0.00  0.00    -0.387 OA
ATOM     31  H   UNL     1       5.803  -0.155  24.968  0.00  0.00    +0.210 HD
ENDBRANCH  23   4
ENDBRANCH  20  23
ENDBRANCH  14  16
ENDBRANCH   5  14
TORSDOF 7
ENDMDL
MODEL 6
REMARK VINA RESULT:      -1.0      1.839      2.981
REMARK  Name = 26745437
REMARK  7 active torsions:
REMARK  status: ('A' for Active; 'I' for Inactive)
REMARK    1  A    between atoms: O_4  and  C_23
REMARK    2  A    between atoms: N_5  and  C_14
REMARK    3  A    between atoms: N_8  and  C_18
REMARK    4  A    between atoms: C_9  and  C_15
REMARK    5  A    between atoms: C_14  and  C_16
REMARK    6  A    between atoms: C_18  and  C_22
REMARK    7  A    between atoms: C_20  and  C_23
REMARK                            x       y       z     vdW  Elec       q    Type
REMARK                         _______ _______ _______ _____ _____    ______ ____
ROOT
ATOM      5  N   UNL     1      -2.891   0.856  25.027  0.00  0.00    -0.278 NA
ATOM      6  N   UNL     1      -4.744  -2.064  23.631  0.00  0.00    -0.347 N 
ATOM      7  N   UNL     1      -3.100  -3.272  24.549  0.00  0.00    -0.240 NA
ATOM      9  C   UNL     1      -1.565   0.187  25.025  0.00  0.00    +0.150 C 
ATOM     10  C   UNL     1      -1.651  -1.337  25.326  0.00  0.00    +0.085 C 
ATOM     11  C   UNL     1      -3.867   0.305  24.059  0.00  0.00    +0.140 C 
ATOM     12  C   UNL     1      -3.836  -1.174  24.118  0.00  0.00    +0.053 A 
ATOM     13  C   UNL     1      -2.837  -1.937  24.671  0.00  0.00    +0.065 A 
ATOM     17  C   UNL     1      -4.257  -3.316  23.917  0.00  0.00    +0.197 A 
ATOM     29  H   UNL     1      -5.609  -1.851  23.151  0.00  0.00    +0.167 HD
ENDROOT
BRANCH   9  15
ATOM      3  O   UNL     1      -1.374   1.097  22.822  0.00  0.00    -0.274 OA
ATOM      8  N   UNL     1       0.354  -0.228  23.647  0.00  0.00    -0.310 N 
ATOM     15  C   UNL     1      -0.868   0.419  23.713  0.00  0.00    +0.231 C 
ATOM     30  H   UNL     1       0.693  -0.748  24.450  0.00  0.00    +0.149 HD
BRANCH   8  18
ATOM     18  C   UNL     1       1.211  -0.183  22.484  0.00  0.00    +0.139 C 
BRANCH  18  22
ATOM      1 CL   UNL     1       7.032  -0.114  23.985  0.00  0.00    -0.084 Cl
ATOM     22  C   UNL     1       2.665  -0.165  22.859  0.00  0.00    -0.030 A 
ATOM     24  C   UNL     1       3.246  -1.288  23.450  0.00  0.00    +0.006 A 
ATOM     25  C   UNL     1       3.434   0.974  22.619  0.00  0.00    +0.006 A 
ATOM     26  C   UNL     1       4.597  -1.271  23.798  0.00  0.00    +0.020 A 
ATOM     27  C   UNL     1       4.784   0.990  22.967  0.00  0.00    +0.020 A 
ATOM     28  C   UNL     1       5.366  -0.132  23.558  0.00  0.00    +0.041 A 
ENDBRANCH  18  22
ENDBRANCH   8  18
ENDBRANCH   9  15
BRANCH   5  14
ATOM     14  C   UNL     1      -2.806   2.309  24.927  0.00  0.00    +0.160 C 
BRANCH  14  16
ATOM      2  O   UNL     1      -1.032   2.255  26.588  0.00  0.00    -0.461 OA
ATOM     16  C   UNL     1      -1.499   2.833  25.450  0.00  0.00    +0.119 A 
ATOM     19  C   UNL     1      -0.634   3.810  25.014  0.00  0.00    +0.046 A 
ATOM     20  C   UNL     1       0.144   2.869  26.881  0.00  0.00    +0.131 A 
ATOM     21  C   UNL     1       0.433   3.834  25.943  0.00  0.00    +0.047 A 
BRANCH  20  23
ATOM     23  C   UNL     1       0.839   2.400  28.088  0.00  0.00    +0.230 C 
BRANCH  23   4
ATOM      4  O   UNL     1       2.195   2.854  28.087  0.00  0.00    -0.387 OA
ATOM     31  H   UNL     1       2.721   2.176  28.543  0.00  0.00    +0.210 HD
ENDBRANCH  23   4
ENDBRANCH  20  23
ENDBRANCH  14  16
ENDBRANCH   5  14
TORSDOF 7
ENDMDL
MODEL 7
REMARK VINA RESULT:      -0.6      2.900      5.182
REMARK  Name = 26745437
REMARK  7 active torsions:
REMARK  status: ('A' for Active; 'I' for Inactive)
REMARK    1  A    between atoms: O_4  and  C_23
REMARK    2  A    between atoms: N_5  and  C_14
REMARK    3  A    between atoms: N_8  and  C_18
REMARK    4  A    between atoms: C_9  and  C_15
REMARK    5  A    between atoms: C_14  and  C_16
REMARK    6  A    between atoms: C_18  and  C_22
REMARK    7  A    between atoms: C_20  and  C_23
REMARK                            x       y       z     vdW  Elec       q    Type
REMARK                         _______ _______ _______ _____ _____    ______ ____
ROOT
ATOM      5  N   UNL     1      -1.930  -1.162  23.812  0.00  0.00    -0.278 NA
ATOM      6  N   UNL     1       0.952   0.643  22.279  0.00  0.00    -0.347 N 
ATOM      7  N   UNL     1       2.199  -0.796  23.453  0.00  0.00    -0.240 NA
ATOM      9  C   UNL     1      -1.184  -1.608  25.016  0.00  0.00    +0.150 C 
ATOM     10  C   UNL     1       0.311  -1.923  24.724  0.00  0.00    +0.085 C 
ATOM     11  C   UNL     1      -1.382   0.046  23.153  0.00  0.00    +0.140 C 
ATOM     12  C   UNL     1       0.090  -0.075  23.052  0.00  0.00    +0.053 A 
ATOM     13  C   UNL     1       0.877  -0.946  23.764  0.00  0.00    +0.065 A 
ATOM     17  C   UNL     1       2.211   0.171  22.555  0.00  0.00    +0.197 A 
ATOM     29  H   UNL     1       0.716   1.382  21.630  0.00  0.00    +0.167 HD
ENDROOT
BRANCH   9  15
ATOM      3  O   UNL     1      -2.055  -0.727  27.061  0.00  0.00    -0.274 OA
ATOM      8  N   UNL     1      -0.477   0.514  25.881  0.00  0.00    -0.310 N 
ATOM     15  C   UNL     1      -1.296  -0.580  26.107  0.00  0.00    +0.231 C 
ATOM     30  H   UNL     1       0.132   0.529  25.069  0.00  0.00    +0.149 HD
BRANCH   8  18
ATOM     18  C   UNL     1      -0.415   1.652  26.770  0.00  0.00    +0.139 C 
BRANCH  18  22
ATOM      1 CL   UNL     1      -2.289   6.699  24.093  0.00  0.00    -0.084 Cl
ATOM     22  C   UNL     1      -0.882   2.912  26.101  0.00  0.00    -0.030 A 
ATOM     24  C   UNL     1      -2.058   3.532  26.526  0.00  0.00    +0.006 A 
ATOM     25  C   UNL     1      -0.144   3.462  25.053  0.00  0.00    +0.006 A 
ATOM     26  C   UNL     1      -2.492   4.703  25.905  0.00  0.00    +0.020 A 
ATOM     27  C   UNL     1      -0.578   4.632  24.432  0.00  0.00    +0.020 A 
ATOM     28  C   UNL     1      -1.753   5.252  24.857  0.00  0.00    +0.041 A 
ENDBRANCH  18  22
ENDBRANCH   8  18
ENDBRANCH   9  15
BRANCH   5  14
ATOM     14  C   UNL     1      -3.368  -1.040  24.034  0.00  0.00    +0.160 C 
BRANCH  14  16
ATOM      2  O   UNL     1      -4.654   0.698  25.143  0.00  0.00    -0.461 OA
ATOM     16  C   UNL     1      -3.802   0.394  24.129  0.00  0.00    +0.119 A 
ATOM     19  C   UNL     1      -3.517   1.515  23.384  0.00  0.00    +0.046 A 
ATOM     20  C   UNL     1      -4.915   2.028  25.045  0.00  0.00    +0.131 A 
ATOM     21  C   UNL     1      -4.239   2.576  23.979  0.00  0.00    +0.047 A 
BRANCH  20  23
ATOM     23  C   UNL     1      -5.826   2.587  26.054  0.00  0.00    +0.230 C 
BRANCH  23   4
ATOM      4  O   UNL     1      -6.141   3.945  25.737  0.00  0.00    -0.387 OA
ATOM     31  H   UNL     1      -6.300   4.403  26.580  0.00  0.00    +0.210 HD
ENDBRANCH  23   4
ENDBRANCH  20  23
ENDBRANCH  14  16
ENDBRANCH   5  14
TORSDOF 7
ENDMDL
MODEL 8
REMARK VINA RESULT:       0.2      2.239      4.603
REMARK  Name = 26745437
REMARK  7 active torsions:
REMARK  status: ('A' for Active; 'I' for Inactive)
REMARK    1  A    between atoms: O_4  and  C_23
REMARK    2  A    between atoms: N_5  and  C_14
REMARK    3  A    between atoms: N_8  and  C_18
REMARK    4  A    between atoms: C_9  and  C_15
REMARK    5  A    between atoms: C_14  and  C_16
REMARK    6  A    between atoms: C_18  and  C_22
REMARK    7  A    between atoms: C_20  and  C_23
REMARK                            x       y       z     vdW  Elec       q    Type
REMARK                         _______ _______ _______ _____ _____    ______ ____
ROOT
ATOM      5  N   UNL     1      -2.690   1.867  23.102  0.00  0.00    -0.278 NA
ATOM      6  N   UNL     1      -3.428   3.744  26.239  0.00  0.00    -0.347 N 
ATOM      7  N   UNL     1      -1.624   4.947  25.689  0.00  0.00    -0.240 NA
ATOM      9  C   UNL     1      -1.236   2.169  23.104  0.00  0.00    +0.150 C 
ATOM     10  C   UNL     1      -0.908   3.580  23.672  0.00  0.00    +0.085 C 
ATOM     11  C   UNL     1      -3.340   1.931  24.432  0.00  0.00    +0.140 C 
ATOM     12  C   UNL     1      -2.885   3.146  25.143  0.00  0.00    +0.053 A 
ATOM     13  C   UNL     1      -1.780   3.898  24.828  0.00  0.00    +0.065 A 
ATOM     17  C   UNL     1      -2.633   4.826  26.529  0.00  0.00    +0.197 A 
ATOM     29  H   UNL     1      -4.254   3.453  26.746  0.00  0.00    +0.167 HD
ENDROOT
BRANCH   9  15
ATOM      3  O   UNL     1      -0.501   1.069  25.096  0.00  0.00    -0.274 OA
ATOM      8  N   UNL     1       0.206   0.254  23.033  0.00  0.00    -0.310 N 
ATOM     15  C   UNL     1      -0.487   1.113  23.868  0.00  0.00    +0.231 C 
ATOM     30  H   UNL     1       0.134   0.363  22.026  0.00  0.00    +0.149 HD
BRANCH   8  18
ATOM     18  C   UNL     1       1.023  -0.835  23.519  0.00  0.00    +0.139 C 
BRANCH  18  22
ATOM      1 CL   UNL     1       6.890   0.427  23.167  0.00  0.00    -0.084 Cl
ATOM     22  C   UNL     1       2.488  -0.519  23.431  0.00  0.00    -0.030 A 
ATOM     24  C   UNL     1       3.429  -1.445  23.884  0.00  0.00    +0.006 A 
ATOM     25  C   UNL     1       2.909   0.700  22.899  0.00  0.00    +0.006 A 
ATOM     26  C   UNL     1       4.790  -1.152  23.802  0.00  0.00    +0.020 A 
ATOM     27  C   UNL     1       4.270   0.993  22.817  0.00  0.00    +0.020 A 
ATOM     28  C   UNL     1       5.210   0.068  23.270  0.00  0.00    +0.041 A 
ENDBRANCH  18  22
ENDBRANCH   8  18
ENDBRANCH   9  15
BRANCH   5  14
ATOM     14  C   UNL     1      -3.023   0.628  22.407  0.00  0.00    +0.160 C 
BRANCH  14  16
ATOM      2  O   UNL     1      -2.108  -1.053  23.905  0.00  0.00    -0.461 OA
ATOM     16  C   UNL     1      -3.230  -0.514  23.361  0.00  0.00    +0.119 A 
ATOM     19  C   UNL     1      -4.351  -1.161  23.824  0.00  0.00    +0.046 A 
ATOM     20  C   UNL     1      -2.518  -2.056  24.725  0.00  0.00    +0.131 A 
ATOM     21  C   UNL     1      -3.889  -2.162  24.711  0.00  0.00    +0.047 A 
BRANCH  20  23
ATOM     23  C   UNL     1      -1.459  -2.791  25.432  0.00  0.00    +0.230 C 
BRANCH  23   4
ATOM      4  O   UNL     1      -0.410  -1.901  25.817  0.00  0.00    -0.387 OA
ATOM     31  H   UNL     1       0.034  -1.616  25.000  0.00  0.00    +0.210 HD
ENDBRANCH  23   4
ENDBRANCH  20  23
ENDBRANCH  14  16
ENDBRANCH   5  14
TORSDOF 7
ENDMDL
MODEL 9
REMARK VINA RESULT:       0.5      2.149      4.512
REMARK  Name = 26745437
REMARK  7 active torsions:
REMARK  status: ('A' for Active; 'I' for Inactive)
REMARK    1  A    between atoms: O_4  and  C_23
REMARK    2  A    between atoms: N_5  and  C_14
REMARK    3  A    between atoms: N_8  and  C_18
REMARK    4  A    between atoms: C_9  and  C_15
REMARK    5  A    between atoms: C_14  and  C_16
REMARK    6  A    between atoms: C_18  and  C_22
REMARK    7  A    between atoms: C_20  and  C_23
REMARK                            x       y       z     vdW  Elec       q    Type
REMARK                         _______ _______ _______ _____ _____    ______ ____
ROOT
ATOM      5  N   UNL     1      -1.162   1.210  25.566  0.00  0.00    -0.278 NA
ATOM      6  N   UNL     1      -0.654   4.905  25.522  0.00  0.00    -0.347 N 
ATOM      7  N   UNL     1      -2.681   4.956  24.578  0.00  0.00    -0.240 NA
ATOM      9  C   UNL     1      -2.099   1.190  24.413  0.00  0.00    +0.150 C 
ATOM     10  C   UNL     1      -3.011   2.449  24.348  0.00  0.00    +0.085 C 
ATOM     11  C   UNL     1      -0.249   2.376  25.604  0.00  0.00    +0.140 C 
ATOM     12  C   UNL     1      -1.014   3.608  25.311  0.00  0.00    +0.053 A 
ATOM     13  C   UNL     1      -2.256   3.666  24.728  0.00  0.00    +0.065 A 
ATOM     17  C   UNL     1      -1.691   5.679  25.065  0.00  0.00    +0.197 A 
ATOM     29  H   UNL     1       0.209   5.237  25.933  0.00  0.00    +0.167 HD
ENDROOT
BRANCH   9  15
ATOM      3  O   UNL     1      -1.786   1.429  22.054  0.00  0.00    -0.274 OA
ATOM      8  N   UNL     1      -0.124   0.390  23.312  0.00  0.00    -0.310 N 
ATOM     15  C   UNL     1      -1.336   1.033  23.127  0.00  0.00    +0.231 C 
ATOM     30  H   UNL     1       0.166   0.120  24.246  0.00  0.00    +0.149 HD
BRANCH   8  18
ATOM     18  C   UNL     1       0.788   0.096  22.230  0.00  0.00    +0.139 C 
BRANCH  18  22
ATOM      1 CL   UNL     1       6.475  -0.315  24.136  0.00  0.00    -0.084 Cl
ATOM     22  C   UNL     1       2.208  -0.007  22.706  0.00  0.00    -0.030 A 
ATOM     24  C   UNL     1       3.082   1.067  22.531  0.00  0.00    +0.006 A 
ATOM     25  C   UNL     1       2.655  -1.176  23.321  0.00  0.00    +0.006 A 
ATOM     26  C   UNL     1       4.401   0.971  22.973  0.00  0.00    +0.020 A 
ATOM     27  C   UNL     1       3.974  -1.272  23.763  0.00  0.00    +0.020 A 
ATOM     28  C   UNL     1       4.848  -0.199  23.588  0.00  0.00    +0.041 A 
ENDBRANCH  18  22
ENDBRANCH   8  18
ENDBRANCH   9  15
BRANCH   5  14
ATOM     14  C   UNL     1      -0.433  -0.042  25.740  0.00  0.00    +0.160 C 
BRANCH  14  16
ATOM      2  O   UNL     1      -2.501  -0.983  24.875  0.00  0.00    -0.461 OA
ATOM     16  C   UNL     1      -1.209  -1.221  25.225  0.00  0.00    +0.119 A 
ATOM     19  C   UNL     1      -0.888  -2.542  25.021  0.00  0.00    +0.046 A 
ATOM     20  C   UNL     1      -3.009  -2.167  24.442  0.00  0.00    +0.131 A 
ATOM     21  C   UNL     1      -2.056  -3.157  24.513  0.00  0.00    +0.047 A 
BRANCH  20  23
ATOM     23  C   UNL     1      -4.412  -2.151  24.006  0.00  0.00    +0.230 C 
BRANCH  23   4
ATOM      4  O   UNL     1      -4.958  -0.836  24.141  0.00  0.00    -0.387 OA
ATOM     31  H   UNL     1      -4.206  -0.224  24.211  0.00  0.00    +0.210 HD
ENDBRANCH  23   4
ENDBRANCH  20  23
ENDBRANCH  14  16
ENDBRANCH   5  14
TORSDOF 7
ENDMDL
MODEL 10
REMARK VINA RESULT:       0.7      3.689      6.823
REMARK  Name = 26745437
REMARK  7 active torsions:
REMARK  status: ('A' for Active; 'I' for Inactive)
REMARK    1  A    between atoms: O_4  and  C_23
REMARK    2  A    between atoms: N_5  and  C_14
REMARK    3  A    between atoms: N_8  and  C_18
REMARK    4  A    between atoms: C_9  and  C_15
REMARK    5  A    between atoms: C_14  and  C_16
REMARK    6  A    between atoms: C_18  and  C_22
REMARK    7  A    between atoms: C_20  and  C_23
REMARK                            x       y       z     vdW  Elec       q    Type
REMARK                         _______ _______ _______ _____ _____    ______ ____
ROOT
ATOM      5  N   UNL     1       0.149   0.139  25.204  0.00  0.00    -0.278 NA
ATOM      6  N   UNL     1       1.240  -0.884  21.787  0.00  0.00    -0.347 N 
ATOM      7  N   UNL     1       2.763   0.737  22.023  0.00  0.00    -0.240 NA
ATOM      9  C   UNL     1       0.641   1.536  25.089  0.00  0.00    +0.150 C 
ATOM     10  C   UNL     1       1.940   1.657  24.242  0.00  0.00    +0.085 C 
ATOM     11  C   UNL     1      -0.145  -0.524  23.913  0.00  0.00    +0.140 C 
ATOM     12  C   UNL     1       0.954  -0.252  22.959  0.00  0.00    +0.053 A 
ATOM     13  C   UNL     1       1.897   0.739  23.079  0.00  0.00    +0.065 A 
ATOM     17  C   UNL     1       2.339  -0.252  21.260  0.00  0.00    +0.197 A 
ATOM     29  H   UNL     1       0.742  -1.664  21.379  0.00  0.00    +0.167 HD
ENDROOT
BRANCH   9  15
ATOM      3  O   UNL     1      -0.892   2.243  23.395  0.00  0.00    -0.274 OA
ATOM      8  N   UNL     1      -0.802   3.427  25.398  0.00  0.00    -0.310 N 
ATOM     15  C   UNL     1      -0.435   2.420  24.521  0.00  0.00    +0.231 C 
ATOM     30  H   UNL     1      -0.377   3.474  26.319  0.00  0.00    +0.149 HD
BRANCH   8  18
ATOM     18  C   UNL     1      -1.800   4.424  25.083  0.00  0.00    +0.139 C 
BRANCH  18  22
ATOM      1 CL   UNL     1      -7.298   2.035  24.627  0.00  0.00    -0.084 Cl
ATOM     22  C   UNL     1      -3.173   3.827  24.970  0.00  0.00    -0.030 A 
ATOM     24  C   UNL     1      -3.649   3.404  23.728  0.00  0.00    +0.006 A 
ATOM     25  C   UNL     1      -3.974   3.699  26.105  0.00  0.00    +0.006 A 
ATOM     26  C   UNL     1      -4.924   2.851  23.623  0.00  0.00    +0.020 A 
ATOM     27  C   UNL     1      -5.250   3.145  25.999  0.00  0.00    +0.020 A 
ATOM     28  C   UNL     1      -5.725   2.722  24.758  0.00  0.00    +0.041 A 
ENDBRANCH  18  22
ENDBRANCH   8  18
ENDBRANCH   9  15
BRANCH   5  14
ATOM     14  C   UNL     1      -0.959  -0.009  26.142  0.00  0.00    +0.160 C 
BRANCH  14  16
ATOM      2  O   UNL     1      -2.300  -1.779  25.154  0.00  0.00    -0.461 OA
ATOM     16  C   UNL     1      -2.218  -0.456  25.458  0.00  0.00    +0.119 A 
ATOM     19  C   UNL     1      -3.355   0.204  25.053  0.00  0.00    +0.046 A 
ATOM     20  C   UNL     1      -3.502  -1.964  24.549  0.00  0.00    +0.131 A 
ATOM     21  C   UNL     1      -4.189  -0.775  24.463  0.00  0.00    +0.047 A 
BRANCH  20  23
ATOM     23  C   UNL     1      -3.813  -3.337  24.127  0.00  0.00    +0.230 C 
BRANCH  23   4
ATOM      4  O   UNL     1      -4.942  -3.343  23.251  0.00  0.00    -0.387 OA
ATOM     31  H   UNL     1      -4.596  -3.317  22.342  0.00  0.00    +0.210 HD
ENDBRANCH  23   4
ENDBRANCH  20  23
ENDBRANCH  14  16
ENDBRANCH   5  14
TORSDOF 7
ENDMDL
