MODEL 1
REMARK VINA RESULT:      -1.0      0.000      0.000
REMARK  Name = 45360605
REMARK  20 active torsions:
REMARK  status: ('A' for Active; 'I' for Inactive)
REMARK    1  A    between atoms: S_1  and  N_12
REMARK    2  A    between atoms: S_1  and  C_27
REMARK    3  A    between atoms: O_4  and  C_17
REMARK    4  A    between atoms: O_5  and  C_18
REMARK    5  A    between atoms: O_6  and  C_19
REMARK    6  A    between atoms: O_7  and  C_20
REMARK    7  A    between atoms: N_12  and  C_21
REMARK    8  A    between atoms: N_12  and  C_22
REMARK    9  A    between atoms: N_13  and  C_30
REMARK   10  A    between atoms: N_14  and  C_31
REMARK   11  A    between atoms: C_15  and  C_21
REMARK   12  A    between atoms: C_16  and  C_22
REMARK   13  A    between atoms: C_23  and  C_25
REMARK   14  A    between atoms: C_24  and  C_26
REMARK   15  A    between atoms: C_25  and  C_28
REMARK   16  A    between atoms: C_26  and  C_29
REMARK   17  A    between atoms: C_30  and  C_32
REMARK   18  A    between atoms: C_30  and  C_33
REMARK   19  A    between atoms: C_31  and  C_34
REMARK   20  A    between atoms: C_31  and  C_35
REMARK                            x       y       z     vdW  Elec       q    Type
REMARK                         _______ _______ _______ _____ _____    ______ ____
ROOT
ATOM     12  N   UNL     1      -4.616   1.774  24.546  0.00  0.00    -0.176 NA
ENDROOT
BRANCH  12   1
ATOM      1  S   UNL     1      -6.128   2.260  25.213  0.00  0.00    +0.029 S 
ATOM      8  O   UNL     1      -6.045   3.650  25.622  0.00  0.00    -0.158 OA
ATOM      9  O   UNL     1      -7.208   1.817  24.351  0.00  0.00    -0.158 OA
ATOM     27  C   UNL     1      -6.186   1.272  26.692  0.00  0.00    +0.215 C 
ENDBRANCH  12   1
BRANCH  12  21
ATOM     21  C   UNL     1      -3.805   2.788  23.848  0.00  0.00    +0.143 C 
BRANCH  21  15
ATOM      2  O   UNL     1      -2.755   3.137  25.976  0.00  0.00    -0.366 OA
ATOM     15  C   UNL     1      -3.327   3.834  24.846  0.00  0.00    +0.165 C 
ATOM     17  C   UNL     1      -2.227   4.731  24.291  0.00  0.00    +0.175 C 
ATOM     19  C   UNL     1      -0.976   3.966  24.670  0.00  0.00    +0.175 C 
ATOM     23  C   UNL     1      -1.348   3.432  26.043  0.00  0.00    +0.158 C 
BRANCH  17   4
ATOM      4  O   UNL     1      -2.277   5.975  24.990  0.00  0.00    -0.387 OA
ATOM     36  H   UNL     1      -3.092   5.980  25.520  0.00  0.00    +0.210 HD
ENDBRANCH  17   4
BRANCH  19   6
ATOM      6  O   UNL     1       0.182   4.772  24.710  0.00  0.00    -0.387 OA
ATOM     38  H   UNL     1       0.892   4.244  25.112  0.00  0.00    +0.210 HD
ENDBRANCH  19   6
BRANCH  23  25
ATOM     25  C   UNL     1      -0.580   2.181  26.430  0.00  0.00    +0.130 C 
BRANCH  25  28
ATOM     10  O   UNL     1       1.616   3.097  26.862  0.00  0.00    -0.276 OA
ATOM     13  N   UNL     1       0.495   1.990  28.571  0.00  0.00    -0.313 N 
ATOM     28  C   UNL     1       0.638   2.487  27.283  0.00  0.00    +0.216 C 
ATOM     40  H   UNL     1      -0.387   1.565  28.840  0.00  0.00    +0.149 HD
BRANCH  13  30
ATOM     30  C   UNL     1       1.509   2.139  29.590  0.00  0.00    +0.067 C 
ATOM     32  C   UNL     1       2.645   3.023  29.089  0.00  0.00    +0.027 C 
ATOM     33  C   UNL     1       0.897   2.699  30.867  0.00  0.00    +0.027 C 
ENDBRANCH  13  30
ENDBRANCH  25  28
ENDBRANCH  23  25
ENDBRANCH  21  15
ENDBRANCH  12  21
BRANCH  12  22
ATOM     22  C   UNL     1      -3.786   0.832  25.344  0.00  0.00    +0.143 C 
BRANCH  22  16
ATOM      3  O   UNL     1      -2.364   0.169  23.529  0.00  0.00    -0.366 OA
ATOM     16  C   UNL     1      -3.343  -0.332  24.467  0.00  0.00    +0.165 C 
ATOM     18  C   UNL     1      -2.658  -1.443  25.253  0.00  0.00    +0.175 C 
ATOM     20  C   UNL     1      -1.207  -1.010  25.211  0.00  0.00    +0.175 C 
ATOM     24  C   UNL     1      -1.095  -0.453  23.803  0.00  0.00    +0.158 C 
BRANCH  18   5
ATOM      5  O   UNL     1      -2.830  -2.665  24.534  0.00  0.00    -0.387 OA
ATOM     37  H   UNL     1      -2.190  -3.305  24.892  0.00  0.00    +0.210 HD
ENDBRANCH  18   5
BRANCH  20   7
ATOM      7  O   UNL     1      -0.300  -2.069  25.436  0.00  0.00    -0.387 OA
ATOM     39  H   UNL     1      -0.744  -2.893  25.175  0.00  0.00    +0.210 HD
ENDBRANCH  20   7
BRANCH  24  26
ATOM     26  C   UNL     1       0.018   0.566  23.645  0.00  0.00    +0.130 C 
BRANCH  26  29
ATOM     11  O   UNL     1       1.034  -0.377  21.662  0.00  0.00    -0.276 OA
ATOM     14  N   UNL     1       2.372   0.106  23.500  0.00  0.00    -0.313 N 
ATOM     29  C   UNL     1       1.172   0.044  22.807  0.00  0.00    +0.216 C 
ATOM     41  H   UNL     1       2.365   0.418  24.466  0.00  0.00    +0.149 HD
BRANCH  14  31
ATOM     31  C   UNL     1       3.630  -0.329  22.938  0.00  0.00    +0.067 C 
ATOM     34  C   UNL     1       4.571   0.855  22.752  0.00  0.00    +0.027 C 
ATOM     35  C   UNL     1       4.260  -1.402  23.818  0.00  0.00    +0.027 C 
ENDBRANCH  14  31
ENDBRANCH  26  29
ENDBRANCH  24  26
ENDBRANCH  22  16
ENDBRANCH  12  22
TORSDOF 15
ENDMDL
MODEL 2
REMARK VINA RESULT:      -0.7      2.315      6.102
REMARK  Name = 45360605
REMARK  20 active torsions:
REMARK  status: ('A' for Active; 'I' for Inactive)
REMARK    1  A    between atoms: S_1  and  N_12
REMARK    2  A    between atoms: S_1  and  C_27
REMARK    3  A    between atoms: O_4  and  C_17
REMARK    4  A    between atoms: O_5  and  C_18
REMARK    5  A    between atoms: O_6  and  C_19
REMARK    6  A    between atoms: O_7  and  C_20
REMARK    7  A    between atoms: N_12  and  C_21
REMARK    8  A    between atoms: N_12  and  C_22
REMARK    9  A    between atoms: N_13  and  C_30
REMARK   10  A    between atoms: N_14  and  C_31
REMARK   11  A    between atoms: C_15  and  C_21
REMARK   12  A    between atoms: C_16  and  C_22
REMARK   13  A    between atoms: C_23  and  C_25
REMARK   14  A    between atoms: C_24  and  C_26
REMARK   15  A    between atoms: C_25  and  C_28
REMARK   16  A    between atoms: C_26  and  C_29
REMARK   17  A    between atoms: C_30  and  C_32
REMARK   18  A    between atoms: C_30  and  C_33
REMARK   19  A    between atoms: C_31  and  C_34
REMARK   20  A    between atoms: C_31  and  C_35
REMARK                            x       y       z     vdW  Elec       q    Type
REMARK                         _______ _______ _______ _____ _____    ______ ____
ROOT
ATOM     12  N   UNL     1      -1.594   3.340  25.572  0.00  0.00    -0.176 NA
ENDROOT
BRANCH  12   1
ATOM      1  S   UNL     1      -0.718   4.686  24.949  0.00  0.00    +0.029 S 
ATOM      8  O   UNL     1      -1.549   5.872  25.023  0.00  0.00    -0.158 OA
ATOM      9  O   UNL     1       0.622   4.698  25.507  0.00  0.00    -0.158 OA
ATOM     27  C   UNL     1      -0.577   4.240  23.232  0.00  0.00    +0.215 C 
ENDBRANCH  12   1
BRANCH  12  21
ATOM     21  C   UNL     1      -0.833   2.155  26.008  0.00  0.00    +0.143 C 
BRANCH  21  15
ATOM      2  O   UNL     1      -1.382   0.700  24.182  0.00  0.00    -0.366 OA
ATOM     15  C   UNL     1      -1.581   0.893  25.601  0.00  0.00    +0.165 C 
ATOM     17  C   UNL     1      -1.050  -0.363  26.284  0.00  0.00    +0.175 C 
ATOM     19  C   UNL     1       0.019  -0.821  25.313  0.00  0.00    +0.175 C 
ATOM     23  C   UNL     1      -0.630  -0.509  23.975  0.00  0.00    +0.158 C 
BRANCH  17   4
ATOM      4  O   UNL     1      -2.110  -1.317  26.341  0.00  0.00    -0.387 OA
ATOM     36  H   UNL     1      -2.168  -1.741  25.468  0.00  0.00    +0.210 HD
ENDBRANCH  17   4
BRANCH  19   6
ATOM      6  O   UNL     1       0.339  -2.190  25.440  0.00  0.00    -0.387 OA
ATOM     38  H   UNL     1       0.388  -2.563  24.543  0.00  0.00    +0.210 HD
ENDBRANCH  19   6
BRANCH  23  25
ATOM     25  C   UNL     1       0.372  -0.302  22.854  0.00  0.00    +0.130 C 
BRANCH  25  28
ATOM     10  O   UNL     1       1.617   1.557  23.772  0.00  0.00    -0.276 OA
ATOM     13  N   UNL     1       2.754  -0.375  23.162  0.00  0.00    -0.313 N 
ATOM     28  C   UNL     1       1.626   0.416  23.319  0.00  0.00    +0.216 C 
ATOM     40  H   UNL     1       2.644  -1.334  22.846  0.00  0.00    +0.149 HD
BRANCH  13  30
ATOM     30  C   UNL     1       4.083   0.065  23.523  0.00  0.00    +0.067 C 
ATOM     32  C   UNL     1       4.953  -1.124  23.911  0.00  0.00    +0.027 C 
ATOM     33  C   UNL     1       4.707   0.855  22.380  0.00  0.00    +0.027 C 
ENDBRANCH  13  30
ENDBRANCH  25  28
ENDBRANCH  23  25
ENDBRANCH  21  15
ENDBRANCH  12  21
BRANCH  12  22
ATOM     22  C   UNL     1      -2.753   3.629  26.458  0.00  0.00    +0.143 C 
BRANCH  22  16
ATOM      3  O   UNL     1      -3.805   3.418  24.311  0.00  0.00    -0.366 OA
ATOM     16  C   UNL     1      -3.958   4.025  25.614  0.00  0.00    +0.165 C 
ATOM     18  C   UNL     1      -5.277   3.509  26.177  0.00  0.00    +0.175 C 
ATOM     20  C   UNL     1      -5.398   2.156  25.507  0.00  0.00    +0.175 C 
ATOM     24  C   UNL     1      -4.856   2.454  24.119  0.00  0.00    +0.158 C 
BRANCH  18   5
ATOM      5  O   UNL     1      -6.319   4.376  25.732  0.00  0.00    -0.387 OA
ATOM     37  H   UNL     1      -6.121   5.267  26.071  0.00  0.00    +0.210 HD
ENDBRANCH  18   5
BRANCH  20   7
ATOM      7  O   UNL     1      -6.722   1.669  25.466  0.00  0.00    -0.387 OA
ATOM     39  H   UNL     1      -6.694   0.729  25.711  0.00  0.00    +0.210 HD
ENDBRANCH  20   7
BRANCH  24  26
ATOM     26  C   UNL     1      -4.304   1.230  23.413  0.00  0.00    +0.130 C 
BRANCH  26  29
ATOM     11  O   UNL     1      -4.633   0.011  25.476  0.00  0.00    -0.276 OA
ATOM     14  N   UNL     1      -4.008  -1.150  23.563  0.00  0.00    -0.313 N 
ATOM     29  C   UNL     1      -4.342  -0.013  24.284  0.00  0.00    +0.216 C 
ATOM     41  H   UNL     1      -3.725  -1.050  22.593  0.00  0.00    +0.149 HD
BRANCH  14  31
ATOM     31  C   UNL     1      -3.963  -2.471  24.148  0.00  0.00    +0.067 C 
ATOM     34  C   UNL     1      -5.031  -3.365  23.531  0.00  0.00    +0.027 C 
ATOM     35  C   UNL     1      -2.575  -3.075  23.985  0.00  0.00    +0.027 C 
ENDBRANCH  14  31
ENDBRANCH  26  29
ENDBRANCH  24  26
ENDBRANCH  22  16
ENDBRANCH  12  22
TORSDOF 15
ENDMDL
MODEL 3
REMARK VINA RESULT:      -0.5      2.529      5.781
REMARK  Name = 45360605
REMARK  20 active torsions:
REMARK  status: ('A' for Active; 'I' for Inactive)
REMARK    1  A    between atoms: S_1  and  N_12
REMARK    2  A    between atoms: S_1  and  C_27
REMARK    3  A    between atoms: O_4  and  C_17
REMARK    4  A    between atoms: O_5  and  C_18
REMARK    5  A    between atoms: O_6  and  C_19
REMARK    6  A    between atoms: O_7  and  C_20
REMARK    7  A    between atoms: N_12  and  C_21
REMARK    8  A    between atoms: N_12  and  C_22
REMARK    9  A    between atoms: N_13  and  C_30
REMARK   10  A    between atoms: N_14  and  C_31
REMARK   11  A    between atoms: C_15  and  C_21
REMARK   12  A    between atoms: C_16  and  C_22
REMARK   13  A    between atoms: C_23  and  C_25
REMARK   14  A    between atoms: C_24  and  C_26
REMARK   15  A    between atoms: C_25  and  C_28
REMARK   16  A    between atoms: C_26  and  C_29
REMARK   17  A    between atoms: C_30  and  C_32
REMARK   18  A    between atoms: C_30  and  C_33
REMARK   19  A    between atoms: C_31  and  C_34
REMARK   20  A    between atoms: C_31  and  C_35
REMARK                            x       y       z     vdW  Elec       q    Type
REMARK                         _______ _______ _______ _____ _____    ______ ____
ROOT
ATOM     12  N   UNL     1      -3.232  -0.545  24.531  0.00  0.00    -0.176 NA
ENDROOT
BRANCH  12   1
ATOM      1  S   UNL     1      -3.558  -2.235  24.597  0.00  0.00    +0.029 S 
ATOM      8  O   UNL     1      -3.594  -2.660  25.983  0.00  0.00    -0.158 OA
ATOM      9  O   UNL     1      -4.659  -2.556  23.706  0.00  0.00    -0.158 OA
ATOM     27  C   UNL     1      -2.074  -2.900  23.873  0.00  0.00    +0.215 C 
ENDBRANCH  12   1
BRANCH  12  21
ATOM     21  C   UNL     1      -1.985  -0.100  23.881  0.00  0.00    +0.143 C 
BRANCH  21  15
ATOM      2  O   UNL     1       0.390  -0.041  24.211  0.00  0.00    -0.366 OA
ATOM     15  C   UNL     1      -0.872  -0.023  24.917  0.00  0.00    +0.165 C 
ATOM     17  C   UNL     1      -0.895   1.270  25.724  0.00  0.00    +0.175 C 
ATOM     19  C   UNL     1      -0.022   2.180  24.886  0.00  0.00    +0.175 C 
ATOM     23  C   UNL     1       1.055   1.219  24.413  0.00  0.00    +0.158 C 
BRANCH  17   4
ATOM      4  O   UNL     1      -0.278   1.015  26.986  0.00  0.00    -0.387 OA
ATOM     36  H   UNL     1       0.615   1.399  26.957  0.00  0.00    +0.210 HD
ENDBRANCH  17   4
BRANCH  19   6
ATOM      6  O   UNL     1       0.517   3.263  25.613  0.00  0.00    -0.387 OA
ATOM     38  H   UNL     1       1.315   3.561  25.145  0.00  0.00    +0.210 HD
ENDBRANCH  19   6
BRANCH  23  25
ATOM     25  C   UNL     1       1.727   1.655  23.123  0.00  0.00    +0.130 C 
BRANCH  25  28
ATOM     10  O   UNL     1       2.653  -0.031  21.656  0.00  0.00    -0.276 OA
ATOM     13  N   UNL     1       3.888   0.673  23.495  0.00  0.00    -0.313 N 
ATOM     28  C   UNL     1       2.784   0.671  22.655  0.00  0.00    +0.216 C 
ATOM     40  H   UNL     1       3.929   1.346  24.254  0.00  0.00    +0.149 HD
BRANCH  13  30
ATOM     30  C   UNL     1       5.041  -0.172  23.283  0.00  0.00    +0.067 C 
ATOM     32  C   UNL     1       6.290   0.468  23.875  0.00  0.00    +0.027 C 
ATOM     33  C   UNL     1       4.798  -1.555  23.874  0.00  0.00    +0.027 C 
ENDBRANCH  13  30
ENDBRANCH  25  28
ENDBRANCH  23  25
ENDBRANCH  21  15
ENDBRANCH  12  21
BRANCH  12  22
ATOM     22  C   UNL     1      -4.376   0.363  24.248  0.00  0.00    +0.143 C 
BRANCH  22  16
ATOM      3  O   UNL     1      -3.942   1.579  26.272  0.00  0.00    -0.366 OA
ATOM     16  C   UNL     1      -4.974   0.860  25.559  0.00  0.00    +0.165 C 
ATOM     18  C   UNL     1      -6.121   1.843  25.356  0.00  0.00    +0.175 C 
ATOM     20  C   UNL     1      -5.395   3.172  25.317  0.00  0.00    +0.175 C 
ATOM     24  C   UNL     1      -4.322   2.963  26.371  0.00  0.00    +0.158 C 
BRANCH  18   5
ATOM      5  O   UNL     1      -6.969   1.776  26.502  0.00  0.00    -0.387 OA
ATOM     37  H   UNL     1      -6.402   1.854  27.288  0.00  0.00    +0.210 HD
ENDBRANCH  18   5
BRANCH  20   7
ATOM      7  O   UNL     1      -6.226   4.272  25.617  0.00  0.00    -0.387 OA
ATOM     39  H   UNL     1      -5.721   5.080  25.425  0.00  0.00    +0.210 HD
ENDBRANCH  20   7
BRANCH  24  26
ATOM     26  C   UNL     1      -3.102   3.844  26.171  0.00  0.00    +0.130 C 
BRANCH  26  29
ATOM     11  O   UNL     1      -2.550   5.342  24.354  0.00  0.00    -0.276 OA
ATOM     14  N   UNL     1      -3.118   3.140  23.874  0.00  0.00    -0.313 N 
ATOM     29  C   UNL     1      -2.886   4.218  24.716  0.00  0.00    +0.216 C 
ATOM     41  H   UNL     1      -3.451   2.268  24.274  0.00  0.00    +0.149 HD
BRANCH  14  31
ATOM     31  C   UNL     1      -2.987   3.219  22.437  0.00  0.00    +0.067 C 
ATOM     34  C   UNL     1      -2.347   1.950  21.888  0.00  0.00    +0.027 C 
ATOM     35  C   UNL     1      -4.345   3.475  21.795  0.00  0.00    +0.027 C 
ENDBRANCH  14  31
ENDBRANCH  26  29
ENDBRANCH  24  26
ENDBRANCH  22  16
ENDBRANCH  12  22
TORSDOF 15
ENDMDL
MODEL 4
REMARK VINA RESULT:      -0.2      1.091      5.556
REMARK  Name = 45360605
REMARK  20 active torsions:
REMARK  status: ('A' for Active; 'I' for Inactive)
REMARK    1  A    between atoms: S_1  and  N_12
REMARK    2  A    between atoms: S_1  and  C_27
REMARK    3  A    between atoms: O_4  and  C_17
REMARK    4  A    between atoms: O_5  and  C_18
REMARK    5  A    between atoms: O_6  and  C_19
REMARK    6  A    between atoms: O_7  and  C_20
REMARK    7  A    between atoms: N_12  and  C_21
REMARK    8  A    between atoms: N_12  and  C_22
REMARK    9  A    between atoms: N_13  and  C_30
REMARK   10  A    between atoms: N_14  and  C_31
REMARK   11  A    between atoms: C_15  and  C_21
REMARK   12  A    between atoms: C_16  and  C_22
REMARK   13  A    between atoms: C_23  and  C_25
REMARK   14  A    between atoms: C_24  and  C_26
REMARK   15  A    between atoms: C_25  and  C_28
REMARK   16  A    between atoms: C_26  and  C_29
REMARK   17  A    between atoms: C_30  and  C_32
REMARK   18  A    between atoms: C_30  and  C_33
REMARK   19  A    between atoms: C_31  and  C_34
REMARK   20  A    between atoms: C_31  and  C_35
REMARK                            x       y       z     vdW  Elec       q    Type
REMARK                         _______ _______ _______ _____ _____    ______ ____
ROOT
ATOM     12  N   UNL     1      -4.238   2.242  25.267  0.00  0.00    -0.176 NA
ENDROOT
BRANCH  12   1
ATOM      1  S   UNL     1      -5.893   2.540  25.639  0.00  0.00    +0.029 S 
ATOM      8  O   UNL     1      -6.727   1.948  24.610  0.00  0.00    -0.158 OA
ATOM      9  O   UNL     1      -6.141   2.245  27.038  0.00  0.00    -0.158 OA
ATOM     27  C   UNL     1      -5.978   4.307  25.443  0.00  0.00    +0.215 C 
ENDBRANCH  12   1
BRANCH  12  21
ATOM     21  C   UNL     1      -3.682   0.913  25.582  0.00  0.00    +0.143 C 
BRANCH  21  15
ATOM      2  O   UNL     1      -2.144   0.281  23.852  0.00  0.00    -0.366 OA
ATOM     15  C   UNL     1      -3.510   0.116  24.296  0.00  0.00    +0.165 C 
ATOM     17  C   UNL     1      -3.721  -1.382  24.489  0.00  0.00    +0.175 C 
ATOM     19  C   UNL     1      -2.323  -1.855  24.833  0.00  0.00    +0.175 C 
ATOM     23  C   UNL     1      -1.475  -0.990  23.916  0.00  0.00    +0.158 C 
BRANCH  17   4
ATOM      4  O   UNL     1      -4.138  -1.935  23.241  0.00  0.00    -0.387 OA
ATOM     36  H   UNL     1      -3.886  -2.873  23.238  0.00  0.00    +0.210 HD
ENDBRANCH  17   4
BRANCH  19   6
ATOM      6  O   UNL     1      -2.125  -3.232  24.596  0.00  0.00    -0.387 OA
ATOM     38  H   UNL     1      -1.172  -3.372  24.469  0.00  0.00    +0.210 HD
ENDBRANCH  19   6
BRANCH  23  25
ATOM     25  C   UNL     1      -0.055  -0.796  24.416  0.00  0.00    +0.130 C 
BRANCH  25  28
ATOM     10  O   UNL     1       0.571  -0.285  22.137  0.00  0.00    -0.276 OA
ATOM     13  N   UNL     1       2.234  -0.503  23.745  0.00  0.00    -0.313 N 
ATOM     28  C   UNL     1       0.923  -0.498  23.293  0.00  0.00    +0.216 C 
ATOM     40  H   UNL     1       2.413  -0.617  24.739  0.00  0.00    +0.149 HD
BRANCH  13  30
ATOM     30  C   UNL     1       3.366  -0.251  22.883  0.00  0.00    +0.067 C 
ATOM     32  C   UNL     1       3.529   1.244  22.638  0.00  0.00    +0.027 C 
ATOM     33  C   UNL     1       4.631  -0.853  23.481  0.00  0.00    +0.027 C 
ENDBRANCH  13  30
ENDBRANCH  25  28
ENDBRANCH  23  25
ENDBRANCH  21  15
ENDBRANCH  12  21
BRANCH  12  22
ATOM     22  C   UNL     1      -3.714   2.789  23.987  0.00  0.00    +0.143 C 
BRANCH  22  16
ATOM      3  O   UNL     1      -2.293   3.743  25.669  0.00  0.00    -0.366 OA
ATOM     16  C   UNL     1      -2.661   3.851  24.275  0.00  0.00    +0.165 C 
ATOM     18  C   UNL     1      -1.379   3.652  23.475  0.00  0.00    +0.175 C 
ATOM     20  C   UNL     1      -0.568   2.763  24.395  0.00  0.00    +0.175 C 
ATOM     24  C   UNL     1      -0.916   3.337  25.758  0.00  0.00    +0.158 C 
BRANCH  18   5
ATOM      5  O   UNL     1      -0.745   4.922  23.330  0.00  0.00    -0.387 OA
ATOM     37  H   UNL     1      -1.078   5.496  24.042  0.00  0.00    +0.210 HD
ENDBRANCH  18   5
BRANCH  20   7
ATOM      7  O   UNL     1       0.819   2.809  24.139  0.00  0.00    -0.387 OA
ATOM     39  H   UNL     1       1.203   1.976  24.460  0.00  0.00    +0.210 HD
ENDBRANCH  20   7
BRANCH  24  26
ATOM     26  C   UNL     1      -0.748   2.342  26.891  0.00  0.00    +0.130 C 
BRANCH  26  29
ATOM     11  O   UNL     1       1.624   2.808  26.965  0.00  0.00    -0.276 OA
ATOM     14  N   UNL     1       0.557   2.059  28.889  0.00  0.00    -0.313 N 
ATOM     29  C   UNL     1       0.614   2.439  27.555  0.00  0.00    +0.216 C 
ATOM     41  H   UNL     1      -0.321   1.713  29.263  0.00  0.00    +0.149 HD
BRANCH  14  31
ATOM     31  C   UNL     1       1.713   2.054  29.757  0.00  0.00    +0.067 C 
ATOM     34  C   UNL     1       2.704   3.131  29.332  0.00  0.00    +0.027 C 
ATOM     35  C   UNL     1       1.285   2.239  31.208  0.00  0.00    +0.027 C 
ENDBRANCH  14  31
ENDBRANCH  26  29
ENDBRANCH  24  26
ENDBRANCH  22  16
ENDBRANCH  12  22
TORSDOF 15
ENDMDL
MODEL 5
REMARK VINA RESULT:      -0.0      2.366      4.725
REMARK  Name = 45360605
REMARK  20 active torsions:
REMARK  status: ('A' for Active; 'I' for Inactive)
REMARK    1  A    between atoms: S_1  and  N_12
REMARK    2  A    between atoms: S_1  and  C_27
REMARK    3  A    between atoms: O_4  and  C_17
REMARK    4  A    between atoms: O_5  and  C_18
REMARK    5  A    between atoms: O_6  and  C_19
REMARK    6  A    between atoms: O_7  and  C_20
REMARK    7  A    between atoms: N_12  and  C_21
REMARK    8  A    between atoms: N_12  and  C_22
REMARK    9  A    between atoms: N_13  and  C_30
REMARK   10  A    between atoms: N_14  and  C_31
REMARK   11  A    between atoms: C_15  and  C_21
REMARK   12  A    between atoms: C_16  and  C_22
REMARK   13  A    between atoms: C_23  and  C_25
REMARK   14  A    between atoms: C_24  and  C_26
REMARK   15  A    between atoms: C_25  and  C_28
REMARK   16  A    between atoms: C_26  and  C_29
REMARK   17  A    between atoms: C_30  and  C_32
REMARK   18  A    between atoms: C_30  and  C_33
REMARK   19  A    between atoms: C_31  and  C_34
REMARK   20  A    between atoms: C_31  and  C_35
REMARK                            x       y       z     vdW  Elec       q    Type
REMARK                         _______ _______ _______ _____ _____    ______ ____
ROOT
ATOM     12  N   UNL     1      -2.876  -0.575  24.760  0.00  0.00    -0.176 NA
ENDROOT
BRANCH  12   1
ATOM      1  S   UNL     1      -3.073  -2.162  24.121  0.00  0.00    +0.029 S 
ATOM      8  O   UNL     1      -4.276  -2.205  23.313  0.00  0.00    -0.158 OA
ATOM      9  O   UNL     1      -1.811  -2.630  23.575  0.00  0.00    -0.158 OA
ATOM     27  C   UNL     1      -3.391  -3.094  25.603  0.00  0.00    +0.215 C 
ENDBRANCH  12   1
BRANCH  12  21
ATOM     21  C   UNL     1      -3.826   0.469  24.336  0.00  0.00    +0.143 C 
BRANCH  21  15
ATOM      2  O   UNL     1      -3.826   1.840  26.305  0.00  0.00    -0.366 OA
ATOM     15  C   UNL     1      -4.644   0.930  25.535  0.00  0.00    +0.165 C 
ATOM     17  C   UNL     1      -5.897   1.704  25.142  0.00  0.00    +0.175 C 
ATOM     19  C   UNL     1      -5.384   3.128  25.091  0.00  0.00    +0.175 C 
ATOM     23  C   UNL     1      -4.423   3.149  26.268  0.00  0.00    +0.158 C 
BRANCH  17   4
ATOM      4  O   UNL     1      -6.854   1.559  26.191  0.00  0.00    -0.387 OA
ATOM     36  H   UNL     1      -7.055   2.449  26.527  0.00  0.00    +0.210 HD
ENDBRANCH  17   4
BRANCH  19   6
ATOM      6  O   UNL     1      -6.404   4.095  25.222  0.00  0.00    -0.387 OA
ATOM     38  H   UNL     1      -6.756   4.027  26.126  0.00  0.00    +0.210 HD
ENDBRANCH  19   6
BRANCH  23  25
ATOM     25  C   UNL     1      -3.339   4.203  26.141  0.00  0.00    +0.130 C 
BRANCH  25  28
ATOM     10  O   UNL     1      -1.655   4.805  24.513  0.00  0.00    -0.276 OA
ATOM     13  N   UNL     1      -3.476   3.529  23.839  0.00  0.00    -0.313 N 
ATOM     28  C   UNL     1      -2.710   4.228  24.760  0.00  0.00    +0.216 C 
ATOM     40  H   UNL     1      -4.296   3.023  24.162  0.00  0.00    +0.149 HD
BRANCH  13  30
ATOM     30  C   UNL     1      -3.110   3.396  22.447  0.00  0.00    +0.067 C 
ATOM     32  C   UNL     1      -2.617   1.984  22.156  0.00  0.00    +0.027 C 
ATOM     33  C   UNL     1      -4.287   3.764  21.553  0.00  0.00    +0.027 C 
ENDBRANCH  13  30
ENDBRANCH  25  28
ENDBRANCH  23  25
ENDBRANCH  21  15
ENDBRANCH  12  21
BRANCH  12  22
ATOM     22  C   UNL     1      -2.502  -0.456  26.195  0.00  0.00    +0.143 C 
BRANCH  22  16
ATOM      3  O   UNL     1      -0.291  -0.723  25.300  0.00  0.00    -0.366 OA
ATOM     16  C   UNL     1      -1.047  -0.021  26.312  0.00  0.00    +0.165 C 
ATOM     18  C   UNL     1      -0.846   1.466  26.044  0.00  0.00    +0.175 C 
ATOM     20  C   UNL     1      -0.611   1.488  24.547  0.00  0.00    +0.175 C 
ATOM     24  C   UNL     1       0.218   0.230  24.351  0.00  0.00    +0.158 C 
BRANCH  18   5
ATOM      5  O   UNL     1       0.330   1.887  26.734  0.00  0.00    -0.387 OA
ATOM     37  H   UNL     1       0.148   1.814  27.688  0.00  0.00    +0.210 HD
ENDBRANCH  18   5
BRANCH  20   7
ATOM      7  O   UNL     1       0.065   2.644  24.103  0.00  0.00    -0.387 OA
ATOM     39  H   UNL     1       0.966   2.612  24.465  0.00  0.00    +0.210 HD
ENDBRANCH  20   7
BRANCH  24  26
ATOM     26  C   UNL     1       0.122  -0.342  22.949  0.00  0.00    +0.130 C 
BRANCH  26  29
ATOM     11  O   UNL     1       1.568  -0.498  21.016  0.00  0.00    -0.276 OA
ATOM     14  N   UNL     1       2.513  -0.171  23.114  0.00  0.00    -0.313 N 
ATOM     29  C   UNL     1       1.459  -0.349  22.229  0.00  0.00    +0.216 C 
ATOM     41  H   UNL     1       2.315  -0.117  24.108  0.00  0.00    +0.149 HD
BRANCH  14  31
ATOM     31  C   UNL     1       3.897  -0.140  22.696  0.00  0.00    +0.067 C 
ATOM     34  C   UNL     1       4.350   1.295  22.459  0.00  0.00    +0.027 C 
ATOM     35  C   UNL     1       4.777  -0.834  23.727  0.00  0.00    +0.027 C 
ENDBRANCH  14  31
ENDBRANCH  26  29
ENDBRANCH  24  26
ENDBRANCH  22  16
ENDBRANCH  12  22
TORSDOF 15
ENDMDL
MODEL 6
REMARK VINA RESULT:       0.1      2.374      4.931
REMARK  Name = 45360605
REMARK  20 active torsions:
REMARK  status: ('A' for Active; 'I' for Inactive)
REMARK    1  A    between atoms: S_1  and  N_12
REMARK    2  A    between atoms: S_1  and  C_27
REMARK    3  A    between atoms: O_4  and  C_17
REMARK    4  A    between atoms: O_5  and  C_18
REMARK    5  A    between atoms: O_6  and  C_19
REMARK    6  A    between atoms: O_7  and  C_20
REMARK    7  A    between atoms: N_12  and  C_21
REMARK    8  A    between atoms: N_12  and  C_22
REMARK    9  A    between atoms: N_13  and  C_30
REMARK   10  A    between atoms: N_14  and  C_31
REMARK   11  A    between atoms: C_15  and  C_21
REMARK   12  A    between atoms: C_16  and  C_22
REMARK   13  A    between atoms: C_23  and  C_25
REMARK   14  A    between atoms: C_24  and  C_26
REMARK   15  A    between atoms: C_25  and  C_28
REMARK   16  A    between atoms: C_26  and  C_29
REMARK   17  A    between atoms: C_30  and  C_32
REMARK   18  A    between atoms: C_30  and  C_33
REMARK   19  A    between atoms: C_31  and  C_34
REMARK   20  A    between atoms: C_31  and  C_35
REMARK                            x       y       z     vdW  Elec       q    Type
REMARK                         _______ _______ _______ _____ _____    ______ ____
ROOT
ATOM     12  N   UNL     1      -1.452   3.701  25.911  0.00  0.00    -0.176 NA
ENDROOT
BRANCH  12   1
ATOM      1  S   UNL     1      -1.460   4.910  24.685  0.00  0.00    +0.029 S 
ATOM      8  O   UNL     1      -2.519   4.621  23.737  0.00  0.00    -0.158 OA
ATOM      9  O   UNL     1      -1.365   6.225  25.293  0.00  0.00    -0.158 OA
ATOM     27  C   UNL     1       0.089   4.585  23.870  0.00  0.00    +0.215 C 
ENDBRANCH  12   1
BRANCH  12  21
ATOM     21  C   UNL     1      -2.737   3.328  26.531  0.00  0.00    +0.143 C 
BRANCH  21  15
ATOM      2  O   UNL     1      -3.742   3.224  24.355  0.00  0.00    -0.366 OA
ATOM     15  C   UNL     1      -3.884   3.826  25.662  0.00  0.00    +0.165 C 
ATOM     17  C   UNL     1      -5.254   3.407  26.183  0.00  0.00    +0.175 C 
ATOM     19  C   UNL     1      -5.460   2.075  25.491  0.00  0.00    +0.175 C 
ATOM     23  C   UNL     1      -4.859   2.347  24.122  0.00  0.00    +0.158 C 
BRANCH  17   4
ATOM      4  O   UNL     1      -6.212   4.359  25.721  0.00  0.00    -0.387 OA
ATOM     36  H   UNL     1      -6.217   4.321  24.750  0.00  0.00    +0.210 HD
ENDBRANCH  17   4
BRANCH  19   6
ATOM      6  O   UNL     1      -6.816   1.693  25.407  0.00  0.00    -0.387 OA
ATOM     38  H   UNL     1      -7.256   2.001  26.218  0.00  0.00    +0.210 HD
ENDBRANCH  19   6
BRANCH  23  25
ATOM     25  C   UNL     1      -4.384   1.091  23.413  0.00  0.00    +0.130 C 
BRANCH  25  28
ATOM     10  O   UNL     1      -4.565  -0.049  25.539  0.00  0.00    -0.276 OA
ATOM     13  N   UNL     1      -4.010  -1.271  23.642  0.00  0.00    -0.313 N 
ATOM     28  C   UNL     1      -4.338  -0.115  24.334  0.00  0.00    +0.216 C 
ATOM     40  H   UNL     1      -3.915  -1.231  22.632  0.00  0.00    +0.149 HD
BRANCH  13  30
ATOM     30  C   UNL     1      -3.895  -2.564  24.277  0.00  0.00    +0.067 C 
ATOM     32  C   UNL     1      -4.784  -3.585  23.578  0.00  0.00    +0.027 C 
ATOM     33  C   UNL     1      -2.441  -3.018  24.293  0.00  0.00    +0.027 C 
ENDBRANCH  13  30
ENDBRANCH  25  28
ENDBRANCH  23  25
ENDBRANCH  21  15
ENDBRANCH  12  21
BRANCH  12  22
ATOM     22  C   UNL     1      -0.554   2.532  25.714  0.00  0.00    +0.143 C 
BRANCH  22  16
ATOM      3  O   UNL     1      -1.178   0.999  23.975  0.00  0.00    -0.366 OA
ATOM     16  C   UNL     1      -1.384   1.299  25.374  0.00  0.00    +0.165 C 
ATOM     18  C   UNL     1      -0.952   0.059  26.148  0.00  0.00    +0.175 C 
ATOM     20  C   UNL     1       0.096  -0.536  25.231  0.00  0.00    +0.175 C 
ATOM     24  C   UNL     1      -0.509  -0.269  23.863  0.00  0.00    +0.158 C 
BRANCH  18   5
ATOM      5  O   UNL     1      -2.077  -0.815  26.247  0.00  0.00    -0.387 OA
ATOM     37  H   UNL     1      -2.007  -1.283  27.097  0.00  0.00    +0.210 HD
ENDBRANCH  18   5
BRANCH  20   7
ATOM      7  O   UNL     1       0.318  -1.913  25.454  0.00  0.00    -0.387 OA
ATOM     39  H   UNL     1      -0.509  -2.379  25.243  0.00  0.00    +0.210 HD
ENDBRANCH  20   7
BRANCH  24  26
ATOM     26  C   UNL     1       0.522  -0.207  22.751  0.00  0.00    +0.130 C 
BRANCH  26  29
ATOM     11  O   UNL     1       1.932   1.594  23.538  0.00  0.00    -0.276 OA
ATOM     14  N   UNL     1       2.867  -0.503  23.181  0.00  0.00    -0.313 N 
ATOM     29  C   UNL     1       1.830   0.418  23.203  0.00  0.00    +0.216 C 
ATOM     41  H   UNL     1       2.686  -1.438  22.828  0.00  0.00    +0.149 HD
BRANCH  14  31
ATOM     31  C   UNL     1       4.222  -0.174  23.561  0.00  0.00    +0.067 C 
ATOM     34  C   UNL     1       4.992  -1.433  23.939  0.00  0.00    +0.027 C 
ATOM     35  C   UNL     1       4.918   0.582  22.436  0.00  0.00    +0.027 C 
ENDBRANCH  14  31
ENDBRANCH  26  29
ENDBRANCH  24  26
ENDBRANCH  22  16
ENDBRANCH  12  22
TORSDOF 15
ENDMDL
MODEL 7
REMARK VINA RESULT:       0.8      2.293      4.731
REMARK  Name = 45360605
REMARK  20 active torsions:
REMARK  status: ('A' for Active; 'I' for Inactive)
REMARK    1  A    between atoms: S_1  and  N_12
REMARK    2  A    between atoms: S_1  and  C_27
REMARK    3  A    between atoms: O_4  and  C_17
REMARK    4  A    between atoms: O_5  and  C_18
REMARK    5  A    between atoms: O_6  and  C_19
REMARK    6  A    between atoms: O_7  and  C_20
REMARK    7  A    between atoms: N_12  and  C_21
REMARK    8  A    between atoms: N_12  and  C_22
REMARK    9  A    between atoms: N_13  and  C_30
REMARK   10  A    between atoms: N_14  and  C_31
REMARK   11  A    between atoms: C_15  and  C_21
REMARK   12  A    between atoms: C_16  and  C_22
REMARK   13  A    between atoms: C_23  and  C_25
REMARK   14  A    between atoms: C_24  and  C_26
REMARK   15  A    between atoms: C_25  and  C_28
REMARK   16  A    between atoms: C_26  and  C_29
REMARK   17  A    between atoms: C_30  and  C_32
REMARK   18  A    between atoms: C_30  and  C_33
REMARK   19  A    between atoms: C_31  and  C_34
REMARK   20  A    between atoms: C_31  and  C_35
REMARK                            x       y       z     vdW  Elec       q    Type
REMARK                         _______ _______ _______ _____ _____    ______ ____
ROOT
ATOM     12  N   UNL     1      -1.862   2.311  24.793  0.00  0.00    -0.176 NA
ENDROOT
BRANCH  12   1
ATOM      1  S   UNL     1      -0.711   3.564  25.062  0.00  0.00    +0.029 S 
ATOM      8  O   UNL     1       0.065   3.766  23.853  0.00  0.00    -0.158 OA
ATOM      9  O   UNL     1      -1.357   4.690  25.711  0.00  0.00    -0.158 OA
ATOM     27  C   UNL     1       0.358   2.798  26.261  0.00  0.00    +0.215 C 
ENDBRANCH  12   1
BRANCH  12  21
ATOM     21  C   UNL     1      -2.465   2.195  23.453  0.00  0.00    +0.143 C 
BRANCH  21  15
ATOM      2  O   UNL     1      -4.863   2.121  23.477  0.00  0.00    -0.366 OA
ATOM     15  C   UNL     1      -3.739   3.027  23.394  0.00  0.00    +0.165 C 
ATOM     17  C   UNL     1      -3.877   3.991  24.567  0.00  0.00    +0.175 C 
ATOM     19  C   UNL     1      -4.613   3.145  25.586  0.00  0.00    +0.175 C 
ATOM     23  C   UNL     1      -5.576   2.372  24.701  0.00  0.00    +0.158 C 
BRANCH  17   4
ATOM      4  O   UNL     1      -4.694   5.084  24.147  0.00  0.00    -0.387 OA
ATOM     36  H   UNL     1      -4.225   5.904  24.377  0.00  0.00    +0.210 HD
ENDBRANCH  17   4
BRANCH  19   6
ATOM      6  O   UNL     1      -5.287   3.908  26.563  0.00  0.00    -0.387 OA
ATOM     38  H   UNL     1      -4.767   4.716  26.712  0.00  0.00    +0.210 HD
ENDBRANCH  19   6
BRANCH  23  25
ATOM     25  C   UNL     1      -6.028   1.056  25.309  0.00  0.00    +0.130 C 
BRANCH  25  28
ATOM     10  O   UNL     1      -4.105  -0.057  26.266  0.00  0.00    -0.276 OA
ATOM     13  N   UNL     1      -4.949  -0.800  24.231  0.00  0.00    -0.313 N 
ATOM     28  C   UNL     1      -4.918   0.021  25.349  0.00  0.00    +0.216 C 
ATOM     40  H   UNL     1      -5.710  -0.700  23.566  0.00  0.00    +0.149 HD
BRANCH  13  30
ATOM     30  C   UNL     1      -4.002  -1.871  24.014  0.00  0.00    +0.067 C 
ATOM     32  C   UNL     1      -3.624  -2.527  25.336  0.00  0.00    +0.027 C 
ATOM     33  C   UNL     1      -4.572  -2.889  23.035  0.00  0.00    +0.027 C 
ENDBRANCH  13  30
ENDBRANCH  25  28
ENDBRANCH  23  25
ENDBRANCH  21  15
ENDBRANCH  12  21
BRANCH  12  22
ATOM     22  C   UNL     1      -1.589   0.986  25.411  0.00  0.00    +0.143 C 
BRANCH  22  16
ATOM      3  O   UNL     1      -0.633   0.587  23.246  0.00  0.00    -0.366 OA
ATOM     16  C   UNL     1      -1.359  -0.052  24.320  0.00  0.00    +0.165 C 
ATOM     18  C   UNL     1      -0.500  -1.224  24.783  0.00  0.00    +0.175 C 
ATOM     20  C   UNL     1       0.897  -0.739  24.455  0.00  0.00    +0.175 C 
ATOM     24  C   UNL     1       0.668  -0.018  23.137  0.00  0.00    +0.158 C 
BRANCH  18   5
ATOM      5  O   UNL     1      -0.830  -2.358  23.982  0.00  0.00    -0.387 OA
ATOM     37  H   UNL     1      -1.585  -2.108  23.421  0.00  0.00    +0.210 HD
ENDBRANCH  18   5
BRANCH  20   7
ATOM      7  O   UNL     1       1.837  -1.784  24.331  0.00  0.00    -0.387 OA
ATOM     39  H   UNL     1       2.717  -1.407  24.499  0.00  0.00    +0.210 HD
ENDBRANCH  20   7
BRANCH  24  26
ATOM     26  C   UNL     1       1.706   1.050  22.847  0.00  0.00    +0.130 C 
BRANCH  26  29
ATOM     11  O   UNL     1       3.288   0.073  21.300  0.00  0.00    -0.276 OA
ATOM     14  N   UNL     1       3.934   0.434  23.503  0.00  0.00    -0.313 N 
ATOM     29  C   UNL     1       3.046   0.465  22.438  0.00  0.00    +0.216 C 
ATOM     41  H   UNL     1       3.611   0.730  24.420  0.00  0.00    +0.149 HD
BRANCH  14  31
ATOM     31  C   UNL     1       5.281  -0.076  23.392  0.00  0.00    +0.067 C 
ATOM     34  C   UNL     1       6.260   0.838  24.119  0.00  0.00    +0.027 C 
ATOM     35  C   UNL     1       5.354  -1.500  23.929  0.00  0.00    +0.027 C 
ENDBRANCH  14  31
ENDBRANCH  26  29
ENDBRANCH  24  26
ENDBRANCH  22  16
ENDBRANCH  12  22
TORSDOF 15
ENDMDL
MODEL 8
REMARK VINA RESULT:       1.1      2.565      4.033
REMARK  Name = 45360605
REMARK  20 active torsions:
REMARK  status: ('A' for Active; 'I' for Inactive)
REMARK    1  A    between atoms: S_1  and  N_12
REMARK    2  A    between atoms: S_1  and  C_27
REMARK    3  A    between atoms: O_4  and  C_17
REMARK    4  A    between atoms: O_5  and  C_18
REMARK    5  A    between atoms: O_6  and  C_19
REMARK    6  A    between atoms: O_7  and  C_20
REMARK    7  A    between atoms: N_12  and  C_21
REMARK    8  A    between atoms: N_12  and  C_22
REMARK    9  A    between atoms: N_13  and  C_30
REMARK   10  A    between atoms: N_14  and  C_31
REMARK   11  A    between atoms: C_15  and  C_21
REMARK   12  A    between atoms: C_16  and  C_22
REMARK   13  A    between atoms: C_23  and  C_25
REMARK   14  A    between atoms: C_24  and  C_26
REMARK   15  A    between atoms: C_25  and  C_28
REMARK   16  A    between atoms: C_26  and  C_29
REMARK   17  A    between atoms: C_30  and  C_32
REMARK   18  A    between atoms: C_30  and  C_33
REMARK   19  A    between atoms: C_31  and  C_34
REMARK   20  A    between atoms: C_31  and  C_35
REMARK                            x       y       z     vdW  Elec       q    Type
REMARK                         _______ _______ _______ _____ _____    ______ ____
ROOT
ATOM     12  N   UNL     1      -3.338   0.059  23.487  0.00  0.00    -0.176 NA
ENDROOT
BRANCH  12   1
ATOM      1  S   UNL     1      -3.820  -1.231  24.521  0.00  0.00    +0.029 S 
ATOM      8  O   UNL     1      -3.558  -0.861  25.899  0.00  0.00    -0.158 OA
ATOM      9  O   UNL     1      -5.135  -1.705  24.131  0.00  0.00    -0.158 OA
ATOM     27  C   UNL     1      -2.644  -2.489  24.074  0.00  0.00    +0.215 C 
ENDBRANCH  12   1
BRANCH  12  21
ATOM     21  C   UNL     1      -3.731   1.432  23.856  0.00  0.00    +0.143 C 
BRANCH  21  15
ATOM      2  O   UNL     1      -3.995   2.001  26.171  0.00  0.00    -0.366 OA
ATOM     15  C   UNL     1      -4.673   1.388  25.051  0.00  0.00    +0.165 C 
ATOM     17  C   UNL     1      -5.953   2.186  24.833  0.00  0.00    +0.175 C 
ATOM     19  C   UNL     1      -5.559   3.558  25.340  0.00  0.00    +0.175 C 
ATOM     23  C   UNL     1      -4.695   3.203  26.539  0.00  0.00    +0.158 C 
BRANCH  17   4
ATOM      4  O   UNL     1      -6.971   1.625  25.661  0.00  0.00    -0.387 OA
ATOM     36  H   UNL     1      -6.535   1.245  26.442  0.00  0.00    +0.210 HD
ENDBRANCH  17   4
BRANCH  19   6
ATOM      6  O   UNL     1      -6.664   4.359  25.702  0.00  0.00    -0.387 OA
ATOM     38  H   UNL     1      -6.332   5.260  25.858  0.00  0.00    +0.210 HD
ENDBRANCH  19   6
BRANCH  23  25
ATOM     25  C   UNL     1      -3.696   4.286  26.903  0.00  0.00    +0.130 C 
BRANCH  25  28
ATOM     10  O   UNL     1      -1.408   3.580  26.564  0.00  0.00    -0.276 OA
ATOM     13  N   UNL     1      -2.479   4.789  24.893  0.00  0.00    -0.313 N 
ATOM     28  C   UNL     1      -2.396   4.163  26.129  0.00  0.00    +0.216 C 
ATOM     40  H   UNL     1      -3.369   5.179  24.597  0.00  0.00    +0.149 HD
BRANCH  13  30
ATOM     30  C   UNL     1      -1.382   4.826  23.953  0.00  0.00    +0.067 C 
ATOM     32  C   UNL     1      -0.096   5.254  24.649  0.00  0.00    +0.027 C 
ATOM     33  C   UNL     1      -1.218   3.470  23.279  0.00  0.00    +0.027 C 
ENDBRANCH  13  30
ENDBRANCH  25  28
ENDBRANCH  23  25
ENDBRANCH  21  15
ENDBRANCH  12  21
BRANCH  12  22
ATOM     22  C   UNL     1      -1.971  -0.004  22.904  0.00  0.00    +0.143 C 
BRANCH  22  16
ATOM      3  O   UNL     1       0.346  -0.385  23.399  0.00  0.00    -0.366 OA
ATOM     16  C   UNL     1      -0.981  -0.463  23.967  0.00  0.00    +0.165 C 
ATOM     18  C   UNL     1      -0.973   0.431  25.201  0.00  0.00    +0.175 C 
ATOM     20  C   UNL     1       0.074   1.463  24.837  0.00  0.00    +0.175 C 
ATOM     24  C   UNL     1       1.101   0.612  24.110  0.00  0.00    +0.158 C 
BRANCH  18   5
ATOM      5  O   UNL     1      -0.532  -0.350  26.311  0.00  0.00    -0.387 OA
ATOM     37  H   UNL     1      -0.082   0.252  26.929  0.00  0.00    +0.210 HD
ENDBRANCH  18   5
BRANCH  20   7
ATOM      7  O   UNL     1       0.626   2.120  25.957  0.00  0.00    -0.387 OA
ATOM     39  H   UNL     1      -0.054   2.718  26.309  0.00  0.00    +0.210 HD
ENDBRANCH  20   7
BRANCH  24  26
ATOM     26  C   UNL     1       1.955   1.400  23.134  0.00  0.00    +0.130 C 
BRANCH  26  29
ATOM     11  O   UNL     1       3.202   0.111  21.512  0.00  0.00    -0.276 OA
ATOM     14  N   UNL     1       4.144   0.525  23.596  0.00  0.00    -0.313 N 
ATOM     29  C   UNL     1       3.149   0.608  22.633  0.00  0.00    +0.216 C 
ATOM     41  H   UNL     1       3.973   0.923  24.514  0.00  0.00    +0.149 HD
BRANCH  14  31
ATOM     31  C   UNL     1       5.391  -0.174  23.382  0.00  0.00    +0.067 C 
ATOM     34  C   UNL     1       6.557   0.629  23.947  0.00  0.00    +0.027 C 
ATOM     35  C   UNL     1       5.329  -1.566  23.999  0.00  0.00    +0.027 C 
ENDBRANCH  14  31
ENDBRANCH  26  29
ENDBRANCH  24  26
ENDBRANCH  22  16
ENDBRANCH  12  22
TORSDOF 15
ENDMDL
MODEL 9
REMARK VINA RESULT:       1.5      2.587      4.510
REMARK  Name = 45360605
REMARK  20 active torsions:
REMARK  status: ('A' for Active; 'I' for Inactive)
REMARK    1  A    between atoms: S_1  and  N_12
REMARK    2  A    between atoms: S_1  and  C_27
REMARK    3  A    between atoms: O_4  and  C_17
REMARK    4  A    between atoms: O_5  and  C_18
REMARK    5  A    between atoms: O_6  and  C_19
REMARK    6  A    between atoms: O_7  and  C_20
REMARK    7  A    between atoms: N_12  and  C_21
REMARK    8  A    between atoms: N_12  and  C_22
REMARK    9  A    between atoms: N_13  and  C_30
REMARK   10  A    between atoms: N_14  and  C_31
REMARK   11  A    between atoms: C_15  and  C_21
REMARK   12  A    between atoms: C_16  and  C_22
REMARK   13  A    between atoms: C_23  and  C_25
REMARK   14  A    between atoms: C_24  and  C_26
REMARK   15  A    between atoms: C_25  and  C_28
REMARK   16  A    between atoms: C_26  and  C_29
REMARK   17  A    between atoms: C_30  and  C_32
REMARK   18  A    between atoms: C_30  and  C_33
REMARK   19  A    between atoms: C_31  and  C_34
REMARK   20  A    between atoms: C_31  and  C_35
REMARK                            x       y       z     vdW  Elec       q    Type
REMARK                         _______ _______ _______ _____ _____    ______ ____
ROOT
ATOM     12  N   UNL     1      -3.203  -0.283  23.577  0.00  0.00    -0.176 NA
ENDROOT
BRANCH  12   1
ATOM      1  S   UNL     1      -3.643  -1.794  24.276  0.00  0.00    +0.029 S 
ATOM      8  O   UNL     1      -4.957  -2.178  23.796  0.00  0.00    -0.158 OA
ATOM      9  O   UNL     1      -2.530  -2.722  24.177  0.00  0.00    -0.158 OA
ATOM     27  C   UNL     1      -3.812  -1.345  25.990  0.00  0.00    +0.215 C 
ENDBRANCH  12   1
BRANCH  12  21
ATOM     21  C   UNL     1      -3.609   0.951  24.273  0.00  0.00    +0.143 C 
BRANCH  21  15
ATOM      2  O   UNL     1      -4.038   3.265  23.807  0.00  0.00    -0.366 OA
ATOM     15  C   UNL     1      -3.171   2.161  23.459  0.00  0.00    +0.165 C 
ATOM     17  C   UNL     1      -1.750   2.613  23.777  0.00  0.00    +0.175 C 
ATOM     19  C   UNL     1      -1.979   3.598  24.905  0.00  0.00    +0.175 C 
ATOM     23  C   UNL     1      -3.258   4.284  24.457  0.00  0.00    +0.158 C 
BRANCH  17   4
ATOM      4  O   UNL     1      -1.233   3.285  22.630  0.00  0.00    -0.387 OA
ATOM     36  H   UNL     1      -1.893   3.205  21.921  0.00  0.00    +0.210 HD
ENDBRANCH  17   4
BRANCH  19   6
ATOM      6  O   UNL     1      -0.917   4.513  25.072  0.00  0.00    -0.387 OA
ATOM     38  H   UNL     1      -0.181   4.210  24.513  0.00  0.00    +0.210 HD
ENDBRANCH  19   6
BRANCH  23  25
ATOM     25  C   UNL     1      -4.053   4.885  25.603  0.00  0.00    +0.130 C 
BRANCH  25  28
ATOM     10  O   UNL     1      -6.468   5.004  25.594  0.00  0.00    -0.276 OA
ATOM     13  N   UNL     1      -5.437   2.946  25.915  0.00  0.00    -0.313 N 
ATOM     28  C   UNL     1      -5.457   4.316  25.698  0.00  0.00    +0.216 C 
ATOM     40  H   UNL     1      -4.546   2.459  25.911  0.00  0.00    +0.149 HD
BRANCH  13  30
ATOM     30  C   UNL     1      -6.637   2.152  26.048  0.00  0.00    +0.067 C 
ATOM     32  C   UNL     1      -6.862   1.308  24.799  0.00  0.00    +0.027 C 
ATOM     33  C   UNL     1      -6.559   1.280  27.295  0.00  0.00    +0.027 C 
ENDBRANCH  13  30
ENDBRANCH  25  28
ENDBRANCH  23  25
ENDBRANCH  21  15
ENDBRANCH  12  21
BRANCH  12  22
ATOM     22  C   UNL     1      -1.848  -0.177  22.973  0.00  0.00    +0.143 C 
BRANCH  22  16
ATOM      3  O   UNL     1       0.501  -0.460  23.375  0.00  0.00    -0.366 OA
ATOM     16  C   UNL     1      -0.801  -0.645  23.975  0.00  0.00    +0.165 C 
ATOM     18  C   UNL     1      -0.801   0.170  25.263  0.00  0.00    +0.175 C 
ATOM     20  C   UNL     1       0.178   1.279  24.934  0.00  0.00    +0.175 C 
ATOM     24  C   UNL     1       1.225   0.531  24.125  0.00  0.00    +0.158 C 
BRANCH  18   5
ATOM      5  O   UNL     1      -0.283  -0.652  26.308  0.00  0.00    -0.387 OA
ATOM     37  H   UNL     1       0.286  -1.324  25.894  0.00  0.00    +0.210 HD
ENDBRANCH  18   5
BRANCH  20   7
ATOM      7  O   UNL     1       0.731   1.895  26.077  0.00  0.00    -0.387 OA
ATOM     39  H   UNL     1       1.032   1.188  26.672  0.00  0.00    +0.210 HD
ENDBRANCH  20   7
BRANCH  24  26
ATOM     26  C   UNL     1       2.003   1.424  23.177  0.00  0.00    +0.130 C 
BRANCH  26  29
ATOM     11  O   UNL     1       3.406   0.486  21.443  0.00  0.00    -0.276 OA
ATOM     14  N   UNL     1       4.161   0.474  23.641  0.00  0.00    -0.313 N 
ATOM     29  C   UNL     1       3.249   0.748  22.632  0.00  0.00    +0.216 C 
ATOM     41  H   UNL     1       3.905   0.679  24.602  0.00  0.00    +0.149 HD
BRANCH  14  31
ATOM     31  C   UNL     1       5.433  -0.169  23.401  0.00  0.00    +0.067 C 
ATOM     34  C   UNL     1       6.572   0.675  23.961  0.00  0.00    +0.027 C 
ATOM     35  C   UNL     1       5.439  -1.571  23.997  0.00  0.00    +0.027 C 
ENDBRANCH  14  31
ENDBRANCH  26  29
ENDBRANCH  24  26
ENDBRANCH  22  16
ENDBRANCH  12  22
TORSDOF 15
ENDMDL
MODEL 10
REMARK VINA RESULT:       2.1      2.634      5.620
REMARK  Name = 45360605
REMARK  20 active torsions:
REMARK  status: ('A' for Active; 'I' for Inactive)
REMARK    1  A    between atoms: S_1  and  N_12
REMARK    2  A    between atoms: S_1  and  C_27
REMARK    3  A    between atoms: O_4  and  C_17
REMARK    4  A    between atoms: O_5  and  C_18
REMARK    5  A    between atoms: O_6  and  C_19
REMARK    6  A    between atoms: O_7  and  C_20
REMARK    7  A    between atoms: N_12  and  C_21
REMARK    8  A    between atoms: N_12  and  C_22
REMARK    9  A    between atoms: N_13  and  C_30
REMARK   10  A    between atoms: N_14  and  C_31
REMARK   11  A    between atoms: C_15  and  C_21
REMARK   12  A    between atoms: C_16  and  C_22
REMARK   13  A    between atoms: C_23  and  C_25
REMARK   14  A    between atoms: C_24  and  C_26
REMARK   15  A    between atoms: C_25  and  C_28
REMARK   16  A    between atoms: C_26  and  C_29
REMARK   17  A    between atoms: C_30  and  C_32
REMARK   18  A    between atoms: C_30  and  C_33
REMARK   19  A    between atoms: C_31  and  C_34
REMARK   20  A    between atoms: C_31  and  C_35
REMARK                            x       y       z     vdW  Elec       q    Type
REMARK                         _______ _______ _______ _____ _____    ______ ____
ROOT
ATOM     12  N   UNL     1      -2.148   3.818  24.236  0.00  0.00    -0.176 NA
ENDROOT
BRANCH  12   1
ATOM      1  S   UNL     1      -0.906   4.932  24.662  0.00  0.00    +0.029 S 
ATOM      8  O   UNL     1      -1.486   6.250  24.835  0.00  0.00    -0.158 OA
ATOM      9  O   UNL     1      -0.071   4.360  25.703  0.00  0.00    -0.158 OA
ATOM     27  C   UNL     1       0.056   4.965  23.164  0.00  0.00    +0.215 C 
ENDBRANCH  12   1
BRANCH  12  21
ATOM     21  C   UNL     1      -1.816   2.729  23.299  0.00  0.00    +0.143 C 
BRANCH  21  15
ATOM      2  O   UNL     1      -0.835   0.544  23.162  0.00  0.00    -0.366 OA
ATOM     15  C   UNL     1      -1.441   1.479  24.084  0.00  0.00    +0.165 C 
ATOM     17  C   UNL     1      -0.405   1.744  25.171  0.00  0.00    +0.175 C 
ATOM     19  C   UNL     1       0.895   1.527  24.425  0.00  0.00    +0.175 C 
ATOM     23  C   UNL     1       0.542   0.351  23.530  0.00  0.00    +0.158 C 
BRANCH  17   4
ATOM      4  O   UNL     1      -0.566   0.754  26.186  0.00  0.00    -0.387 OA
ATOM     36  H   UNL     1      -0.854  -0.066  25.750  0.00  0.00    +0.210 HD
ENDBRANCH  17   4
BRANCH  19   6
ATOM      6  O   UNL     1       1.985   1.238  25.275  0.00  0.00    -0.387 OA
ATOM     38  H   UNL     1       2.794   1.287  24.738  0.00  0.00    +0.210 HD
ENDBRANCH  19   6
BRANCH  23  25
ATOM     25  C   UNL     1       1.399   0.267  22.280  0.00  0.00    +0.130 C 
BRANCH  25  28
ATOM     10  O   UNL     1       3.400   1.622  22.379  0.00  0.00    -0.276 OA
ATOM     13  N   UNL     1       3.505  -0.604  23.040  0.00  0.00    -0.313 N 
ATOM     28  C   UNL     1       2.867   0.531  22.562  0.00  0.00    +0.216 C 
ATOM     40  H   UNL     1       2.956  -1.438  23.226  0.00  0.00    +0.149 HD
BRANCH  13  30
ATOM     30  C   UNL     1       4.908  -0.633  23.386  0.00  0.00    +0.067 C 
ATOM     32  C   UNL     1       5.280   0.591  24.214  0.00  0.00    +0.027 C 
ATOM     33  C   UNL     1       5.244  -1.921  24.126  0.00  0.00    +0.027 C 
ENDBRANCH  13  30
ENDBRANCH  25  28
ENDBRANCH  23  25
ENDBRANCH  21  15
ENDBRANCH  12  21
BRANCH  12  22
ATOM     22  C   UNL     1      -3.073   3.378  25.315  0.00  0.00    +0.143 C 
BRANCH  22  16
ATOM      3  O   UNL     1      -4.447   1.626  24.420  0.00  0.00    -0.366 OA
ATOM     16  C   UNL     1      -4.433   3.040  24.720  0.00  0.00    +0.165 C 
ATOM     18  C   UNL     1      -5.585   3.285  25.687  0.00  0.00    +0.175 C 
ATOM     20  C   UNL     1      -5.693   1.950  26.395  0.00  0.00    +0.175 C 
ATOM     24  C   UNL     1      -5.422   0.980  25.258  0.00  0.00    +0.158 C 
BRANCH  18   5
ATOM      5  O   UNL     1      -6.763   3.534  24.920  0.00  0.00    -0.387 OA
ATOM     37  H   UNL     1      -6.482   3.705  24.005  0.00  0.00    +0.210 HD
ENDBRANCH  18   5
BRANCH  20   7
ATOM      7  O   UNL     1      -6.954   1.732  26.990  0.00  0.00    -0.387 OA
ATOM     39  H   UNL     1      -7.316   2.600  27.233  0.00  0.00    +0.210 HD
ENDBRANCH  20   7
BRANCH  24  26
ATOM     26  C   UNL     1      -4.886  -0.361  25.726  0.00  0.00    +0.130 C 
BRANCH  26  29
ATOM     11  O   UNL     1      -4.319  -1.144  23.509  0.00  0.00    -0.276 OA
ATOM     14  N   UNL     1      -2.815  -1.481  25.249  0.00  0.00    -0.313 N 
ATOM     29  C   UNL     1      -4.001  -1.029  24.689  0.00  0.00    +0.216 C 
ATOM     41  H   UNL     1      -2.678  -1.387  26.250  0.00  0.00    +0.149 HD
BRANCH  14  31
ATOM     31  C   UNL     1      -1.790  -2.157  24.486  0.00  0.00    +0.067 C 
ATOM     34  C   UNL     1      -0.549  -2.382  25.340  0.00  0.00    +0.027 C 
ATOM     35  C   UNL     1      -2.325  -3.471  23.931  0.00  0.00    +0.027 C 
ENDBRANCH  14  31
ENDBRANCH  26  29
ENDBRANCH  24  26
ENDBRANCH  22  16
ENDBRANCH  12  22
TORSDOF 15
ENDMDL
