MODEL 1
REMARK VINA RESULT:      12.5      0.000      0.000
REMARK  Name = 45361246
REMARK  12 active torsions:
REMARK  status: ('A' for Active; 'I' for Inactive)
REMARK    1  A    between atoms: O_1  and  C_16
REMARK    2  A    between atoms: O_4  and  C_35
REMARK    3  A    between atoms: O_4  and  C_40
REMARK    4  A    between atoms: N_5  and  C_12
REMARK    5  A    between atoms: N_7  and  C_33
REMARK    6  A    between atoms: C_9  and  C_17
REMARK    7  A    between atoms: C_11  and  C_19
REMARK    8  A    between atoms: C_11  and  C_20
REMARK    9  A    between atoms: C_16  and  C_22
REMARK   10  A    between atoms: C_17  and  C_21
REMARK   11  A    between atoms: C_21  and  C_24
REMARK   12  A    between atoms: C_23  and  C_25
REMARK                            x       y       z     vdW  Elec       q    Type
REMARK                         _______ _______ _______ _____ _____    ______ ____
ROOT
ATOM      9  C   UNL     1      -3.459   1.973  25.610  0.00  0.00    -0.007 C 
ATOM     10  C   UNL     1      -4.066   2.165  24.180  0.00  0.00    +0.005 C 
ATOM     11  C   UNL     1      -2.829   2.146  23.201  0.00  0.00    -0.030 C 
ATOM     12  C   UNL     1      -2.172   2.818  25.487  0.00  0.00    +0.080 C 
ATOM     13  C   UNL     1      -1.607   2.447  24.108  0.00  0.00    +0.029 C 
ATOM     14  C   UNL     1      -4.396   2.423  26.756  0.00  0.00    +0.012 C 
ATOM     15  C   UNL     1      -4.903   3.463  24.049  0.00  0.00    +0.039 C 
ATOM     16  C   UNL     1      -5.909   3.677  25.180  0.00  0.00    +0.064 C 
ATOM     18  C   UNL     1      -5.159   3.716  26.512  0.00  0.00    +0.035 C 
ATOM     19  C   UNL     1      -2.879   3.168  22.048  0.00  0.00    +0.011 C 
ATOM     20  C   UNL     1      -2.692   0.762  22.530  0.00  0.00    +0.011 C 
ATOM     22  C   UNL     1      -6.692   4.974  24.963  0.00  0.00    +0.041 C 
ENDROOT
BRANCH  12   5
ATOM      2  O   UNL     1       0.424   4.027  25.705  0.00  0.00    -0.270 OA
ATOM      5  N   UNL     1      -1.211   2.608  26.537  0.00  0.00    -0.308 N 
ATOM     23  C   UNL     1       0.025   3.240  26.559  0.00  0.00    +0.246 C 
ATOM     41  H   UNL     1      -1.466   1.957  27.271  0.00  0.00    +0.149 HD
BRANCH  23  25
ATOM      8  N   UNL     1       3.144   2.834  28.633  0.00  0.00    -0.263 NA
ATOM     25  C   UNL     1       0.915   2.896  27.699  0.00  0.00    +0.055 A 
ATOM     28  C   UNL     1       0.403   2.334  28.863  0.00  0.00    +0.016 A 
ATOM     29  C   UNL     1       2.280   3.124  27.635  0.00  0.00    +0.123 A 
ATOM     32  C   UNL     1       1.261   2.021  29.912  0.00  0.00    +0.020 A 
ATOM     34  C   UNL     1       2.610   2.288  29.749  0.00  0.00    +0.111 A 
ENDBRANCH  23  25
ENDBRANCH  12   5
BRANCH  16   1
ATOM      1  O   UNL     1      -6.840   2.595  25.173  0.00  0.00    -0.389 OA
ATOM     42  H   UNL     1      -6.811   2.178  24.295  0.00  0.00    +0.210 HD
ENDBRANCH  16   1
BRANCH   9  17
ATOM     17  C   UNL     1      -3.126   0.486  25.901  0.00  0.00    +0.018 C 
BRANCH  17  21
ATOM     21  C   UNL     1      -4.116  -0.449  25.241  0.00  0.00    +0.096 C 
BRANCH  21  24
ATOM      3  O   UNL     1      -4.070  -2.123  23.565  0.00  0.00    -0.276 OA
ATOM      6  N   UNL     1      -2.046  -1.622  24.587  0.00  0.00    -0.298 N 
ATOM      7  N   UNL     1       0.678  -1.128  24.044  0.00  0.00    -0.324 N 
ATOM     24  C   UNL     1      -3.417  -1.474  24.387  0.00  0.00    +0.216 C 
ATOM     26  C   UNL     1      -1.286  -2.591  23.802  0.00  0.00    +0.126 C 
ATOM     27  C   UNL     1      -1.241  -0.891  25.568  0.00  0.00    +0.126 C 
ATOM     30  C   UNL     1      -0.119  -1.912  23.089  0.00  0.00    +0.124 C 
ATOM     31  C   UNL     1      -0.069  -0.184  24.887  0.00  0.00    +0.124 C 
BRANCH   7  33
ATOM     33  C   UNL     1       2.008  -0.849  23.707  0.00  0.00    +0.072 A 
ATOM     35  C   UNL     1       2.337   0.320  23.021  0.00  0.00    +0.141 A 
ATOM     36  C   UNL     1       3.009  -1.752  24.064  0.00  0.00    +0.027 A 
ATOM     37  C   UNL     1       3.666   0.586  22.691  0.00  0.00    +0.047 A 
ATOM     38  C   UNL     1       4.338  -1.487  23.735  0.00  0.00    +0.002 A 
ATOM     39  C   UNL     1       4.667  -0.318  23.048  0.00  0.00    +0.004 A 
BRANCH  35   4
ATOM      4  O   UNL     1       1.373   1.216  22.662  0.00  0.00    -0.493 OA
ATOM     40  C   UNL     1       1.283   2.412  23.432  0.00  0.00    +0.277 C 
ENDBRANCH  35   4
ENDBRANCH   7  33
ENDBRANCH  21  24
ENDBRANCH  17  21
ENDBRANCH   9  17
TORSDOF 8
ENDMDL
MODEL 2
REMARK VINA RESULT:      13.5      0.846      1.504
REMARK  Name = 45361246
REMARK  12 active torsions:
REMARK  status: ('A' for Active; 'I' for Inactive)
REMARK    1  A    between atoms: O_1  and  C_16
REMARK    2  A    between atoms: O_4  and  C_35
REMARK    3  A    between atoms: O_4  and  C_40
REMARK    4  A    between atoms: N_5  and  C_12
REMARK    5  A    between atoms: N_7  and  C_33
REMARK    6  A    between atoms: C_9  and  C_17
REMARK    7  A    between atoms: C_11  and  C_19
REMARK    8  A    between atoms: C_11  and  C_20
REMARK    9  A    between atoms: C_16  and  C_22
REMARK   10  A    between atoms: C_17  and  C_21
REMARK   11  A    between atoms: C_21  and  C_24
REMARK   12  A    between atoms: C_23  and  C_25
REMARK                            x       y       z     vdW  Elec       q    Type
REMARK                         _______ _______ _______ _____ _____    ______ ____
ROOT
ATOM      9  C   UNL     1      -3.387   2.017  25.591  0.00  0.00    -0.007 C 
ATOM     10  C   UNL     1      -3.971   2.188  24.149  0.00  0.00    +0.005 C 
ATOM     11  C   UNL     1      -2.712   2.333  23.208  0.00  0.00    -0.030 C 
ATOM     12  C   UNL     1      -2.195   3.000  25.531  0.00  0.00    +0.080 C 
ATOM     13  C   UNL     1      -1.555   2.735  24.161  0.00  0.00    +0.029 C 
ATOM     14  C   UNL     1      -4.397   2.327  26.720  0.00  0.00    +0.012 C 
ATOM     15  C   UNL     1      -4.939   3.392  24.028  0.00  0.00    +0.039 C 
ATOM     16  C   UNL     1      -5.993   3.460  25.133  0.00  0.00    +0.064 C 
ATOM     18  C   UNL     1      -5.290   3.538  26.488  0.00  0.00    +0.035 C 
ATOM     19  C   UNL     1      -2.841   3.379  22.084  0.00  0.00    +0.011 C 
ATOM     20  C   UNL     1      -2.407   0.993  22.503  0.00  0.00    +0.011 C 
ATOM     22  C   UNL     1      -6.906   4.672  24.929  0.00  0.00    +0.041 C 
ENDROOT
BRANCH  12   5
ATOM      2  O   UNL     1       0.659   3.251  25.342  0.00  0.00    -0.270 OA
ATOM      5  N   UNL     1      -1.247   2.862  26.605  0.00  0.00    -0.308 N 
ATOM     23  C   UNL     1       0.122   3.001  26.418  0.00  0.00    +0.246 C 
ATOM     41  H   UNL     1      -1.618   2.639  27.522  0.00  0.00    +0.149 HD
BRANCH  23  25
ATOM      8  N   UNL     1       3.162   2.867  28.638  0.00  0.00    -0.263 NA
ATOM     25  C   UNL     1       0.970   2.802  27.623  0.00  0.00    +0.055 A 
ATOM     28  C   UNL     1       0.416   2.379  28.826  0.00  0.00    +0.016 A 
ATOM     29  C   UNL     1       2.335   3.029  27.581  0.00  0.00    +0.123 A 
ATOM     32  C   UNL     1       1.235   2.200  29.936  0.00  0.00    +0.020 A 
ATOM     34  C   UNL     1       2.589   2.455  29.791  0.00  0.00    +0.111 A 
ENDBRANCH  23  25
ENDBRANCH  12   5
BRANCH  16   1
ATOM      1  O   UNL     1      -6.801   2.285  25.067  0.00  0.00    -0.389 OA
ATOM     42  H   UNL     1      -6.340   1.634  24.512  0.00  0.00    +0.210 HD
ENDBRANCH  16   1
BRANCH   9  17
ATOM     17  C   UNL     1      -2.902   0.566  25.849  0.00  0.00    +0.018 C 
BRANCH  17  21
ATOM     21  C   UNL     1      -3.796  -0.451  25.175  0.00  0.00    +0.096 C 
BRANCH  21  24
ATOM      3  O   UNL     1      -3.603  -2.077  23.462  0.00  0.00    -0.276 OA
ATOM      6  N   UNL     1      -1.620  -1.325  24.406  0.00  0.00    -0.298 N 
ATOM      7  N   UNL     1       0.987  -0.460  23.756  0.00  0.00    -0.324 N 
ATOM     24  C   UNL     1      -3.005  -1.359  24.268  0.00  0.00    +0.216 C 
ATOM     26  C   UNL     1      -0.773  -2.170  23.568  0.00  0.00    +0.126 C 
ATOM     27  C   UNL     1      -0.875  -0.507  25.366  0.00  0.00    +0.126 C 
ATOM     30  C   UNL     1       0.258  -1.329  22.819  0.00  0.00    +0.124 C 
ATOM     31  C   UNL     1       0.159   0.361  24.650  0.00  0.00    +0.124 C 
BRANCH   7  33
ATOM     33  C   UNL     1       2.250   0.001  23.367  0.00  0.00    +0.072 A 
ATOM     35  C   UNL     1       3.385  -0.783  23.567  0.00  0.00    +0.141 A 
ATOM     36  C   UNL     1       2.367   1.257  22.772  0.00  0.00    +0.027 A 
ATOM     37  C   UNL     1       4.638  -0.311  23.175  0.00  0.00    +0.047 A 
ATOM     38  C   UNL     1       3.618   1.730  22.379  0.00  0.00    +0.002 A 
ATOM     39  C   UNL     1       4.755   0.946  22.581  0.00  0.00    +0.004 A 
BRANCH  35   4
ATOM      4  O   UNL     1       3.293  -2.014  24.147  0.00  0.00    -0.493 OA
ATOM     40  C   UNL     1       4.494  -2.775  24.244  0.00  0.00    +0.277 C 
ENDBRANCH  35   4
ENDBRANCH   7  33
ENDBRANCH  21  24
ENDBRANCH  17  21
ENDBRANCH   9  17
TORSDOF 8
ENDMDL
MODEL 3
REMARK VINA RESULT:      16.4      1.757      3.096
REMARK  Name = 45361246
REMARK  12 active torsions:
REMARK  status: ('A' for Active; 'I' for Inactive)
REMARK    1  A    between atoms: O_1  and  C_16
REMARK    2  A    between atoms: O_4  and  C_35
REMARK    3  A    between atoms: O_4  and  C_40
REMARK    4  A    between atoms: N_5  and  C_12
REMARK    5  A    between atoms: N_7  and  C_33
REMARK    6  A    between atoms: C_9  and  C_17
REMARK    7  A    between atoms: C_11  and  C_19
REMARK    8  A    between atoms: C_11  and  C_20
REMARK    9  A    between atoms: C_16  and  C_22
REMARK   10  A    between atoms: C_17  and  C_21
REMARK   11  A    between atoms: C_21  and  C_24
REMARK   12  A    between atoms: C_23  and  C_25
REMARK                            x       y       z     vdW  Elec       q    Type
REMARK                         _______ _______ _______ _____ _____    ______ ____
ROOT
ATOM      9  C   UNL     1      -2.477   2.143  24.903  0.00  0.00    -0.007 C 
ATOM     10  C   UNL     1      -3.942   2.279  24.371  0.00  0.00    +0.005 C 
ATOM     11  C   UNL     1      -4.507   3.588  25.046  0.00  0.00    -0.030 C 
ATOM     12  C   UNL     1      -2.663   2.605  26.366  0.00  0.00    +0.080 C 
ATOM     13  C   UNL     1      -3.573   3.837  26.260  0.00  0.00    +0.029 C 
ATOM     14  C   UNL     1      -1.887   0.719  24.767  0.00  0.00    +0.012 C 
ATOM     15  C   UNL     1      -4.814   1.034  24.678  0.00  0.00    +0.039 C 
ATOM     16  C   UNL     1      -4.150  -0.297  24.326  0.00  0.00    +0.064 C 
ATOM     18  C   UNL     1      -2.839  -0.421  25.102  0.00  0.00    +0.035 C 
ATOM     19  C   UNL     1      -5.969   3.510  25.528  0.00  0.00    +0.011 C 
ATOM     20  C   UNL     1      -4.454   4.772  24.055  0.00  0.00    +0.011 C 
ATOM     22  C   UNL     1      -5.083  -1.465  24.654  0.00  0.00    +0.041 C 
ENDROOT
BRANCH  12   5
ATOM      2  O   UNL     1      -0.576   0.745  27.021  0.00  0.00    -0.270 OA
ATOM      5  N   UNL     1      -1.440   2.897  27.066  0.00  0.00    -0.308 N 
ATOM     23  C   UNL     1      -0.484   1.928  27.339  0.00  0.00    +0.246 C 
ATOM     41  H   UNL     1      -1.302   3.853  27.374  0.00  0.00    +0.149 HD
BRANCH  23  25
ATOM      8  N   UNL     1       2.813   3.581  28.107  0.00  0.00    -0.263 NA
ATOM     25  C   UNL     1       0.712   2.385  28.094  0.00  0.00    +0.055 A 
ATOM     28  C   UNL     1       0.872   2.073  29.440  0.00  0.00    +0.016 A 
ATOM     29  C   UNL     1       1.702   3.135  27.480  0.00  0.00    +0.123 A 
ATOM     32  C   UNL     1       2.002   2.515  30.120  0.00  0.00    +0.020 A 
ATOM     34  C   UNL     1       2.935   3.258  29.415  0.00  0.00    +0.111 A 
ENDBRANCH  23  25
ENDBRANCH  12   5
BRANCH  16   1
ATOM      1  O   UNL     1      -3.893  -0.322  22.922  0.00  0.00    -0.389 OA
ATOM     42  H   UNL     1      -3.329   0.440  22.706  0.00  0.00    +0.210 HD
ENDBRANCH  16   1
BRANCH   9  17
ATOM     17  C   UNL     1      -1.498   3.076  24.143  0.00  0.00    +0.018 C 
BRANCH  17  21
ATOM     21  C   UNL     1      -1.693   2.990  22.645  0.00  0.00    +0.096 C 
BRANCH  21  24
ATOM      3  O   UNL     1      -1.940   1.177  21.140  0.00  0.00    -0.276 OA
ATOM      6  N   UNL     1      -0.347   0.928  22.810  0.00  0.00    -0.298 N 
ATOM      7  N   UNL     1       2.301   0.067  23.273  0.00  0.00    -0.324 N 
ATOM     24  C   UNL     1      -1.344   1.619  22.125  0.00  0.00    +0.216 C 
ATOM     26  C   UNL     1       0.058  -0.406  22.375  0.00  0.00    +0.126 C 
ATOM     27  C   UNL     1       0.366   1.407  23.996  0.00  0.00    +0.126 C 
ATOM     30  C   UNL     1       1.562  -0.457  22.114  0.00  0.00    +0.124 C 
ATOM     31  C   UNL     1       1.877   1.385  23.766  0.00  0.00    +0.124 C 
BRANCH   7  33
ATOM     33  C   UNL     1       3.632  -0.334  23.430  0.00  0.00    +0.072 A 
ATOM     35  C   UNL     1       4.671   0.588  23.305  0.00  0.00    +0.141 A 
ATOM     36  C   UNL     1       3.917  -1.670  23.716  0.00  0.00    +0.027 A 
ATOM     37  C   UNL     1       5.995   0.175  23.464  0.00  0.00    +0.047 A 
ATOM     38  C   UNL     1       5.238  -2.083  23.875  0.00  0.00    +0.002 A 
ATOM     39  C   UNL     1       6.278  -1.161  23.749  0.00  0.00    +0.004 A 
BRANCH  35   4
ATOM      4  O   UNL     1       4.416   1.898  23.025  0.00  0.00    -0.493 OA
ATOM     40  C   UNL     1       4.037   2.212  21.688  0.00  0.00    +0.277 C 
ENDBRANCH  35   4
ENDBRANCH   7  33
ENDBRANCH  21  24
ENDBRANCH  17  21
ENDBRANCH   9  17
TORSDOF 8
ENDMDL
