MODEL 1
REMARK VINA RESULT:      -2.0      0.000      0.000
REMARK  Name = 25314629
REMARK  10 active torsions:
REMARK  status: ('A' for Active; 'I' for Inactive)
REMARK    1  A    between atoms: O_3  and  C_11
REMARK    2  A    between atoms: O_5  and  C_25
REMARK    3  A    between atoms: O_5  and  C_26
REMARK    4  A    between atoms: N_6  and  C_9
REMARK    5  A    between atoms: N_6  and  C_15
REMARK    6  A    between atoms: N_6  and  C_16
REMARK    7  A    between atoms: N_7  and  C_10
REMARK    8  A    between atoms: N_8  and  C_20
REMARK    9  A    between atoms: C_15  and  C_18
REMARK   10  A    between atoms: C_16  and  C_19
REMARK                            x       y       z     vdW  Elec       q    Type
REMARK                         _______ _______ _______ _____ _____    ______ ____
ROOT
ATOM      1  O   UNL     1      -1.798   1.563  25.629  0.00  0.00    -0.342 OA
ATOM      2  O   UNL     1      -3.699   2.893  25.621  0.00  0.00    -0.347 OA
ATOM      9  C   UNL     1      -3.671   0.889  24.267  0.00  0.00    +0.143 C 
ATOM     10  C   UNL     1      -1.722   2.306  23.337  0.00  0.00    +0.136 C 
ATOM     11  C   UNL     1      -3.108   1.682  23.066  0.00  0.00    +0.159 C 
ATOM     12  C   UNL     1      -1.511   2.702  24.813  0.00  0.00    +0.170 C 
ATOM     13  C   UNL     1      -3.232   1.534  25.595  0.00  0.00    +0.270 C 
ATOM     14  C   UNL     1      -2.536   3.687  25.343  0.00  0.00    +0.196 C 
ENDROOT
BRANCH  10   7
ATOM      4  O   UNL     1       0.967   2.219  24.322  0.00  0.00    -0.252 OA
ATOM      7  N   UNL     1      -0.676   1.397  22.919  0.00  0.00    -0.291 N 
ATOM      8  N   UNL     1       1.403   0.434  22.861  0.00  0.00    -0.269 N 
ATOM     17  C   UNL     1       0.614   1.424  23.454  0.00  0.00    +0.304 C 
ATOM     27  H   UNL     1      -0.869   0.763  22.148  0.00  0.00    +0.151 HD
ATOM     29  H   UNL     1       0.955  -0.145  22.154  0.00  0.00    +0.156 HD
BRANCH   8  20
ATOM     20  C   UNL     1       2.760   0.133  23.122  0.00  0.00    +0.035 A 
ATOM     21  C   UNL     1       3.741   1.104  22.927  0.00  0.00    +0.027 A 
ATOM     22  C   UNL     1       3.117  -1.138  23.575  0.00  0.00    +0.027 A 
ATOM     23  C   UNL     1       5.080   0.807  23.185  0.00  0.00    +0.047 A 
ATOM     24  C   UNL     1       4.455  -1.437  23.833  0.00  0.00    +0.047 A 
ATOM     25  C   UNL     1       5.436  -0.464  23.637  0.00  0.00    +0.120 A 
BRANCH  25   5
ATOM      5  O   UNL     1       6.742  -0.754  23.891  0.00  0.00    -0.495 OA
ATOM     26  C   UNL     1       7.663  -0.600  22.811  0.00  0.00    +0.277 C 
ENDBRANCH  25   5
ENDBRANCH   8  20
ENDBRANCH  10   7
BRANCH  11   3
ATOM      3  O   UNL     1      -4.035   2.734  22.764  0.00  0.00    -0.388 OA
ATOM     28  H   UNL     1      -4.828   2.328  22.373  0.00  0.00    +0.210 HD
ENDBRANCH  11   3
BRANCH   9   6
ATOM      6  N   UNL     1      -3.209  -0.500  24.215  0.00  0.00    -0.293 NA
BRANCH   6  15
ATOM     15  C   UNL     1      -4.331  -1.400  23.957  0.00  0.00    +0.081 C 
ATOM     18  C   UNL     1      -3.945  -2.847  24.189  0.00  0.00    +0.020 C 
ENDBRANCH   6  15
BRANCH   6  16
ATOM     16  C   UNL     1      -2.538  -0.860  25.462  0.00  0.00    +0.081 C 
ATOM     19  C   UNL     1      -1.148  -1.405  25.207  0.00  0.00    +0.020 C 
ENDBRANCH   6  16
ENDBRANCH   9   6
TORSDOF 7
ENDMDL
MODEL 2
REMARK VINA RESULT:      -1.8      1.657      3.476
REMARK  Name = 25314629
REMARK  10 active torsions:
REMARK  status: ('A' for Active; 'I' for Inactive)
REMARK    1  A    between atoms: O_3  and  C_11
REMARK    2  A    between atoms: O_5  and  C_25
REMARK    3  A    between atoms: O_5  and  C_26
REMARK    4  A    between atoms: N_6  and  C_9
REMARK    5  A    between atoms: N_6  and  C_15
REMARK    6  A    between atoms: N_6  and  C_16
REMARK    7  A    between atoms: N_7  and  C_10
REMARK    8  A    between atoms: N_8  and  C_20
REMARK    9  A    between atoms: C_15  and  C_18
REMARK   10  A    between atoms: C_16  and  C_19
REMARK                            x       y       z     vdW  Elec       q    Type
REMARK                         _______ _______ _______ _____ _____    ______ ____
ROOT
ATOM      1  O   UNL     1      -3.704   0.557  23.146  0.00  0.00    -0.342 OA
ATOM      2  O   UNL     1      -5.085  -0.141  24.874  0.00  0.00    -0.347 OA
ATOM      9  C   UNL     1      -3.085   1.110  25.410  0.00  0.00    +0.143 C 
ATOM     10  C   UNL     1      -2.205  -1.002  24.211  0.00  0.00    +0.136 C 
ATOM     11  C   UNL     1      -2.272  -0.199  25.528  0.00  0.00    +0.159 C 
ATOM     12  C   UNL     1      -3.466  -0.841  23.337  0.00  0.00    +0.170 C 
ATOM     13  C   UNL     1      -4.249   0.935  24.417  0.00  0.00    +0.270 C 
ATOM     14  C   UNL     1      -4.755  -1.250  24.024  0.00  0.00    +0.196 C 
ENDROOT
BRANCH  10   7
ATOM      4  O   UNL     1       0.514  -1.096  25.106  0.00  0.00    -0.252 OA
ATOM      7  N   UNL     1      -1.031  -0.623  23.454  0.00  0.00    -0.291 N 
ATOM      8  N   UNL     1       1.190  -0.269  23.015  0.00  0.00    -0.269 N 
ATOM     17  C   UNL     1       0.264  -0.700  23.970  0.00  0.00    +0.304 C 
ATOM     27  H   UNL     1      -1.165  -0.210  22.535  0.00  0.00    +0.151 HD
ATOM     29  H   UNL     1       0.815   0.029  22.117  0.00  0.00    +0.156 HD
BRANCH   8  20
ATOM     20  C   UNL     1       2.597  -0.193  23.141  0.00  0.00    +0.035 A 
ATOM     21  C   UNL     1       3.314  -1.286  23.626  0.00  0.00    +0.027 A 
ATOM     22  C   UNL     1       3.267   0.976  22.780  0.00  0.00    +0.027 A 
ATOM     23  C   UNL     1       4.702  -1.212  23.749  0.00  0.00    +0.047 A 
ATOM     24  C   UNL     1       4.654   1.052  22.903  0.00  0.00    +0.047 A 
ATOM     25  C   UNL     1       5.371  -0.042  23.388  0.00  0.00    +0.120 A 
BRANCH  25   5
ATOM      5  O   UNL     1       6.725   0.031  23.507  0.00  0.00    -0.495 OA
ATOM     26  C   UNL     1       7.497  -0.864  22.706  0.00  0.00    +0.277 C 
ENDBRANCH  25   5
ENDBRANCH   8  20
ENDBRANCH  10   7
BRANCH  11   3
ATOM      3  O   UNL     1      -2.895  -1.011  26.532  0.00  0.00    -0.388 OA
ATOM     28  H   UNL     1      -3.772  -0.635  26.718  0.00  0.00    +0.210 HD
ENDBRANCH  11   3
BRANCH   9   6
ATOM      6  N   UNL     1      -2.218   2.204  24.968  0.00  0.00    -0.293 NA
BRANCH   6  15
ATOM     15  C   UNL     1      -1.073   2.341  25.868  0.00  0.00    +0.081 C 
ATOM     18  C   UNL     1       0.208   2.599  25.100  0.00  0.00    +0.020 C 
ENDBRANCH   6  15
BRANCH   6  16
ATOM     16  C   UNL     1      -2.971   3.455  24.902  0.00  0.00    +0.081 C 
ATOM     19  C   UNL     1      -2.921   4.203  26.218  0.00  0.00    +0.020 C 
ENDBRANCH   6  16
ENDBRANCH   9   6
TORSDOF 7
ENDMDL
MODEL 3
REMARK VINA RESULT:      -0.8      0.487      1.561
REMARK  Name = 25314629
REMARK  10 active torsions:
REMARK  status: ('A' for Active; 'I' for Inactive)
REMARK    1  A    between atoms: O_3  and  C_11
REMARK    2  A    between atoms: O_5  and  C_25
REMARK    3  A    between atoms: O_5  and  C_26
REMARK    4  A    between atoms: N_6  and  C_9
REMARK    5  A    between atoms: N_6  and  C_15
REMARK    6  A    between atoms: N_6  and  C_16
REMARK    7  A    between atoms: N_7  and  C_10
REMARK    8  A    between atoms: N_8  and  C_20
REMARK    9  A    between atoms: C_15  and  C_18
REMARK   10  A    between atoms: C_16  and  C_19
REMARK                            x       y       z     vdW  Elec       q    Type
REMARK                         _______ _______ _______ _____ _____    ______ ____
ROOT
ATOM      1  O   UNL     1      -1.675   2.099  25.777  0.00  0.00    -0.342 OA
ATOM      2  O   UNL     1      -3.582   3.413  25.642  0.00  0.00    -0.347 OA
ATOM      9  C   UNL     1      -3.669   1.140  24.819  0.00  0.00    +0.143 C 
ATOM     10  C   UNL     1      -1.843   2.263  23.378  0.00  0.00    +0.136 C 
ATOM     11  C   UNL     1      -3.242   1.611  23.410  0.00  0.00    +0.159 C 
ATOM     12  C   UNL     1      -1.487   3.003  24.684  0.00  0.00    +0.170 C 
ATOM     13  C   UNL     1      -3.104   2.082  25.898  0.00  0.00    +0.270 C 
ATOM     14  C   UNL     1      -2.464   4.100  25.062  0.00  0.00    +0.196 C 
ENDROOT
BRANCH  10   7
ATOM      4  O   UNL     1       0.934   2.384  24.070  0.00  0.00    -0.252 OA
ATOM      7  N   UNL     1      -0.834   1.266  23.089  0.00  0.00    -0.291 N 
ATOM      8  N   UNL     1       1.239   0.291  23.052  0.00  0.00    -0.269 N 
ATOM     17  C   UNL     1       0.503   1.406  23.464  0.00  0.00    +0.304 C 
ATOM     27  H   UNL     1      -1.099   0.466  22.520  0.00  0.00    +0.151 HD
ATOM     29  H   UNL     1       0.728  -0.436  22.558  0.00  0.00    +0.156 HD
BRANCH   8  20
ATOM     20  C   UNL     1       2.620   0.045  23.236  0.00  0.00    +0.035 A 
ATOM     21  C   UNL     1       3.050  -1.190  23.722  0.00  0.00    +0.027 A 
ATOM     22  C   UNL     1       3.552   1.037  22.931  0.00  0.00    +0.027 A 
ATOM     23  C   UNL     1       4.412  -1.433  23.903  0.00  0.00    +0.047 A 
ATOM     24  C   UNL     1       4.913   0.795  23.112  0.00  0.00    +0.047 A 
ATOM     25  C   UNL     1       5.343  -0.439  23.598  0.00  0.00    +0.120 A 
BRANCH  25   5
ATOM      5  O   UNL     1       6.672  -0.677  23.773  0.00  0.00    -0.495 OA
ATOM     26  C   UNL     1       7.477  -0.765  22.598  0.00  0.00    +0.277 C 
ENDBRANCH  25   5
ENDBRANCH   8  20
ENDBRANCH  10   7
BRANCH  11   3
ATOM      3  O   UNL     1      -4.208   2.570  22.958  0.00  0.00    -0.388 OA
ATOM     28  H   UNL     1      -4.070   2.703  22.005  0.00  0.00    +0.210 HD
ENDBRANCH  11   3
BRANCH   9   6
ATOM      6  N   UNL     1      -3.199  -0.226  25.057  0.00  0.00    -0.293 NA
BRANCH   6  15
ATOM     15  C   UNL     1      -1.848  -0.209  25.618  0.00  0.00    +0.081 C 
ATOM     18  C   UNL     1      -1.095  -1.481  25.285  0.00  0.00    +0.020 C 
ENDBRANCH   6  15
BRANCH   6  16
ATOM     16  C   UNL     1      -3.230  -0.999  23.816  0.00  0.00    +0.081 C 
ATOM     19  C   UNL     1      -4.271  -2.097  23.872  0.00  0.00    +0.020 C 
ENDBRANCH   6  16
ENDBRANCH   9   6
TORSDOF 7
ENDMDL
MODEL 4
REMARK VINA RESULT:       1.0      1.717      3.228
REMARK  Name = 25314629
REMARK  10 active torsions:
REMARK  status: ('A' for Active; 'I' for Inactive)
REMARK    1  A    between atoms: O_3  and  C_11
REMARK    2  A    between atoms: O_5  and  C_25
REMARK    3  A    between atoms: O_5  and  C_26
REMARK    4  A    between atoms: N_6  and  C_9
REMARK    5  A    between atoms: N_6  and  C_15
REMARK    6  A    between atoms: N_6  and  C_16
REMARK    7  A    between atoms: N_7  and  C_10
REMARK    8  A    between atoms: N_8  and  C_20
REMARK    9  A    between atoms: C_15  and  C_18
REMARK   10  A    between atoms: C_16  and  C_19
REMARK                            x       y       z     vdW  Elec       q    Type
REMARK                         _______ _______ _______ _____ _____    ______ ____
ROOT
ATOM      1  O   UNL     1      -3.297   3.353  23.636  0.00  0.00    -0.342 OA
ATOM      2  O   UNL     1      -5.123   2.461  24.755  0.00  0.00    -0.347 OA
ATOM      9  C   UNL     1      -2.960   2.428  25.837  0.00  0.00    +0.143 C 
ATOM     10  C   UNL     1      -2.610   1.042  23.686  0.00  0.00    +0.136 C 
ATOM     11  C   UNL     1      -2.653   1.041  25.230  0.00  0.00    +0.159 C 
ATOM     12  C   UNL     1      -3.565   2.074  23.052  0.00  0.00    +0.170 C 
ATOM     13  C   UNL     1      -3.914   3.220  24.923  0.00  0.00    +0.270 C 
ATOM     14  C   UNL     1      -5.021   1.893  23.441  0.00  0.00    +0.196 C 
ENDROOT
BRANCH  10   7
ATOM      4  O   UNL     1      -0.262  -0.411  24.448  0.00  0.00    -0.252 OA
ATOM      7  N   UNL     1      -1.258   1.278  23.225  0.00  0.00    -0.291 N 
ATOM      8  N   UNL     1       1.006   0.975  23.040  0.00  0.00    -0.269 N 
ATOM     17  C   UNL     1      -0.166   0.519  23.650  0.00  0.00    +0.304 C 
ATOM     27  H   UNL     1      -1.088   2.081  22.626  0.00  0.00    +0.151 HD
ATOM     29  H   UNL     1       0.911   1.760  22.399  0.00  0.00    +0.156 HD
BRANCH   8  20
ATOM     20  C   UNL     1       2.320   0.478  23.202  0.00  0.00    +0.035 A 
ATOM     21  C   UNL     1       2.525  -0.866  23.513  0.00  0.00    +0.027 A 
ATOM     22  C   UNL     1       3.412   1.332  23.049  0.00  0.00    +0.027 A 
ATOM     23  C   UNL     1       3.822  -1.356  23.672  0.00  0.00    +0.047 A 
ATOM     24  C   UNL     1       4.709   0.844  23.208  0.00  0.00    +0.047 A 
ATOM     25  C   UNL     1       4.913  -0.500  23.520  0.00  0.00    +0.120 A 
BRANCH  25   5
ATOM      5  O   UNL     1       6.178  -0.979  23.673  0.00  0.00    -0.495 OA
ATOM     26  C   UNL     1       7.169  -0.501  22.763  0.00  0.00    +0.277 C 
ENDBRANCH  25   5
ENDBRANCH   8  20
ENDBRANCH  10   7
BRANCH  11   3
ATOM      3  O   UNL     1      -3.680   0.138  25.661  0.00  0.00    -0.388 OA
ATOM     28  H   UNL     1      -4.058  -0.283  24.869  0.00  0.00    +0.210 HD
ENDBRANCH  11   3
BRANCH   9   6
ATOM      6  N   UNL     1      -1.719   3.181  26.028  0.00  0.00    -0.293 NA
BRANCH   6  15
ATOM     15  C   UNL     1      -1.341   3.863  24.792  0.00  0.00    +0.081 C 
ATOM     18  C   UNL     1      -1.080   5.337  25.030  0.00  0.00    +0.020 C 
ENDBRANCH   6  15
BRANCH   6  16
ATOM     16  C   UNL     1      -0.647   2.290  26.470  0.00  0.00    +0.081 C 
ATOM     19  C   UNL     1       0.717   2.846  26.118  0.00  0.00    +0.020 C 
ENDBRANCH   6  16
ENDBRANCH   9   6
TORSDOF 7
ENDMDL
MODEL 5
REMARK VINA RESULT:       1.2      1.631      2.325
REMARK  Name = 25314629
REMARK  10 active torsions:
REMARK  status: ('A' for Active; 'I' for Inactive)
REMARK    1  A    between atoms: O_3  and  C_11
REMARK    2  A    between atoms: O_5  and  C_25
REMARK    3  A    between atoms: O_5  and  C_26
REMARK    4  A    between atoms: N_6  and  C_9
REMARK    5  A    between atoms: N_6  and  C_15
REMARK    6  A    between atoms: N_6  and  C_16
REMARK    7  A    between atoms: N_7  and  C_10
REMARK    8  A    between atoms: N_8  and  C_20
REMARK    9  A    between atoms: C_15  and  C_18
REMARK   10  A    between atoms: C_16  and  C_19
REMARK                            x       y       z     vdW  Elec       q    Type
REMARK                         _______ _______ _______ _____ _____    ______ ____
ROOT
ATOM      1  O   UNL     1      -4.234   2.342  26.333  0.00  0.00    -0.342 OA
ATOM      2  O   UNL     1      -6.177   2.858  25.174  0.00  0.00    -0.347 OA
ATOM      9  C   UNL     1      -4.616   1.289  24.198  0.00  0.00    +0.143 C 
ATOM     10  C   UNL     1      -3.250   3.468  24.442  0.00  0.00    +0.136 C 
ATOM     11  C   UNL     1      -3.878   2.438  23.476  0.00  0.00    +0.159 C 
ATOM     12  C   UNL     1      -4.047   3.636  25.752  0.00  0.00    +0.170 C 
ATOM     13  C   UNL     1      -5.265   1.795  25.499  0.00  0.00    +0.270 C 
ATOM     14  C   UNL     1      -5.490   4.060  25.550  0.00  0.00    +0.196 C 
ENDROOT
BRANCH  10   7
ATOM      4  O   UNL     1      -1.455   2.010  22.751  0.00  0.00    -0.252 OA
ATOM      7  N   UNL     1      -1.883   3.100  24.744  0.00  0.00    -0.291 N 
ATOM      8  N   UNL     1       0.189   2.176  24.419  0.00  0.00    -0.269 N 
ATOM     17  C   UNL     1      -1.075   2.384  23.858  0.00  0.00    +0.304 C 
ATOM     27  H   UNL     1      -1.524   3.304  25.672  0.00  0.00    +0.151 HD
ATOM     29  H   UNL     1       0.343   2.553  25.351  0.00  0.00    +0.156 HD
BRANCH   8  20
ATOM     20  C   UNL     1       1.292   1.498  23.848  0.00  0.00    +0.035 A 
ATOM     21  C   UNL     1       1.226   0.124  23.623  0.00  0.00    +0.027 A 
ATOM     22  C   UNL     1       2.445   2.206  23.510  0.00  0.00    +0.027 A 
ATOM     23  C   UNL     1       2.314  -0.544  23.059  0.00  0.00    +0.047 A 
ATOM     24  C   UNL     1       3.533   1.540  22.947  0.00  0.00    +0.047 A 
ATOM     25  C   UNL     1       3.468   0.165  22.722  0.00  0.00    +0.120 A 
BRANCH  25   5
ATOM      5  O   UNL     1       4.529  -0.486  22.171  0.00  0.00    -0.495 OA
ATOM     26  C   UNL     1       5.782  -0.371  22.843  0.00  0.00    +0.277 C 
ENDBRANCH  25   5
ENDBRANCH   8  20
ENDBRANCH  10   7
BRANCH  11   3
ATOM      3  O   UNL     1      -4.828   3.112  22.640  0.00  0.00    -0.388 OA
ATOM     28  H   UNL     1      -5.668   2.623  22.690  0.00  0.00    +0.210 HD
ENDBRANCH  11   3
BRANCH   9   6
ATOM      6  N   UNL     1      -3.682   0.202  24.500  0.00  0.00    -0.293 NA
BRANCH   6  15
ATOM     15  C   UNL     1      -3.607  -0.732  23.378  0.00  0.00    +0.081 C 
ATOM     18  C   UNL     1      -4.348  -2.020  23.680  0.00  0.00    +0.020 C 
ENDBRANCH   6  15
BRANCH   6  16
ATOM     16  C   UNL     1      -4.089  -0.493  25.721  0.00  0.00    +0.081 C 
ATOM     19  C   UNL     1      -2.929  -1.238  26.348  0.00  0.00    +0.020 C 
ENDBRANCH   6  16
ENDBRANCH   9   6
TORSDOF 7
ENDMDL
