MODEL 1
REMARK VINA RESULT:      -4.3      0.000      0.000
REMARK  Name = 45783443
REMARK  11 active torsions:
REMARK  status: ('A' for Active; 'I' for Inactive)
REMARK    1  A    between atoms: O_3  and  C_22
REMARK    2  A    between atoms: O_4  and  C_24
REMARK    3  A    between atoms: O_4  and  C_27
REMARK    4  A    between atoms: O_5  and  C_28
REMARK    5  A    between atoms: O_5  and  C_29
REMARK    6  A    between atoms: N_6  and  C_14
REMARK    7  A    between atoms: C_10  and  C_15
REMARK    8  A    between atoms: C_14  and  C_16
REMARK    9  A    between atoms: C_18  and  C_21
REMARK   10  A    between atoms: C_19  and  C_22
REMARK   11  A    between atoms: C_27  and  C_28
REMARK                            x       y       z     vdW  Elec       q    Type
REMARK                         _______ _______ _______ _____ _____    ______ ____
ROOT
ATOM      1  O   UNL     1      -1.856   2.351  25.471  0.00  0.00    -0.336 OA
ATOM      7  N   UNL     1      -1.856   1.495  23.401  0.00  0.00    -0.189 NA
ATOM      8  N   UNL     1      -0.537   1.957  25.212  0.00  0.00    -0.054 NA
ATOM     15  C   UNL     1      -2.567   2.043  24.353  0.00  0.00    +0.245 A 
ATOM     18  C   UNL     1      -0.617   1.463  23.973  0.00  0.00    +0.221 A 
ENDROOT
BRANCH  18  21
ATOM      9  N   UNL     1       0.264  -0.100  22.442  0.00  0.00    -0.252 NA
ATOM     21  C   UNL     1       0.520   0.929  23.281  0.00  0.00    +0.115 A 
ATOM     23  C   UNL     1       1.780   1.465  23.489  0.00  0.00    +0.077 A 
ATOM     24  C   UNL     1       2.847   0.910  22.791  0.00  0.00    +0.124 A 
ATOM     25  C   UNL     1       1.325  -0.614  21.782  0.00  0.00    +0.115 A 
ATOM     26  C   UNL     1       2.624  -0.150  21.919  0.00  0.00    +0.065 A 
BRANCH  24   4
ATOM      4  O   UNL     1       4.104   1.402  22.961  0.00  0.00    -0.490 OA
BRANCH   4  27
ATOM     27  C   UNL     1       5.178   0.462  22.939  0.00  0.00    +0.257 C 
BRANCH  27  28
ATOM     28  C   UNL     1       5.735   0.315  24.341  0.00  0.00    +0.200 C 
BRANCH  28   5
ATOM      5  O   UNL     1       5.691  -1.057  24.716  0.00  0.00    -0.380 OA
ATOM     29  C   UNL     1       4.738  -1.776  23.943  0.00  0.00    +0.194 C 
ENDBRANCH  28   5
ENDBRANCH  27  28
ENDBRANCH   4  27
ENDBRANCH  24   4
ENDBRANCH  18  21
BRANCH  15  10
ATOM      6  N   UNL     1      -4.835   1.382  25.132  0.00  0.00    -0.284 NA
ATOM     10  C   UNL     1      -4.044   2.376  24.380  0.00  0.00    +0.146 C 
ATOM     11  C   UNL     1      -4.338   3.717  25.074  0.00  0.00    +0.030 C 
ATOM     12  C   UNL     1      -5.350   3.389  26.163  0.00  0.00    +0.017 C 
ATOM     13  C   UNL     1      -5.985   2.101  25.682  0.00  0.00    +0.085 C 
BRANCH   6  14
ATOM     14  C   UNL     1      -5.238   0.238  24.325  0.00  0.00    +0.159 C 
BRANCH  14  16
ATOM      2  O   UNL     1      -3.077  -0.613  25.054  0.00  0.00    -0.461 OA
ATOM     16  C   UNL     1      -4.244  -0.890  24.416  0.00  0.00    +0.119 A 
ATOM     17  C   UNL     1      -4.257  -2.193  23.975  0.00  0.00    +0.046 A 
ATOM     19  C   UNL     1      -2.337  -1.752  25.022  0.00  0.00    +0.131 A 
ATOM     20  C   UNL     1      -3.019  -2.753  24.369  0.00  0.00    +0.047 A 
BRANCH  19  22
ATOM     22  C   UNL     1      -1.016  -1.688  25.663  0.00  0.00    +0.230 C 
BRANCH  22   3
ATOM      3  O   UNL     1      -0.920  -0.521  26.483  0.00  0.00    -0.387 OA
ATOM     30  H   UNL     1      -1.284   0.218  25.966  0.00  0.00    +0.210 HD
ENDBRANCH  22   3
ENDBRANCH  19  22
ENDBRANCH  14  16
ENDBRANCH   6  14
ENDBRANCH  15  10
TORSDOF 10
ENDMDL
MODEL 2
REMARK VINA RESULT:      -3.4     16.919     19.290
REMARK  Name = 45783443
REMARK  11 active torsions:
REMARK  status: ('A' for Active; 'I' for Inactive)
REMARK    1  A    between atoms: O_3  and  C_22
REMARK    2  A    between atoms: O_4  and  C_24
REMARK    3  A    between atoms: O_4  and  C_27
REMARK    4  A    between atoms: O_5  and  C_28
REMARK    5  A    between atoms: O_5  and  C_29
REMARK    6  A    between atoms: N_6  and  C_14
REMARK    7  A    between atoms: C_10  and  C_15
REMARK    8  A    between atoms: C_14  and  C_16
REMARK    9  A    between atoms: C_18  and  C_21
REMARK   10  A    between atoms: C_19  and  C_22
REMARK   11  A    between atoms: C_27  and  C_28
REMARK                            x       y       z     vdW  Elec       q    Type
REMARK                         _______ _______ _______ _____ _____    ______ ____
ROOT
ATOM      1  O   UNL     1      14.820  -7.588  28.779  0.00  0.00    -0.336 OA
ATOM      7  N   UNL     1      16.923  -7.666  28.013  0.00  0.00    -0.189 NA
ATOM      8  N   UNL     1      14.797  -6.984  27.516  0.00  0.00    -0.054 NA
ATOM     15  C   UNL     1      16.110  -7.961  28.995  0.00  0.00    +0.245 A 
ATOM     18  C   UNL     1      16.073  -7.068  27.128  0.00  0.00    +0.221 A 
ENDROOT
BRANCH  18  21
ATOM      9  N   UNL     1      16.728  -7.493  24.903  0.00  0.00    -0.252 NA
ATOM     21  C   UNL     1      16.530  -6.565  25.865  0.00  0.00    +0.115 A 
ATOM     23  C   UNL     1      16.741  -5.206  25.689  0.00  0.00    +0.077 A 
ATOM     24  C   UNL     1      17.184  -4.773  24.445  0.00  0.00    +0.124 A 
ATOM     25  C   UNL     1      17.159  -7.034  23.706  0.00  0.00    +0.115 A 
ATOM     26  C   UNL     1      17.400  -5.698  23.428  0.00  0.00    +0.065 A 
BRANCH  24   4
ATOM      4  O   UNL     1      17.405  -3.449  24.222  0.00  0.00    -0.490 OA
BRANCH   4  27
ATOM     27  C   UNL     1      17.220  -2.976  22.888  0.00  0.00    +0.257 C 
BRANCH  27  28
ATOM     28  C   UNL     1      17.031  -1.471  22.919  0.00  0.00    +0.200 C 
BRANCH  28   5
ATOM      5  O   UNL     1      15.743  -1.156  22.404  0.00  0.00    -0.380 OA
ATOM     29  C   UNL     1      14.976  -2.330  22.167  0.00  0.00    +0.194 C 
ENDBRANCH  28   5
ENDBRANCH  27  28
ENDBRANCH   4  27
ENDBRANCH  24   4
ENDBRANCH  18  21
BRANCH  15  10
ATOM      6  N   UNL     1      15.845  -7.919  31.468  0.00  0.00    -0.284 NA
ATOM     10  C   UNL     1      16.403  -8.648  30.312  0.00  0.00    +0.146 C 
ATOM     11  C   UNL     1      15.782 -10.054  30.399  0.00  0.00    +0.030 C 
ATOM     12  C   UNL     1      14.941 -10.040  31.668  0.00  0.00    +0.017 C 
ATOM     13  C   UNL     1      15.555  -8.925  32.490  0.00  0.00    +0.085 C 
BRANCH   6  14
ATOM     14  C   UNL     1      16.726  -6.870  31.965  0.00  0.00    +0.159 C 
BRANCH  14  16
ATOM      2  O   UNL     1      16.568  -4.606  31.085  0.00  0.00    -0.461 OA
ATOM     16  C   UNL     1      16.057  -5.521  31.950  0.00  0.00    +0.119 A 
ATOM     17  C   UNL     1      14.998  -4.989  32.648  0.00  0.00    +0.046 A 
ATOM     19  C   UNL     1      15.827  -3.476  31.232  0.00  0.00    +0.131 A 
ATOM     20  C   UNL     1      14.849  -3.661  32.182  0.00  0.00    +0.047 A 
BRANCH  19  22
ATOM     22  C   UNL     1      16.204  -2.336  30.384  0.00  0.00    +0.230 C 
BRANCH  22   3
ATOM      3  O   UNL     1      16.415  -1.172  31.188  0.00  0.00    -0.387 OA
ATOM     30  H   UNL     1      17.372  -1.101  31.337  0.00  0.00    +0.210 HD
ENDBRANCH  22   3
ENDBRANCH  19  22
ENDBRANCH  14  16
ENDBRANCH   6  14
ENDBRANCH  15  10
TORSDOF 10
ENDMDL
MODEL 3
REMARK VINA RESULT:      -2.9     16.511     18.452
REMARK  Name = 45783443
REMARK  11 active torsions:
REMARK  status: ('A' for Active; 'I' for Inactive)
REMARK    1  A    between atoms: O_3  and  C_22
REMARK    2  A    between atoms: O_4  and  C_24
REMARK    3  A    between atoms: O_4  and  C_27
REMARK    4  A    between atoms: O_5  and  C_28
REMARK    5  A    between atoms: O_5  and  C_29
REMARK    6  A    between atoms: N_6  and  C_14
REMARK    7  A    between atoms: C_10  and  C_15
REMARK    8  A    between atoms: C_14  and  C_16
REMARK    9  A    between atoms: C_18  and  C_21
REMARK   10  A    between atoms: C_19  and  C_22
REMARK   11  A    between atoms: C_27  and  C_28
REMARK                            x       y       z     vdW  Elec       q    Type
REMARK                         _______ _______ _______ _____ _____    ______ ____
ROOT
ATOM      1  O   UNL     1      14.897  -6.980  28.423  0.00  0.00    -0.336 OA
ATOM      7  N   UNL     1      16.970  -6.448  27.762  0.00  0.00    -0.189 NA
ATOM      8  N   UNL     1      14.864  -6.950  27.023  0.00  0.00    -0.054 NA
ATOM     15  C   UNL     1      16.174  -6.673  28.776  0.00  0.00    +0.245 A 
ATOM     18  C   UNL     1      16.122  -6.630  26.708  0.00  0.00    +0.221 A 
ENDROOT
BRANCH  18  21
ATOM      9  N   UNL     1      16.790  -7.635  24.682  0.00  0.00    -0.252 NA
ATOM     21  C   UNL     1      16.563  -6.483  25.351  0.00  0.00    +0.115 A 
ATOM     23  C   UNL     1      16.732  -5.221  24.804  0.00  0.00    +0.077 A 
ATOM     24  C   UNL     1      17.161  -5.136  23.484  0.00  0.00    +0.124 A 
ATOM     25  C   UNL     1      17.206  -7.513  23.401  0.00  0.00    +0.115 A 
ATOM     26  C   UNL     1      17.405  -6.300  22.762  0.00  0.00    +0.065 A 
BRANCH  24   4
ATOM      4  O   UNL     1      17.341  -3.921  22.901  0.00  0.00    -0.490 OA
BRANCH   4  27
ATOM     27  C   UNL     1      16.525  -2.848  23.370  0.00  0.00    +0.257 C 
BRANCH  27  28
ATOM     28  C   UNL     1      17.154  -1.531  22.959  0.00  0.00    +0.200 C 
BRANCH  28   5
ATOM      5  O   UNL     1      17.119  -0.636  24.065  0.00  0.00    -0.380 OA
ATOM     29  C   UNL     1      17.083  -1.338  25.300  0.00  0.00    +0.194 C 
ENDBRANCH  28   5
ENDBRANCH  27  28
ENDBRANCH   4  27
ENDBRANCH  24   4
ENDBRANCH  18  21
BRANCH  15  10
ATOM      6  N   UNL     1      15.263  -6.798  31.088  0.00  0.00    -0.284 NA
ATOM     10  C   UNL     1      16.475  -6.639  30.260  0.00  0.00    +0.146 C 
ATOM     11  C   UNL     1      17.405  -7.782  30.703  0.00  0.00    +0.030 C 
ATOM     12  C   UNL     1      16.659  -8.491  31.824  0.00  0.00    +0.017 C 
ATOM     13  C   UNL     1      15.694  -7.439  32.331  0.00  0.00    +0.085 C 
BRANCH   6  14
ATOM     14  C   UNL     1      14.564  -5.543  31.331  0.00  0.00    +0.159 C 
BRANCH  14  16
ATOM      2  O   UNL     1      12.663  -7.016  31.701  0.00  0.00    -0.461 OA
ATOM     16  C   UNL     1      13.176  -5.769  31.867  0.00  0.00    +0.119 A 
ATOM     17  C   UNL     1      12.274  -4.957  32.515  0.00  0.00    +0.046 A 
ATOM     19  C   UNL     1      11.419  -7.001  32.250  0.00  0.00    +0.131 A 
ATOM     20  C   UNL     1      11.133  -5.757  32.763  0.00  0.00    +0.047 A 
BRANCH  19  22
ATOM     22  C   UNL     1      10.664  -8.260  32.186  0.00  0.00    +0.230 C 
BRANCH  22   3
ATOM      3  O   UNL     1       9.281  -8.021  32.457  0.00  0.00    -0.387 OA
ATOM     30  H   UNL     1       9.132  -7.067  32.348  0.00  0.00    +0.210 HD
ENDBRANCH  22   3
ENDBRANCH  19  22
ENDBRANCH  14  16
ENDBRANCH   6  14
ENDBRANCH  15  10
TORSDOF 10
ENDMDL
MODEL 4
REMARK VINA RESULT:      -1.9      1.569      3.185
REMARK  Name = 45783443
REMARK  11 active torsions:
REMARK  status: ('A' for Active; 'I' for Inactive)
REMARK    1  A    between atoms: O_3  and  C_22
REMARK    2  A    between atoms: O_4  and  C_24
REMARK    3  A    between atoms: O_4  and  C_27
REMARK    4  A    between atoms: O_5  and  C_28
REMARK    5  A    between atoms: O_5  and  C_29
REMARK    6  A    between atoms: N_6  and  C_14
REMARK    7  A    between atoms: C_10  and  C_15
REMARK    8  A    between atoms: C_14  and  C_16
REMARK    9  A    between atoms: C_18  and  C_21
REMARK   10  A    between atoms: C_19  and  C_22
REMARK   11  A    between atoms: C_27  and  C_28
REMARK                            x       y       z     vdW  Elec       q    Type
REMARK                         _______ _______ _______ _____ _____    ______ ____
ROOT
ATOM      1  O   UNL     1      -2.090  -0.065  26.174  0.00  0.00    -0.336 OA
ATOM      7  N   UNL     1      -2.077   0.783  24.101  0.00  0.00    -0.189 NA
ATOM      8  N   UNL     1      -0.832  -0.368  25.637  0.00  0.00    -0.054 NA
ATOM     15  C   UNL     1      -2.760   0.613  25.204  0.00  0.00    +0.245 A 
ATOM     18  C   UNL     1      -0.901   0.165  24.413  0.00  0.00    +0.221 A 
ENDROOT
BRANCH  18  21
ATOM      9  N   UNL     1      -0.047  -0.629  22.363  0.00  0.00    -0.252 NA
ATOM     21  C   UNL     1       0.186   0.096  23.480  0.00  0.00    +0.115 A 
ATOM     23  C   UNL     1       1.380   0.746  23.748  0.00  0.00    +0.077 A 
ATOM     24  C   UNL     1       2.400   0.647  22.809  0.00  0.00    +0.124 A 
ATOM     25  C   UNL     1       0.968  -0.703  21.473  0.00  0.00    +0.115 A 
ATOM     26  C   UNL     1       2.199  -0.090  21.646  0.00  0.00    +0.065 A 
BRANCH  24   4
ATOM      4  O   UNL     1       3.591   1.268  23.025  0.00  0.00    -0.490 OA
BRANCH   4  27
ATOM     27  C   UNL     1       4.774   0.521  22.744  0.00  0.00    +0.257 C 
BRANCH  27  28
ATOM     28  C   UNL     1       5.662   0.519  23.974  0.00  0.00    +0.200 C 
BRANCH  28   5
ATOM      5  O   UNL     1       5.469  -0.701  24.681  0.00  0.00    -0.380 OA
ATOM     29  C   UNL     1       4.788  -1.662  23.885  0.00  0.00    +0.194 C 
ENDBRANCH  28   5
ENDBRANCH  27  28
ENDBRANCH   4  27
ENDBRANCH  24   4
ENDBRANCH  18  21
BRANCH  15  10
ATOM      6  N   UNL     1      -4.494   2.381  24.970  0.00  0.00    -0.284 NA
ATOM     10  C   UNL     1      -4.166   1.061  25.542  0.00  0.00    +0.146 C 
ATOM     11  C   UNL     1      -5.242   0.113  24.983  0.00  0.00    +0.030 C 
ATOM     12  C   UNL     1      -6.164   0.999  24.158  0.00  0.00    +0.017 C 
ATOM     13  C   UNL     1      -5.939   2.382  24.735  0.00  0.00    +0.085 C 
BRANCH   6  14
ATOM     14  C   UNL     1      -4.075   3.493  25.812  0.00  0.00    +0.159 C 
BRANCH  14  16
ATOM      2  O   UNL     1      -1.682   3.147  26.100  0.00  0.00    -0.461 OA
ATOM     16  C   UNL     1      -2.654   3.906  25.529  0.00  0.00    +0.119 A 
ATOM     17  C   UNL     1      -2.100   4.926  24.791  0.00  0.00    +0.046 A 
ATOM     19  C   UNL     1      -0.495   3.687  25.720  0.00  0.00    +0.131 A 
ATOM     20  C   UNL     1      -0.698   4.784  24.915  0.00  0.00    +0.047 A 
BRANCH  19  22
ATOM     22  C   UNL     1       0.714   3.020  26.226  0.00  0.00    +0.230 C 
BRANCH  22   3
ATOM      3  O   UNL     1       0.357   1.904  27.045  0.00  0.00    -0.387 OA
ATOM     30  H   UNL     1       1.137   1.326  27.091  0.00  0.00    +0.210 HD
ENDBRANCH  22   3
ENDBRANCH  19  22
ENDBRANCH  14  16
ENDBRANCH   6  14
ENDBRANCH  15  10
TORSDOF 10
ENDMDL
MODEL 5
REMARK VINA RESULT:      -1.4      1.968      3.782
REMARK  Name = 45783443
REMARK  11 active torsions:
REMARK  status: ('A' for Active; 'I' for Inactive)
REMARK    1  A    between atoms: O_3  and  C_22
REMARK    2  A    between atoms: O_4  and  C_24
REMARK    3  A    between atoms: O_4  and  C_27
REMARK    4  A    between atoms: O_5  and  C_28
REMARK    5  A    between atoms: O_5  and  C_29
REMARK    6  A    between atoms: N_6  and  C_14
REMARK    7  A    between atoms: C_10  and  C_15
REMARK    8  A    between atoms: C_14  and  C_16
REMARK    9  A    between atoms: C_18  and  C_21
REMARK   10  A    between atoms: C_19  and  C_22
REMARK   11  A    between atoms: C_27  and  C_28
REMARK                            x       y       z     vdW  Elec       q    Type
REMARK                         _______ _______ _______ _____ _____    ______ ____
ROOT
ATOM      1  O   UNL     1      -4.671  -0.279  24.509  0.00  0.00    -0.336 OA
ATOM      7  N   UNL     1      -2.873   0.778  25.324  0.00  0.00    -0.189 NA
ATOM      8  N   UNL     1      -3.561  -1.030  24.102  0.00  0.00    -0.054 NA
ATOM     15  C   UNL     1      -4.177   0.767  25.223  0.00  0.00    +0.245 A 
ATOM     18  C   UNL     1      -2.538  -0.343  24.621  0.00  0.00    +0.221 A 
ENDROOT
BRANCH  18  21
ATOM      9  N   UNL     1      -0.776  -1.794  25.217  0.00  0.00    -0.252 NA
ATOM     21  C   UNL     1      -1.173  -0.750  24.455  0.00  0.00    +0.115 A 
ATOM     23  C   UNL     1      -0.350  -0.086  23.559  0.00  0.00    +0.077 A 
ATOM     24  C   UNL     1       0.964  -0.522  23.437  0.00  0.00    +0.124 A 
ATOM     25  C   UNL     1       0.508  -2.189  25.071  0.00  0.00    +0.115 A 
ATOM     26  C   UNL     1       1.410  -1.593  24.204  0.00  0.00    +0.065 A 
BRANCH  24   4
ATOM      4  O   UNL     1       1.811   0.096  22.570  0.00  0.00    -0.490 OA
BRANCH   4  27
ATOM     27  C   UNL     1       3.190  -0.266  22.640  0.00  0.00    +0.257 C 
BRANCH  27  28
ATOM     28  C   UNL     1       4.032   0.995  22.690  0.00  0.00    +0.200 C 
BRANCH  28   5
ATOM      5  O   UNL     1       4.999   0.865  23.726  0.00  0.00    -0.380 OA
ATOM     29  C   UNL     1       5.376  -0.492  23.918  0.00  0.00    +0.194 C 
ENDBRANCH  28   5
ENDBRANCH  27  28
ENDBRANCH   4  27
ENDBRANCH  24   4
ENDBRANCH  18  21
BRANCH  15  10
ATOM      6  N   UNL     1      -4.861   3.146  25.472  0.00  0.00    -0.284 NA
ATOM     10  C   UNL     1      -5.193   1.742  25.782  0.00  0.00    +0.146 C 
ATOM     11  C   UNL     1      -6.600   1.533  25.197  0.00  0.00    +0.030 C 
ATOM     12  C   UNL     1      -7.003   2.889  24.634  0.00  0.00    +0.017 C 
ATOM     13  C   UNL     1      -6.134   3.865  25.401  0.00  0.00    +0.085 C 
BRANCH   6  14
ATOM     14  C   UNL     1      -3.945   3.746  26.434  0.00  0.00    +0.159 C 
BRANCH  14  16
ATOM      2  O   UNL     1      -1.716   3.134  25.671  0.00  0.00    -0.461 OA
ATOM     16  C   UNL     1      -2.634   4.127  25.797  0.00  0.00    +0.119 A 
ATOM     17  C   UNL     1      -2.141   5.309  25.296  0.00  0.00    +0.046 A 
ATOM     19  C   UNL     1      -0.624   3.687  25.081  0.00  0.00    +0.131 A 
ATOM     20  C   UNL     1      -0.835   5.023  24.830  0.00  0.00    +0.047 A 
BRANCH  19  22
ATOM     22  C   UNL     1       0.512   2.786  24.841  0.00  0.00    +0.230 C 
BRANCH  22   3
ATOM      3  O   UNL     1       0.780   2.007  26.009  0.00  0.00    -0.387 OA
ATOM     30  H   UNL     1       1.725   1.778  25.986  0.00  0.00    +0.210 HD
ENDBRANCH  22   3
ENDBRANCH  19  22
ENDBRANCH  14  16
ENDBRANCH   6  14
ENDBRANCH  15  10
TORSDOF 10
ENDMDL
