MODEL 1
REMARK VINA RESULT:       3.7      0.000      0.000
REMARK  Name = 51136963
REMARK  4 active torsions:
REMARK  status: ('A' for Active; 'I' for Inactive)
REMARK    1  A    between atoms: N_3  and  C_8
REMARK    2  A    between atoms: C_9  and  C_17
REMARK    3  A    between atoms: C_18  and  C_19
REMARK    4  A    between atoms: C_23  and  C_24
REMARK                            x       y       z     vdW  Elec       q    Type
REMARK                         _______ _______ _______ _____ _____    ______ ____
ROOT
ATOM      2  O   UNL     1      -2.648   3.099  23.585  0.00  0.00    -0.336 OA
ATOM      4  N   UNL     1      -2.052   0.989  24.041  0.00  0.00    -0.190 NA
ATOM      5  N   UNL     1      -1.267   3.030  23.368  0.00  0.00    -0.056 NA
ATOM     17  C   UNL     1      -3.030   1.857  23.979  0.00  0.00    +0.245 A 
ATOM     18  C   UNL     1      -0.990   1.755  23.657  0.00  0.00    +0.204 A 
ENDROOT
BRANCH  18  19
ATOM      6  N   UNL     1       2.725   1.588  23.625  0.00  0.00    -0.254 NA
ATOM     19  C   UNL     1       0.337   1.215  23.575  0.00  0.00    +0.041 A 
ATOM     20  C   UNL     1       0.545  -0.144  23.375  0.00  0.00    +0.015 A 
ATOM     21  C   UNL     1       1.450   2.032  23.693  0.00  0.00    +0.123 A 
ATOM     22  C   UNL     1       1.843  -0.640  23.300  0.00  0.00    +0.029 A 
ATOM     23  C   UNL     1       2.889   0.261  23.429  0.00  0.00    +0.071 A 
BRANCH  23  24
ATOM      7  N   UNL     1       6.919  -1.040  23.235  0.00  0.00    -0.263 NA
ATOM     24  C   UNL     1       4.261  -0.182  23.363  0.00  0.00    +0.003 A 
ATOM     25  C   UNL     1       5.257   0.691  22.936  0.00  0.00    +0.030 A 
ATOM     26  C   UNL     1       4.594  -1.482  23.726  0.00  0.00    +0.030 A 
ATOM     27  C   UNL     1       6.558   0.218  22.891  0.00  0.00    +0.111 A 
ATOM     28  C   UNL     1       5.924  -1.859  23.644  0.00  0.00    +0.111 A 
ENDBRANCH  23  24
ENDBRANCH  18  19
BRANCH  17   9
ATOM      3  N   UNL     1      -4.735   0.915  25.528  0.00  0.00    -0.288 NA
ATOM      9  C   UNL     1      -4.503   1.667  24.279  0.00  0.00    +0.146 C 
ATOM     10  C   UNL     1      -6.014   1.385  26.062  0.00  0.00    +0.085 C 
ATOM     11  C   UNL     1      -5.244   3.002  24.482  0.00  0.00    +0.030 C 
ATOM     12  C   UNL     1      -5.912   2.881  25.845  0.00  0.00    +0.017 C 
BRANCH   3   8
ATOM      1  O   UNL     1      -3.403  -2.868  24.286  0.00  0.00    -0.380 OA
ATOM      8  C   UNL     1      -4.718  -0.534  25.340  0.00  0.00    +0.062 C 
ATOM     13  C   UNL     1      -3.497  -1.163  26.016  0.00  0.00    +0.047 C 
ATOM     14  C   UNL     1      -4.726  -0.877  23.847  0.00  0.00    +0.047 C 
ATOM     15  C   UNL     1      -3.423  -2.653  25.698  0.00  0.00    +0.161 C 
ATOM     16  C   UNL     1      -4.584  -2.382  23.649  0.00  0.00    +0.161 C 
ENDBRANCH   3   8
ENDBRANCH  17   9
TORSDOF 4
ENDMDL
MODEL 2
REMARK VINA RESULT:       6.8      1.703      3.601
REMARK  Name = 51136963
REMARK  4 active torsions:
REMARK  status: ('A' for Active; 'I' for Inactive)
REMARK    1  A    between atoms: N_3  and  C_8
REMARK    2  A    between atoms: C_9  and  C_17
REMARK    3  A    between atoms: C_18  and  C_19
REMARK    4  A    between atoms: C_23  and  C_24
REMARK                            x       y       z     vdW  Elec       q    Type
REMARK                         _______ _______ _______ _____ _____    ______ ____
ROOT
ATOM      2  O   UNL     1      -1.126   0.588  23.118  0.00  0.00    -0.336 OA
ATOM      4  N   UNL     1       0.165  -0.737  24.380  0.00  0.00    -0.190 NA
ATOM      5  N   UNL     1       0.192   0.824  22.708  0.00  0.00    -0.056 NA
ATOM     17  C   UNL     1      -1.053  -0.342  24.105  0.00  0.00    +0.245 A 
ATOM     18  C   UNL     1       0.894   0.006  23.497  0.00  0.00    +0.204 A 
ENDROOT
BRANCH  18  19
ATOM      6  N   UNL     1       4.440   0.934  22.873  0.00  0.00    -0.254 NA
ATOM     19  C   UNL     1       2.324  -0.092  23.432  0.00  0.00    +0.041 A 
ATOM     20  C   UNL     1       2.982  -1.246  23.840  0.00  0.00    +0.015 A 
ATOM     21  C   UNL     1       3.091   0.961  22.960  0.00  0.00    +0.123 A 
ATOM     22  C   UNL     1       4.369  -1.312  23.766  0.00  0.00    +0.029 A 
ATOM     23  C   UNL     1       5.046  -0.205  23.279  0.00  0.00    +0.071 A 
BRANCH  23  24
ATOM      7  N   UNL     1       9.274  -0.193  22.970  0.00  0.00    -0.263 NA
ATOM     24  C   UNL     1       6.485  -0.201  23.174  0.00  0.00    +0.003 A 
ATOM     25  C   UNL     1       7.135  -1.189  22.440  0.00  0.00    +0.030 A 
ATOM     26  C   UNL     1       7.229   0.790  23.805  0.00  0.00    +0.030 A 
ATOM     27  C   UNL     1       8.517  -1.140  22.370  0.00  0.00    +0.111 A 
ATOM     28  C   UNL     1       8.607   0.750  23.674  0.00  0.00    +0.111 A 
ENDBRANCH  23  24
ENDBRANCH  18  19
BRANCH  17   9
ATOM      3  N   UNL     1      -3.520  -0.030  24.186  0.00  0.00    -0.288 NA
ATOM      9  C   UNL     1      -2.365  -0.776  24.724  0.00  0.00    +0.146 C 
ATOM     10  C   UNL     1      -4.670  -0.930  24.273  0.00  0.00    +0.085 C 
ATOM     11  C   UNL     1      -2.692  -2.255  24.447  0.00  0.00    +0.030 C 
ATOM     12  C   UNL     1      -4.075  -2.244  23.810  0.00  0.00    +0.017 C 
BRANCH   3   8
ATOM      1  O   UNL     1      -5.154   3.751  25.002  0.00  0.00    -0.380 OA
ATOM      8  C   UNL     1      -3.760   1.236  24.877  0.00  0.00    +0.062 C 
ATOM     13  C   UNL     1      -5.215   1.345  25.339  0.00  0.00    +0.047 C 
ATOM     14  C   UNL     1      -3.409   2.414  23.964  0.00  0.00    +0.047 C 
ATOM     15  C   UNL     1      -5.480   2.722  25.937  0.00  0.00    +0.161 C 
ATOM     16  C   UNL     1      -3.774   3.733  24.638  0.00  0.00    +0.161 C 
ENDBRANCH   3   8
ENDBRANCH  17   9
TORSDOF 4
ENDMDL
MODEL 3
REMARK VINA RESULT:       7.6      1.818      3.623
REMARK  Name = 51136963
REMARK  4 active torsions:
REMARK  status: ('A' for Active; 'I' for Inactive)
REMARK    1  A    between atoms: N_3  and  C_8
REMARK    2  A    between atoms: C_9  and  C_17
REMARK    3  A    between atoms: C_18  and  C_19
REMARK    4  A    between atoms: C_23  and  C_24
REMARK                            x       y       z     vdW  Elec       q    Type
REMARK                         _______ _______ _______ _____ _____    ______ ____
ROOT
ATOM      2  O   UNL     1      -0.925   0.202  22.702  0.00  0.00    -0.336 OA
ATOM      4  N   UNL     1       0.380  -0.508  24.379  0.00  0.00    -0.190 NA
ATOM      5  N   UNL     1       0.394   0.325  22.248  0.00  0.00    -0.056 NA
ATOM     17  C   UNL     1      -0.843  -0.294  23.964  0.00  0.00    +0.245 A 
ATOM     18  C   UNL     1       1.104  -0.113  23.291  0.00  0.00    +0.204 A 
ENDROOT
BRANCH  18  19
ATOM      6  N   UNL     1       4.640   0.880  22.711  0.00  0.00    -0.254 NA
ATOM     19  C   UNL     1       2.538  -0.169  23.281  0.00  0.00    +0.041 A 
ATOM     20  C   UNL     1       3.216  -1.264  23.802  0.00  0.00    +0.015 A 
ATOM     21  C   UNL     1       3.289   0.869  22.751  0.00  0.00    +0.123 A 
ATOM     22  C   UNL     1       4.606  -1.289  23.779  0.00  0.00    +0.029 A 
ATOM     23  C   UNL     1       5.266  -0.202  23.227  0.00  0.00    +0.071 A 
BRANCH  23  24
ATOM      7  N   UNL     1       9.500  -0.079  23.059  0.00  0.00    -0.263 NA
ATOM     24  C   UNL     1       6.707  -0.160  23.169  0.00  0.00    +0.003 A 
ATOM     25  C   UNL     1       7.404   0.839  23.842  0.00  0.00    +0.030 A 
ATOM     26  C   UNL     1       7.406  -1.118  22.443  0.00  0.00    +0.030 A 
ATOM     27  C   UNL     1       8.787   0.835  23.756  0.00  0.00    +0.111 A 
ATOM     28  C   UNL     1       8.788  -1.034  22.419  0.00  0.00    +0.111 A 
ENDBRANCH  23  24
ENDBRANCH  18  19
BRANCH  17   9
ATOM      3  N   UNL     1      -3.315  -0.007  23.933  0.00  0.00    -0.288 NA
ATOM      9  C   UNL     1      -2.155  -0.522  24.687  0.00  0.00    +0.146 C 
ATOM     10  C   UNL     1      -4.454  -0.848  24.303  0.00  0.00    +0.085 C 
ATOM     11  C   UNL     1      -2.461  -2.016  24.903  0.00  0.00    +0.030 C 
ATOM     12  C   UNL     1      -3.838  -2.231  24.293  0.00  0.00    +0.017 C 
BRANCH   3   8
ATOM      1  O   UNL     1      -4.125   3.533  26.040  0.00  0.00    -0.380 OA
ATOM      8  C   UNL     1      -3.576   1.410  24.175  0.00  0.00    +0.062 C 
ATOM     13  C   UNL     1      -2.489   2.028  25.059  0.00  0.00    +0.047 C 
ATOM     14  C   UNL     1      -4.949   1.595  24.826  0.00  0.00    +0.047 C 
ATOM     15  C   UNL     1      -2.845   3.468  25.410  0.00  0.00    +0.161 C 
ATOM     16  C   UNL     1      -5.170   3.060  25.191  0.00  0.00    +0.161 C 
ENDBRANCH   3   8
ENDBRANCH  17   9
TORSDOF 4
ENDMDL
