MODEL 1
REMARK VINA RESULT:      -2.4      0.000      0.000
REMARK  Name = 71694020
REMARK  9 active torsions:
REMARK  status: ('A' for Active; 'I' for Inactive)
REMARK    1  A    between atoms: S_1  and  N_7
REMARK    2  A    between atoms: S_1  and  C_17
REMARK    3  A    between atoms: O_2  and  C_10
REMARK    4  A    between atoms: O_3  and  C_12
REMARK    5  A    between atoms: O_6  and  C_25
REMARK    6  A    between atoms: O_6  and  C_26
REMARK    7  A    between atoms: N_7  and  C_9
REMARK    8  A    between atoms: C_8  and  C_13
REMARK    9  A    between atoms: C_14  and  C_18
REMARK                            x       y       z     vdW  Elec       q    Type
REMARK                         _______ _______ _______ _____ _____    ______ ____
ROOT
ATOM      8  C   UNL     1      -2.777  -0.122  24.211  0.00  0.00    +0.043 C 
ATOM      9  C   UNL     1      -3.895  -0.118  25.290  0.00  0.00    +0.115 C 
ATOM     10  C   UNL     1      -4.063  -1.579  25.726  0.00  0.00    +0.162 C 
ATOM     11  C   UNL     1      -2.259  -1.570  24.164  0.00  0.00    +0.043 C 
ATOM     12  C   UNL     1      -3.477  -2.384  24.569  0.00  0.00    +0.145 C 
ENDROOT
BRANCH   8  13
ATOM     13  C   UNL     1      -1.683   0.893  24.454  0.00  0.00    -0.040 A 
ATOM     14  C   UNL     1      -1.306   1.795  23.460  0.00  0.00    -0.047 A 
ATOM     15  C   UNL     1      -1.045   0.917  25.696  0.00  0.00    +0.004 A 
ATOM     16  C   UNL     1      -0.294   2.722  23.707  0.00  0.00    +0.003 A 
ATOM     18  C   UNL     1      -1.972   1.789  22.124  0.00  0.00    +0.044 C 
ATOM     19  C   UNL     1      -0.033   1.844  25.942  0.00  0.00    +0.000 A 
ATOM     20  C   UNL     1       0.342   2.747  24.948  0.00  0.00    +0.000 A 
ENDBRANCH   8  13
BRANCH  10   2
ATOM      2  O   UNL     1      -3.299  -1.777  26.914  0.00  0.00    -0.388 OA
ATOM     28  H   UNL     1      -2.374  -1.560  26.706  0.00  0.00    +0.210 HD
ENDBRANCH  10   2
BRANCH  12   3
ATOM      3  O   UNL     1      -3.120  -3.699  24.944  0.00  0.00    -0.389 OA
ATOM     29  H   UNL     1      -2.452  -4.013  24.312  0.00  0.00    +0.210 HD
ENDBRANCH  12   3
BRANCH   9   7
ATOM      7  N   UNL     1      -5.163   0.364  24.681  0.00  0.00    -0.184 NA
ATOM     27  H   UNL     1      -5.414   0.009  23.751  0.00  0.00    +0.148 HD
BRANCH   7   1
ATOM      1  S   UNL     1      -5.964   1.707  25.345  0.00  0.00    +0.059 S 
ATOM      4  O   UNL     1      -6.295   1.434  26.731  0.00  0.00    -0.153 OA
ATOM      5  O   UNL     1      -6.994   2.141  24.421  0.00  0.00    -0.153 OA
BRANCH   1  17
ATOM     17  C   UNL     1      -4.695   2.937  25.320  0.00  0.00    +0.105 A 
ATOM     21  C   UNL     1      -3.973   3.216  26.480  0.00  0.00    +0.032 A 
ATOM     22  C   UNL     1      -4.416   3.628  24.141  0.00  0.00    +0.032 A 
ATOM     23  C   UNL     1      -2.971   4.186  26.462  0.00  0.00    +0.047 A 
ATOM     24  C   UNL     1      -3.414   4.598  24.123  0.00  0.00    +0.047 A 
ATOM     25  C   UNL     1      -2.692   4.877  25.283  0.00  0.00    +0.120 A 
BRANCH  25   6
ATOM      6  O   UNL     1      -1.715   5.825  25.265  0.00  0.00    -0.495 OA
ATOM     26  C   UNL     1      -0.596   5.589  24.412  0.00  0.00    +0.277 C 
ENDBRANCH  25   6
ENDBRANCH   1  17
ENDBRANCH   7   1
ENDBRANCH   9   7
TORSDOF 7
ENDMDL
MODEL 2
REMARK VINA RESULT:      -2.0      2.377      4.740
REMARK  Name = 71694020
REMARK  9 active torsions:
REMARK  status: ('A' for Active; 'I' for Inactive)
REMARK    1  A    between atoms: S_1  and  N_7
REMARK    2  A    between atoms: S_1  and  C_17
REMARK    3  A    between atoms: O_2  and  C_10
REMARK    4  A    between atoms: O_3  and  C_12
REMARK    5  A    between atoms: O_6  and  C_25
REMARK    6  A    between atoms: O_6  and  C_26
REMARK    7  A    between atoms: N_7  and  C_9
REMARK    8  A    between atoms: C_8  and  C_13
REMARK    9  A    between atoms: C_14  and  C_18
REMARK                            x       y       z     vdW  Elec       q    Type
REMARK                         _______ _______ _______ _____ _____    ______ ____
ROOT
ATOM      8  C   UNL     1      -4.156   1.064  24.470  0.00  0.00    +0.043 C 
ATOM      9  C   UNL     1      -4.160   2.287  25.427  0.00  0.00    +0.115 C 
ATOM     10  C   UNL     1      -5.637   2.610  25.691  0.00  0.00    +0.162 C 
ATOM     11  C   UNL     1      -5.631   0.652  24.325  0.00  0.00    +0.043 C 
ATOM     12  C   UNL     1      -6.375   1.964  24.521  0.00  0.00    +0.145 C 
ENDROOT
BRANCH   8  13
ATOM     13  C   UNL     1      -3.266  -0.070  24.925  0.00  0.00    -0.040 A 
ATOM     14  C   UNL     1      -3.462  -1.370  24.458  0.00  0.00    -0.047 A 
ATOM     15  C   UNL     1      -2.235   0.198  25.827  0.00  0.00    +0.004 A 
ATOM     16  C   UNL     1      -2.628  -2.400  24.891  0.00  0.00    +0.003 A 
ATOM     18  C   UNL     1      -4.558  -1.681  23.493  0.00  0.00    +0.044 C 
ATOM     19  C   UNL     1      -1.401  -0.833  26.260  0.00  0.00    +0.000 A 
ATOM     20  C   UNL     1      -1.598  -2.132  25.792  0.00  0.00    +0.000 A 
ENDBRANCH   8  13
BRANCH  10   2
ATOM      2  O   UNL     1      -6.011   1.994  26.922  0.00  0.00    -0.388 OA
ATOM     28  H   UNL     1      -6.405   2.683  27.485  0.00  0.00    +0.210 HD
ENDBRANCH  10   2
BRANCH  12   3
ATOM      3  O   UNL     1      -7.745   1.748  24.791  0.00  0.00    -0.389 OA
ATOM     29  H   UNL     1      -7.947   0.826  24.561  0.00  0.00    +0.210 HD
ENDBRANCH  12   3
BRANCH   9   7
ATOM      7  N   UNL     1      -3.517   3.444  24.749  0.00  0.00    -0.184 NA
ATOM     27  H   UNL     1      -3.940   3.785  23.878  0.00  0.00    +0.148 HD
BRANCH   7   1
ATOM      1  S   UNL     1      -1.958   3.936  25.209  0.00  0.00    +0.059 S 
ATOM      4  O   UNL     1      -1.811   3.790  26.646  0.00  0.00    -0.153 OA
ATOM      5  O   UNL     1      -1.660   5.203  24.571  0.00  0.00    -0.153 OA
BRANCH   1  17
ATOM     17  C   UNL     1      -0.946   2.713  24.431  0.00  0.00    +0.105 A 
ATOM     21  C   UNL     1       0.295   2.386  24.978  0.00  0.00    +0.032 A 
ATOM     22  C   UNL     1      -1.388   2.076  23.272  0.00  0.00    +0.032 A 
ATOM     23  C   UNL     1       1.094   1.421  24.364  0.00  0.00    +0.047 A 
ATOM     24  C   UNL     1      -0.589   1.111  22.659  0.00  0.00    +0.047 A 
ATOM     25  C   UNL     1       0.652   0.784  23.205  0.00  0.00    +0.120 A 
BRANCH  25   6
ATOM      6  O   UNL     1       1.433  -0.156  22.606  0.00  0.00    -0.495 OA
ATOM     26  C   UNL     1       2.820   0.147  22.461  0.00  0.00    +0.277 C 
ENDBRANCH  25   6
ENDBRANCH   1  17
ENDBRANCH   7   1
ENDBRANCH   9   7
TORSDOF 7
ENDMDL
MODEL 3
REMARK VINA RESULT:      -1.5      2.365      5.612
REMARK  Name = 71694020
REMARK  9 active torsions:
REMARK  status: ('A' for Active; 'I' for Inactive)
REMARK    1  A    between atoms: S_1  and  N_7
REMARK    2  A    between atoms: S_1  and  C_17
REMARK    3  A    between atoms: O_2  and  C_10
REMARK    4  A    between atoms: O_3  and  C_12
REMARK    5  A    between atoms: O_6  and  C_25
REMARK    6  A    between atoms: O_6  and  C_26
REMARK    7  A    between atoms: N_7  and  C_9
REMARK    8  A    between atoms: C_8  and  C_13
REMARK    9  A    between atoms: C_14  and  C_18
REMARK                            x       y       z     vdW  Elec       q    Type
REMARK                         _______ _______ _______ _____ _____    ______ ____
ROOT
ATOM      8  C   UNL     1      -4.242   2.438  24.356  0.00  0.00    +0.043 C 
ATOM      9  C   UNL     1      -3.279   3.276  25.241  0.00  0.00    +0.115 C 
ATOM     10  C   UNL     1      -4.172   4.218  26.059  0.00  0.00    +0.162 C 
ATOM     11  C   UNL     1      -5.660   2.844  24.796  0.00  0.00    +0.043 C 
ATOM     12  C   UNL     1      -5.476   4.278  25.267  0.00  0.00    +0.145 C 
ENDROOT
BRANCH   8  13
ATOM     13  C   UNL     1      -4.003   0.947  24.427  0.00  0.00    -0.040 A 
ATOM     14  C   UNL     1      -3.417   0.262  23.363  0.00  0.00    -0.047 A 
ATOM     15  C   UNL     1      -4.381   0.254  25.578  0.00  0.00    +0.004 A 
ATOM     16  C   UNL     1      -3.206  -1.114  23.450  0.00  0.00    +0.003 A 
ATOM     18  C   UNL     1      -3.005   0.980  22.121  0.00  0.00    +0.044 C 
ATOM     19  C   UNL     1      -4.170  -1.121  25.665  0.00  0.00    +0.000 A 
ATOM     20  C   UNL     1      -3.582  -1.806  24.602  0.00  0.00    +0.000 A 
ENDBRANCH   8  13
BRANCH  10   2
ATOM      2  O   UNL     1      -4.388   3.624  27.338  0.00  0.00    -0.388 OA
ATOM     28  H   UNL     1      -5.321   3.765  27.572  0.00  0.00    +0.210 HD
ENDBRANCH  10   2
BRANCH  12   3
ATOM      3  O   UNL     1      -6.571   4.711  26.048  0.00  0.00    -0.389 OA
ATOM     29  H   UNL     1      -6.938   5.503  25.623  0.00  0.00    +0.210 HD
ENDBRANCH  12   3
BRANCH   9   7
ATOM      7  N   UNL     1      -2.384   4.080  24.367  0.00  0.00    -0.184 NA
ATOM     27  H   UNL     1      -2.794   4.519  23.535  0.00  0.00    +0.148 HD
BRANCH   7   1
ATOM      1  S   UNL     1      -0.699   3.972  24.554  0.00  0.00    +0.059 S 
ATOM      4  O   UNL     1      -0.324   4.479  25.860  0.00  0.00    -0.153 OA
ATOM      5  O   UNL     1      -0.062   4.492  23.359  0.00  0.00    -0.153 OA
BRANCH   1  17
ATOM     17  C   UNL     1      -0.444   2.223  24.556  0.00  0.00    +0.105 A 
ATOM     21  C   UNL     1       0.128   1.601  23.447  0.00  0.00    +0.032 A 
ATOM     22  C   UNL     1      -0.816   1.465  25.667  0.00  0.00    +0.032 A 
ATOM     23  C   UNL     1       0.330   0.220  23.448  0.00  0.00    +0.047 A 
ATOM     24  C   UNL     1      -0.614   0.085  25.668  0.00  0.00    +0.047 A 
ATOM     25  C   UNL     1      -0.042  -0.538  24.559  0.00  0.00    +0.120 A 
BRANCH  25   6
ATOM      6  O   UNL     1       0.154  -1.885  24.559  0.00  0.00    -0.495 OA
ATOM     26  C   UNL     1      -0.263  -2.602  25.720  0.00  0.00    +0.277 C 
ENDBRANCH  25   6
ENDBRANCH   1  17
ENDBRANCH   7   1
ENDBRANCH   9   7
TORSDOF 7
ENDMDL
MODEL 4
REMARK VINA RESULT:      -1.3      2.228      4.767
REMARK  Name = 71694020
REMARK  9 active torsions:
REMARK  status: ('A' for Active; 'I' for Inactive)
REMARK    1  A    between atoms: S_1  and  N_7
REMARK    2  A    between atoms: S_1  and  C_17
REMARK    3  A    between atoms: O_2  and  C_10
REMARK    4  A    between atoms: O_3  and  C_12
REMARK    5  A    between atoms: O_6  and  C_25
REMARK    6  A    between atoms: O_6  and  C_26
REMARK    7  A    between atoms: N_7  and  C_9
REMARK    8  A    between atoms: C_8  and  C_13
REMARK    9  A    between atoms: C_14  and  C_18
REMARK                            x       y       z     vdW  Elec       q    Type
REMARK                         _______ _______ _______ _____ _____    ______ ____
ROOT
ATOM      8  C   UNL     1      -3.433   2.476  26.138  0.00  0.00    +0.043 C 
ATOM      9  C   UNL     1      -4.065   1.576  25.041  0.00  0.00    +0.115 C 
ATOM     10  C   UNL     1      -5.402   2.235  24.676  0.00  0.00    +0.162 C 
ATOM     11  C   UNL     1      -4.373   3.687  26.266  0.00  0.00    +0.043 C 
ATOM     12  C   UNL     1      -5.728   3.112  25.882  0.00  0.00    +0.145 C 
ENDROOT
BRANCH   8  13
ATOM     13  C   UNL     1      -1.998   2.866  25.863  0.00  0.00    -0.040 A 
ATOM     14  C   UNL     1      -1.693   3.941  25.028  0.00  0.00    -0.047 A 
ATOM     15  C   UNL     1      -0.971   2.131  26.457  0.00  0.00    +0.004 A 
ATOM     16  C   UNL     1      -0.362   4.282  24.789  0.00  0.00    +0.003 A 
ATOM     18  C   UNL     1      -2.774   4.741  24.381  0.00  0.00    +0.044 C 
ATOM     19  C   UNL     1       0.359   2.473  26.218  0.00  0.00    +0.000 A 
ATOM     20  C   UNL     1       0.664   3.548  25.384  0.00  0.00    +0.000 A 
ENDBRANCH   8  13
BRANCH  10   2
ATOM      2  O   UNL     1      -5.198   3.034  23.513  0.00  0.00    -0.388 OA
ATOM     28  H   UNL     1      -4.896   2.443  22.801  0.00  0.00    +0.210 HD
ENDBRANCH  10   2
BRANCH  12   3
ATOM      3  O   UNL     1      -6.657   4.133  25.579  0.00  0.00    -0.389 OA
ATOM     29  H   UNL     1      -6.946   4.524  26.421  0.00  0.00    +0.210 HD
ENDBRANCH  12   3
BRANCH   9   7
ATOM      7  N   UNL     1      -4.320   0.223  25.603  0.00  0.00    -0.184 NA
ATOM     27  H   UNL     1      -4.679   0.162  26.563  0.00  0.00    +0.148 HD
BRANCH   7   1
ATOM      1  S   UNL     1      -3.705  -1.151  24.815  0.00  0.00    +0.059 S 
ATOM      4  O   UNL     1      -4.489  -1.415  23.624  0.00  0.00    -0.153 OA
ATOM      5  O   UNL     1      -3.493  -2.197  25.796  0.00  0.00    -0.153 OA
BRANCH   1  17
ATOM     17  C   UNL     1      -2.108  -0.592  24.303  0.00  0.00    +0.105 A 
ATOM     21  C   UNL     1      -1.997   0.488  23.428  0.00  0.00    +0.032 A 
ATOM     22  C   UNL     1      -0.961  -1.230  24.773  0.00  0.00    +0.032 A 
ATOM     23  C   UNL     1      -0.736   0.930  23.023  0.00  0.00    +0.047 A 
ATOM     24  C   UNL     1       0.299  -0.788  24.369  0.00  0.00    +0.047 A 
ATOM     25  C   UNL     1       0.411   0.292  23.493  0.00  0.00    +0.120 A 
BRANCH  25   6
ATOM      6  O   UNL     1       1.640   0.723  23.097  0.00  0.00    -0.495 OA
ATOM     26  C   UNL     1       2.391  -0.147  22.251  0.00  0.00    +0.277 C 
ENDBRANCH  25   6
ENDBRANCH   1  17
ENDBRANCH   7   1
ENDBRANCH   9   7
TORSDOF 7
ENDMDL
MODEL 5
REMARK VINA RESULT:      -1.2      2.345      3.706
REMARK  Name = 71694020
REMARK  9 active torsions:
REMARK  status: ('A' for Active; 'I' for Inactive)
REMARK    1  A    between atoms: S_1  and  N_7
REMARK    2  A    between atoms: S_1  and  C_17
REMARK    3  A    between atoms: O_2  and  C_10
REMARK    4  A    between atoms: O_3  and  C_12
REMARK    5  A    between atoms: O_6  and  C_25
REMARK    6  A    between atoms: O_6  and  C_26
REMARK    7  A    between atoms: N_7  and  C_9
REMARK    8  A    between atoms: C_8  and  C_13
REMARK    9  A    between atoms: C_14  and  C_18
REMARK                            x       y       z     vdW  Elec       q    Type
REMARK                         _______ _______ _______ _____ _____    ______ ____
ROOT
ATOM      8  C   UNL     1      -1.017   1.046  23.514  0.00  0.00    +0.043 C 
ATOM      9  C   UNL     1      -1.465  -0.182  24.351  0.00  0.00    +0.115 C 
ATOM     10  C   UNL     1      -0.238  -1.099  24.443  0.00  0.00    +0.162 C 
ATOM     11  C   UNL     1       0.488   0.846  23.266  0.00  0.00    +0.043 C 
ATOM     12  C   UNL     1       0.639  -0.667  23.270  0.00  0.00    +0.145 C 
ENDROOT
BRANCH   8  13
ATOM     13  C   UNL     1      -1.342   2.378  24.152  0.00  0.00    -0.040 A 
ATOM     14  C   UNL     1      -2.424   3.140  23.713  0.00  0.00    -0.047 A 
ATOM     15  C   UNL     1      -0.539   2.843  25.194  0.00  0.00    +0.004 A 
ATOM     16  C   UNL     1      -2.705   4.366  24.316  0.00  0.00    +0.003 A 
ATOM     18  C   UNL     1      -3.297   2.664  22.599  0.00  0.00    +0.044 C 
ATOM     19  C   UNL     1      -0.820   4.068  25.797  0.00  0.00    +0.000 A 
ATOM     20  C   UNL     1      -1.902   4.830  25.359  0.00  0.00    +0.000 A 
ENDBRANCH   8  13
BRANCH  10   2
ATOM      2  O   UNL     1       0.417  -0.839  25.683  0.00  0.00    -0.388 OA
ATOM     28  H   UNL     1      -0.183  -0.295  26.221  0.00  0.00    +0.210 HD
ENDBRANCH  10   2
BRANCH  12   3
ATOM      3  O   UNL     1       1.990  -1.053  23.427  0.00  0.00    -0.389 OA
ATOM     29  H   UNL     1       2.367  -1.163  22.538  0.00  0.00    +0.210 HD
ENDBRANCH  12   3
BRANCH   9   7
ATOM      7  N   UNL     1      -2.559  -0.892  23.636  0.00  0.00    -0.184 NA
ATOM     27  H   UNL     1      -2.550  -0.875  22.609  0.00  0.00    +0.148 HD
BRANCH   7   1
ATOM      1  S   UNL     1      -3.940  -1.396  24.487  0.00  0.00    +0.059 S 
ATOM      4  O   UNL     1      -3.536  -2.054  25.716  0.00  0.00    -0.153 OA
ATOM      5  O   UNL     1      -4.839  -2.062  23.565  0.00  0.00    -0.153 OA
BRANCH   1  17
ATOM     17  C   UNL     1      -4.687   0.147  24.915  0.00  0.00    +0.105 A 
ATOM     21  C   UNL     1      -5.925   0.494  24.376  0.00  0.00    +0.032 A 
ATOM     22  C   UNL     1      -4.038   1.017  25.791  0.00  0.00    +0.032 A 
ATOM     23  C   UNL     1      -6.516   1.713  24.713  0.00  0.00    +0.047 A 
ATOM     24  C   UNL     1      -4.629   2.235  26.129  0.00  0.00    +0.047 A 
ATOM     25  C   UNL     1      -5.867   2.583  25.590  0.00  0.00    +0.120 A 
BRANCH  25   6
ATOM      6  O   UNL     1      -6.443   3.772  25.918  0.00  0.00    -0.495 OA
ATOM     26  C   UNL     1      -5.815   4.955  25.427  0.00  0.00    +0.277 C 
ENDBRANCH  25   6
ENDBRANCH   1  17
ENDBRANCH   7   1
ENDBRANCH   9   7
TORSDOF 7
ENDMDL
MODEL 6
REMARK VINA RESULT:      -1.2      2.614      4.836
REMARK  Name = 71694020
REMARK  9 active torsions:
REMARK  status: ('A' for Active; 'I' for Inactive)
REMARK    1  A    between atoms: S_1  and  N_7
REMARK    2  A    between atoms: S_1  and  C_17
REMARK    3  A    between atoms: O_2  and  C_10
REMARK    4  A    between atoms: O_3  and  C_12
REMARK    5  A    between atoms: O_6  and  C_25
REMARK    6  A    between atoms: O_6  and  C_26
REMARK    7  A    between atoms: N_7  and  C_9
REMARK    8  A    between atoms: C_8  and  C_13
REMARK    9  A    between atoms: C_14  and  C_18
REMARK                            x       y       z     vdW  Elec       q    Type
REMARK                         _______ _______ _______ _____ _____    ______ ____
ROOT
ATOM      8  C   UNL     1      -1.577   1.088  25.244  0.00  0.00    +0.043 C 
ATOM      9  C   UNL     1      -0.828   1.736  24.048  0.00  0.00    +0.115 C 
ATOM     10  C   UNL     1       0.436   2.374  24.640  0.00  0.00    +0.162 C 
ATOM     11  C   UNL     1      -0.648   1.270  26.457  0.00  0.00    +0.043 C 
ATOM     12  C   UNL     1       0.109   2.545  26.122  0.00  0.00    +0.145 C 
ENDROOT
BRANCH   8  13
ATOM     13  C   UNL     1      -1.977  -0.352  25.013  0.00  0.00    -0.040 A 
ATOM     14  C   UNL     1      -1.162  -1.215  24.282  0.00  0.00    -0.047 A 
ATOM     15  C   UNL     1      -3.183  -0.813  25.543  0.00  0.00    +0.004 A 
ATOM     16  C   UNL     1      -1.551  -2.539  24.082  0.00  0.00    +0.003 A 
ATOM     18  C   UNL     1       0.132  -0.745  23.704  0.00  0.00    +0.044 C 
ATOM     19  C   UNL     1      -3.572  -2.137  25.343  0.00  0.00    +0.000 A 
ATOM     20  C   UNL     1      -2.756  -3.000  24.612  0.00  0.00    +0.000 A 
ENDBRANCH   8  13
BRANCH  10   2
ATOM      2  O   UNL     1       1.517   1.460  24.466  0.00  0.00    -0.388 OA
ATOM     28  H   UNL     1       2.034   1.459  25.289  0.00  0.00    +0.210 HD
ENDBRANCH  10   2
BRANCH  12   3
ATOM      3  O   UNL     1       1.264   2.688  26.923  0.00  0.00    -0.389 OA
ATOM     29  H   UNL     1       2.015   2.329  26.421  0.00  0.00    +0.210 HD
ENDBRANCH  12   3
BRANCH   9   7
ATOM      7  N   UNL     1      -1.681   2.796  23.449  0.00  0.00    -0.184 NA
ATOM     27  H   UNL     1      -1.480   3.772  23.699  0.00  0.00    +0.148 HD
BRANCH   7   1
ATOM      1  S   UNL     1      -3.135   2.378  22.677  0.00  0.00    +0.059 S 
ATOM      4  O   UNL     1      -3.032   1.029  22.152  0.00  0.00    -0.153 OA
ATOM      5  O   UNL     1      -3.536   3.469  21.811  0.00  0.00    -0.153 OA
BRANCH   1  17
ATOM     17  C   UNL     1      -4.271   2.349  24.031  0.00  0.00    +0.105 A 
ATOM     21  C   UNL     1      -4.267   3.384  24.965  0.00  0.00    +0.032 A 
ATOM     22  C   UNL     1      -5.170   1.291  24.166  0.00  0.00    +0.032 A 
ATOM     23  C   UNL     1      -5.164   3.362  26.035  0.00  0.00    +0.047 A 
ATOM     24  C   UNL     1      -6.066   1.269  25.234  0.00  0.00    +0.047 A 
ATOM     25  C   UNL     1      -6.063   2.304  26.169  0.00  0.00    +0.120 A 
BRANCH  25   6
ATOM      6  O   UNL     1      -6.936   2.282  27.213  0.00  0.00    -0.495 OA
ATOM     26  C   UNL     1      -7.059   1.056  27.932  0.00  0.00    +0.277 C 
ENDBRANCH  25   6
ENDBRANCH   1  17
ENDBRANCH   7   1
ENDBRANCH   9   7
TORSDOF 7
ENDMDL
MODEL 7
REMARK VINA RESULT:      -1.1      2.923      4.982
REMARK  Name = 71694020
REMARK  9 active torsions:
REMARK  status: ('A' for Active; 'I' for Inactive)
REMARK    1  A    between atoms: S_1  and  N_7
REMARK    2  A    between atoms: S_1  and  C_17
REMARK    3  A    between atoms: O_2  and  C_10
REMARK    4  A    between atoms: O_3  and  C_12
REMARK    5  A    between atoms: O_6  and  C_25
REMARK    6  A    between atoms: O_6  and  C_26
REMARK    7  A    between atoms: N_7  and  C_9
REMARK    8  A    between atoms: C_8  and  C_13
REMARK    9  A    between atoms: C_14  and  C_18
REMARK                            x       y       z     vdW  Elec       q    Type
REMARK                         _______ _______ _______ _____ _____    ______ ____
ROOT
ATOM      8  C   UNL     1      -0.457  -0.235  24.690  0.00  0.00    +0.043 C 
ATOM      9  C   UNL     1      -0.158   1.049  23.869  0.00  0.00    +0.115 C 
ATOM     10  C   UNL     1       1.163   0.781  23.136  0.00  0.00    +0.162 C 
ATOM     11  C   UNL     1       0.640  -1.239  24.294  0.00  0.00    +0.043 C 
ATOM     12  C   UNL     1       1.815  -0.341  23.939  0.00  0.00    +0.145 C 
ENDROOT
BRANCH   8  13
ATOM     13  C   UNL     1      -1.855  -0.778  24.497  0.00  0.00    -0.040 A 
ATOM     14  C   UNL     1      -2.138  -2.127  24.712  0.00  0.00    -0.047 A 
ATOM     15  C   UNL     1      -2.870   0.092  24.097  0.00  0.00    +0.004 A 
ATOM     16  C   UNL     1      -3.435  -2.605  24.528  0.00  0.00    +0.003 A 
ATOM     18  C   UNL     1      -1.069  -3.077  25.139  0.00  0.00    +0.044 C 
ATOM     19  C   UNL     1      -4.167  -0.386  23.913  0.00  0.00    +0.000 A 
ATOM     20  C   UNL     1      -4.450  -1.735  24.129  0.00  0.00    +0.000 A 
ENDBRANCH   8  13
BRANCH  10   2
ATOM      2  O   UNL     1       0.855   0.341  21.815  0.00  0.00    -0.388 OA
ATOM     28  H   UNL     1       0.357   1.054  21.378  0.00  0.00    +0.210 HD
ENDBRANCH  10   2
BRANCH  12   3
ATOM      3  O   UNL     1       2.798  -1.040  23.202  0.00  0.00    -0.389 OA
ATOM     29  H   UNL     1       2.976  -1.873  23.670  0.00  0.00    +0.210 HD
ENDBRANCH  12   3
BRANCH   9   7
ATOM      7  N   UNL     1       0.017   2.196  24.799  0.00  0.00    -0.184 NA
ATOM     27  H   UNL     1       0.312   1.993  25.761  0.00  0.00    +0.148 HD
BRANCH   7   1
ATOM      1  S   UNL     1      -0.588   3.727  24.379  0.00  0.00    +0.059 S 
ATOM      4  O   UNL     1      -0.513   3.897  22.940  0.00  0.00    -0.153 OA
ATOM      5  O   UNL     1      -0.007   4.718  25.263  0.00  0.00    -0.153 OA
BRANCH   1  17
ATOM     17  C   UNL     1      -2.293   3.577  24.821  0.00  0.00    +0.105 A 
ATOM     21  C   UNL     1      -2.692   3.790  26.140  0.00  0.00    +0.032 A 
ATOM     22  C   UNL     1      -3.239   3.247  23.850  0.00  0.00    +0.032 A 
ATOM     23  C   UNL     1      -4.038   3.672  26.489  0.00  0.00    +0.047 A 
ATOM     24  C   UNL     1      -4.585   3.129  24.199  0.00  0.00    +0.047 A 
ATOM     25  C   UNL     1      -4.984   3.341  25.519  0.00  0.00    +0.120 A 
BRANCH  25   6
ATOM      6  O   UNL     1      -6.296   3.225  25.860  0.00  0.00    -0.495 OA
ATOM     26  C   UNL     1      -6.709   1.990  26.444  0.00  0.00    +0.277 C 
ENDBRANCH  25   6
ENDBRANCH   1  17
ENDBRANCH   7   1
ENDBRANCH   9   7
TORSDOF 7
ENDMDL
MODEL 8
REMARK VINA RESULT:      -1.1      4.579      7.235
REMARK  Name = 71694020
REMARK  9 active torsions:
REMARK  status: ('A' for Active; 'I' for Inactive)
REMARK    1  A    between atoms: S_1  and  N_7
REMARK    2  A    between atoms: S_1  and  C_17
REMARK    3  A    between atoms: O_2  and  C_10
REMARK    4  A    between atoms: O_3  and  C_12
REMARK    5  A    between atoms: O_6  and  C_25
REMARK    6  A    between atoms: O_6  and  C_26
REMARK    7  A    between atoms: N_7  and  C_9
REMARK    8  A    between atoms: C_8  and  C_13
REMARK    9  A    between atoms: C_14  and  C_18
REMARK                            x       y       z     vdW  Elec       q    Type
REMARK                         _______ _______ _______ _____ _____    ______ ____
ROOT
ATOM      8  C   UNL     1      -1.768   1.358  23.978  0.00  0.00    +0.043 C 
ATOM      9  C   UNL     1      -0.328   1.386  24.557  0.00  0.00    +0.115 C 
ATOM     10  C   UNL     1      -0.187   2.738  25.269  0.00  0.00    +0.162 C 
ATOM     11  C   UNL     1      -2.441   2.643  24.490  0.00  0.00    +0.043 C 
ATOM     12  C   UNL     1      -1.273   3.606  24.639  0.00  0.00    +0.145 C 
ENDROOT
BRANCH   8  13
ATOM     13  C   UNL     1      -2.545   0.106  24.318  0.00  0.00    -0.040 A 
ATOM     14  C   UNL     1      -2.180  -0.695  25.400  0.00  0.00    -0.047 A 
ATOM     15  C   UNL     1      -3.642  -0.246  23.530  0.00  0.00    +0.004 A 
ATOM     16  C   UNL     1      -2.910  -1.845  25.695  0.00  0.00    +0.003 A 
ATOM     18  C   UNL     1      -1.010  -0.340  26.257  0.00  0.00    +0.044 C 
ATOM     19  C   UNL     1      -4.373  -1.396  23.826  0.00  0.00    +0.000 A 
ATOM     20  C   UNL     1      -4.007  -2.195  24.908  0.00  0.00    +0.000 A 
ENDBRANCH   8  13
BRANCH  10   2
ATOM      2  O   UNL     1      -0.445   2.537  26.657  0.00  0.00    -0.388 OA
ATOM     28  H   UNL     1       0.279   2.957  27.152  0.00  0.00    +0.210 HD
ENDBRANCH  10   2
BRANCH  12   3
ATOM      3  O   UNL     1      -1.617   4.718  25.441  0.00  0.00    -0.389 OA
ATOM     29  H   UNL     1      -2.551   4.620  25.691  0.00  0.00    +0.210 HD
ENDBRANCH  12   3
BRANCH   9   7
ATOM      7  N   UNL     1       0.652   1.311  23.441  0.00  0.00    -0.184 NA
ATOM     27  H   UNL     1       0.862   2.175  22.929  0.00  0.00    +0.148 HD
BRANCH   7   1
ATOM      1  S   UNL     1       1.121  -0.201  22.825  0.00  0.00    +0.059 S 
ATOM      4  O   UNL     1       0.929  -0.217  21.387  0.00  0.00    -0.153 OA
ATOM      5  O   UNL     1       0.540  -1.243  23.650  0.00  0.00    -0.153 OA
BRANCH   1  17
ATOM     17  C   UNL     1       2.860  -0.200  23.142  0.00  0.00    +0.105 A 
ATOM     21  C   UNL     1       3.616   0.939  22.869  0.00  0.00    +0.032 A 
ATOM     22  C   UNL     1       3.475  -1.337  23.665  0.00  0.00    +0.032 A 
ATOM     23  C   UNL     1       4.989   0.941  23.119  0.00  0.00    +0.047 A 
ATOM     24  C   UNL     1       4.847  -1.335  23.915  0.00  0.00    +0.047 A 
ATOM     25  C   UNL     1       5.604  -0.196  23.642  0.00  0.00    +0.120 A 
BRANCH  25   6
ATOM      6  O   UNL     1       6.943  -0.194  23.884  0.00  0.00    -0.495 OA
ATOM     26  C   UNL     1       7.799  -0.582  22.810  0.00  0.00    +0.277 C 
ENDBRANCH  25   6
ENDBRANCH   1  17
ENDBRANCH   7   1
ENDBRANCH   9   7
TORSDOF 7
ENDMDL
MODEL 9
REMARK VINA RESULT:      -1.1      4.605      7.202
REMARK  Name = 71694020
REMARK  9 active torsions:
REMARK  status: ('A' for Active; 'I' for Inactive)
REMARK    1  A    between atoms: S_1  and  N_7
REMARK    2  A    between atoms: S_1  and  C_17
REMARK    3  A    between atoms: O_2  and  C_10
REMARK    4  A    between atoms: O_3  and  C_12
REMARK    5  A    between atoms: O_6  and  C_25
REMARK    6  A    between atoms: O_6  and  C_26
REMARK    7  A    between atoms: N_7  and  C_9
REMARK    8  A    between atoms: C_8  and  C_13
REMARK    9  A    between atoms: C_14  and  C_18
REMARK                            x       y       z     vdW  Elec       q    Type
REMARK                         _______ _______ _______ _____ _____    ______ ____
ROOT
ATOM      8  C   UNL     1      -1.644   1.654  23.909  0.00  0.00    +0.043 C 
ATOM      9  C   UNL     1      -0.191   1.524  24.441  0.00  0.00    +0.115 C 
ATOM     10  C   UNL     1       0.113   2.844  25.162  0.00  0.00    +0.162 C 
ATOM     11  C   UNL     1      -2.162   2.996  24.457  0.00  0.00    +0.043 C 
ATOM     12  C   UNL     1      -0.896   3.830  24.578  0.00  0.00    +0.145 C 
ENDROOT
BRANCH   8  13
ATOM     13  C   UNL     1      -2.536   0.486  24.261  0.00  0.00    -0.040 A 
ATOM     14  C   UNL     1      -3.918   0.643  24.369  0.00  0.00    -0.047 A 
ATOM     15  C   UNL     1      -1.958  -0.765  24.481  0.00  0.00    +0.004 A 
ATOM     16  C   UNL     1      -4.721  -0.449  24.695  0.00  0.00    +0.003 A 
ATOM     18  C   UNL     1      -4.559   1.971  24.140  0.00  0.00    +0.044 C 
ATOM     19  C   UNL     1      -2.761  -1.858  24.807  0.00  0.00    +0.000 A 
ATOM     20  C   UNL     1      -4.143  -1.700  24.914  0.00  0.00    +0.000 A 
ENDBRANCH   8  13
BRANCH  10   2
ATOM      2  O   UNL     1      -0.121   2.652  26.555  0.00  0.00    -0.388 OA
ATOM     28  H   UNL     1      -0.937   3.130  26.783  0.00  0.00    +0.210 HD
ENDBRANCH  10   2
BRANCH  12   3
ATOM      3  O   UNL     1      -1.096   4.960  25.402  0.00  0.00    -0.389 OA
ATOM     29  H   UNL     1      -1.647   5.589  24.906  0.00  0.00    +0.210 HD
ENDBRANCH  12   3
BRANCH   9   7
ATOM      7  N   UNL     1       0.740   1.363  23.293  0.00  0.00    -0.184 NA
ATOM     27  H   UNL     1       0.922   2.185  22.705  0.00  0.00    +0.148 HD
BRANCH   7   1
ATOM      1  S   UNL     1       1.192  -0.192  22.780  0.00  0.00    +0.059 S 
ATOM      4  O   UNL     1       1.019  -0.295  21.343  0.00  0.00    -0.153 OA
ATOM      5  O   UNL     1       0.583  -1.170  23.660  0.00  0.00    -0.153 OA
BRANCH   1  17
ATOM     17  C   UNL     1       2.927  -0.197  23.122  0.00  0.00    +0.105 A 
ATOM     21  C   UNL     1       3.529  -1.340  23.647  0.00  0.00    +0.032 A 
ATOM     22  C   UNL     1       3.692   0.940  22.866  0.00  0.00    +0.032 A 
ATOM     23  C   UNL     1       4.898  -1.345  23.916  0.00  0.00    +0.047 A 
ATOM     24  C   UNL     1       5.061   0.935  23.135  0.00  0.00    +0.047 A 
ATOM     25  C   UNL     1       5.663  -0.208  23.660  0.00  0.00    +0.120 A 
BRANCH  25   6
ATOM      6  O   UNL     1       6.999  -0.213  23.925  0.00  0.00    -0.495 OA
ATOM     26  C   UNL     1       7.873  -0.544  22.846  0.00  0.00    +0.277 C 
ENDBRANCH  25   6
ENDBRANCH   1  17
ENDBRANCH   7   1
ENDBRANCH   9   7
TORSDOF 7
ENDMDL
MODEL 10
REMARK VINA RESULT:      -0.9      1.421      5.273
REMARK  Name = 71694020
REMARK  9 active torsions:
REMARK  status: ('A' for Active; 'I' for Inactive)
REMARK    1  A    between atoms: S_1  and  N_7
REMARK    2  A    between atoms: S_1  and  C_17
REMARK    3  A    between atoms: O_2  and  C_10
REMARK    4  A    between atoms: O_3  and  C_12
REMARK    5  A    between atoms: O_6  and  C_25
REMARK    6  A    between atoms: O_6  and  C_26
REMARK    7  A    between atoms: N_7  and  C_9
REMARK    8  A    between atoms: C_8  and  C_13
REMARK    9  A    between atoms: C_14  and  C_18
REMARK                            x       y       z     vdW  Elec       q    Type
REMARK                         _______ _______ _______ _____ _____    ______ ____
ROOT
ATOM      8  C   UNL     1      -2.179   3.166  25.343  0.00  0.00    +0.043 C 
ATOM      9  C   UNL     1      -3.643   3.361  24.860  0.00  0.00    +0.115 C 
ATOM     10  C   UNL     1      -3.802   4.864  24.597  0.00  0.00    +0.162 C 
ATOM     11  C   UNL     1      -1.518   4.549  25.214  0.00  0.00    +0.043 C 
ATOM     12  C   UNL     1      -2.683   5.507  25.413  0.00  0.00    +0.145 C 
ENDROOT
BRANCH   8  13
ATOM     13  C   UNL     1      -1.428   2.079  24.608  0.00  0.00    -0.040 A 
ATOM     14  C   UNL     1      -0.288   1.495  25.159  0.00  0.00    -0.047 A 
ATOM     15  C   UNL     1      -1.891   1.662  23.359  0.00  0.00    +0.004 A 
ATOM     16  C   UNL     1       0.389   0.493  24.463  0.00  0.00    +0.003 A 
ATOM     18  C   UNL     1       0.227   1.924  26.493  0.00  0.00    +0.044 C 
ATOM     19  C   UNL     1      -1.214   0.661  22.663  0.00  0.00    +0.000 A 
ATOM     20  C   UNL     1      -0.075   0.076  23.215  0.00  0.00    +0.000 A 
ENDBRANCH   8  13
BRANCH  10   2
ATOM      2  O   UNL     1      -3.603   5.093  23.204  0.00  0.00    -0.388 OA
ATOM     28  H   UNL     1      -3.952   5.978  23.001  0.00  0.00    +0.210 HD
ENDBRANCH  10   2
BRANCH  12   3
ATOM      3  O   UNL     1      -2.363   6.810  24.971  0.00  0.00    -0.389 OA
ATOM     29  H   UNL     1      -2.672   6.891  24.052  0.00  0.00    +0.210 HD
ENDBRANCH  12   3
BRANCH   9   7
ATOM      7  N   UNL     1      -4.576   2.948  25.942  0.00  0.00    -0.184 NA
ATOM     27  H   UNL     1      -4.371   3.264  26.897  0.00  0.00    +0.148 HD
BRANCH   7   1
ATOM      1  S   UNL     1      -5.715   1.721  25.656  0.00  0.00    +0.059 S 
ATOM      4  O   UNL     1      -6.491   2.050  24.474  0.00  0.00    -0.153 OA
ATOM      5  O   UNL     1      -6.384   1.404  26.902  0.00  0.00    -0.153 OA
BRANCH   1  17
ATOM     17  C   UNL     1      -4.677   0.346  25.261  0.00  0.00    +0.105 A 
ATOM     21  C   UNL     1      -3.718  -0.088  26.175  0.00  0.00    +0.032 A 
ATOM     22  C   UNL     1      -4.818  -0.305  24.035  0.00  0.00    +0.032 A 
ATOM     23  C   UNL     1      -2.899  -1.173  25.864  0.00  0.00    +0.047 A 
ATOM     24  C   UNL     1      -3.999  -1.391  23.724  0.00  0.00    +0.047 A 
ATOM     25  C   UNL     1      -3.039  -1.824  24.638  0.00  0.00    +0.120 A 
BRANCH  25   6
ATOM      6  O   UNL     1      -2.239  -2.883  24.335  0.00  0.00    -0.495 OA
ATOM     26  C   UNL     1      -0.914  -2.868  24.864  0.00  0.00    +0.277 C 
ENDBRANCH  25   6
ENDBRANCH   1  17
ENDBRANCH   7   1
ENDBRANCH   9   7
TORSDOF 7
ENDMDL
