MODEL 1
REMARK VINA RESULT:      -5.5      0.000      0.000
REMARK  Name = 51137826
REMARK  4 active torsions:
REMARK  status: ('A' for Active; 'I' for Inactive)
REMARK    1  A    between atoms: C_7  and  C_11
REMARK    2  A    between atoms: C_12  and  C_13
REMARK    3  A    between atoms: C_14  and  C_15
REMARK    4  A    between atoms: C_15  and  C_18
REMARK                            x       y       z     vdW  Elec       q    Type
REMARK                         _______ _______ _______ _____ _____    ______ ____
ROOT
ATOM      2  O   UNL     1       0.825   2.344  26.383  0.00  0.00    -0.270 OA
ATOM      3  N   UNL     1      -0.789   3.244  24.975  0.00  0.00    -0.297 N 
ATOM      7  C   UNL     1      -2.818   4.101  24.071  0.00  0.00    +0.095 C 
ATOM      8  C   UNL     1      -2.280   5.065  25.141  0.00  0.00    +0.033 C 
ATOM      9  C   UNL     1      -1.570   3.271  23.737  0.00  0.00    +0.121 C 
ATOM     10  C   UNL     1      -1.289   4.221  25.931  0.00  0.00    +0.109 C 
ATOM     12  C   UNL     1       0.244   2.379  25.299  0.00  0.00    +0.248 C 
ENDROOT
BRANCH  12  13
ATOM      6  N   UNL     1       2.374   0.657  22.733  0.00  0.00    -0.263 NA
ATOM     13  C   UNL     1       0.671   1.415  24.273  0.00  0.00    +0.055 A 
ATOM     16  C   UNL     1      -0.166   0.382  23.869  0.00  0.00    +0.016 A 
ATOM     17  C   UNL     1       1.919   1.509  23.679  0.00  0.00    +0.123 A 
ATOM     19  C   UNL     1       0.265  -0.515  22.898  0.00  0.00    +0.020 A 
ATOM     22  C   UNL     1       1.532  -0.335  22.365  0.00  0.00    +0.111 A 
ENDBRANCH  12  13
BRANCH   7  11
ATOM      1  O   UNL     1      -4.056   1.996  24.314  0.00  0.00    -0.424 OA
ATOM      4  N   UNL     1      -5.085   3.764  25.219  0.00  0.00    -0.112 NA
ATOM      5  N   UNL     1      -5.883   2.654  25.425  0.00  0.00    -0.112 NA
ATOM     11  C   UNL     1      -4.030   3.333  24.567  0.00  0.00    +0.222 A 
ATOM     14  C   UNL     1      -5.243   1.645  24.880  0.00  0.00    +0.222 A 
BRANCH  14  15
ATOM     15  C   UNL     1      -5.623   0.229  24.804  0.00  0.00    +0.132 C 
BRANCH  15  18
ATOM     18  C   UNL     1      -4.451  -0.748  24.823  0.00  0.00    -0.038 A 
ATOM     20  C   UNL     1      -4.389  -1.780  23.886  0.00  0.00    +0.004 A 
ATOM     21  C   UNL     1      -3.442  -0.609  25.775  0.00  0.00    +0.004 A 
ATOM     23  C   UNL     1      -3.319  -2.674  23.903  0.00  0.00    +0.000 A 
ATOM     24  C   UNL     1      -2.371  -1.502  25.792  0.00  0.00    +0.000 A 
ATOM     25  C   UNL     1      -2.310  -2.535  24.856  0.00  0.00    +0.000 A 
ENDBRANCH  15  18
ENDBRANCH  14  15
ENDBRANCH   7  11
TORSDOF 4
ENDMDL
MODEL 2
REMARK VINA RESULT:      -3.8      1.549      5.237
REMARK  Name = 51137826
REMARK  4 active torsions:
REMARK  status: ('A' for Active; 'I' for Inactive)
REMARK    1  A    between atoms: C_7  and  C_11
REMARK    2  A    between atoms: C_12  and  C_13
REMARK    3  A    between atoms: C_14  and  C_15
REMARK    4  A    between atoms: C_15  and  C_18
REMARK                            x       y       z     vdW  Elec       q    Type
REMARK                         _______ _______ _______ _____ _____    ______ ____
ROOT
ATOM      2  O   UNL     1      -4.156   4.575  23.311  0.00  0.00    -0.270 OA
ATOM      3  N   UNL     1      -2.484   3.899  24.775  0.00  0.00    -0.297 N 
ATOM      7  C   UNL     1      -0.445   3.102  25.710  0.00  0.00    +0.095 C 
ATOM      8  C   UNL     1      -0.209   4.466  25.043  0.00  0.00    +0.033 C 
ATOM      9  C   UNL     1      -1.970   3.094  25.884  0.00  0.00    +0.121 C 
ATOM     10  C   UNL     1      -1.412   4.639  24.125  0.00  0.00    +0.109 C 
ATOM     12  C   UNL     1      -3.783   3.939  24.295  0.00  0.00    +0.248 C 
ENDROOT
BRANCH  12  13
ATOM      6  N   UNL     1      -6.164   2.833  26.977  0.00  0.00    -0.263 NA
ATOM     13  C   UNL     1      -4.796   3.145  25.009  0.00  0.00    +0.055 A 
ATOM     16  C   UNL     1      -5.340   2.000  24.440  0.00  0.00    +0.016 A 
ATOM     17  C   UNL     1      -5.237   3.516  26.269  0.00  0.00    +0.123 A 
ATOM     19  C   UNL     1      -6.297   1.270  25.138  0.00  0.00    +0.020 A 
ATOM     22  C   UNL     1      -6.670   1.725  26.392  0.00  0.00    +0.111 A 
ENDBRANCH  12  13
BRANCH   7  11
ATOM      1  O   UNL     1      -0.468   0.759  24.978  0.00  0.00    -0.424 OA
ATOM      4  N   UNL     1       1.194   1.969  24.098  0.00  0.00    -0.112 NA
ATOM      5  N   UNL     1       1.297   0.681  23.607  0.00  0.00    -0.112 NA
ATOM     11  C   UNL     1       0.151   1.969  24.893  0.00  0.00    +0.222 A 
ATOM     14  C   UNL     1       0.307   0.010  24.147  0.00  0.00    +0.222 A 
BRANCH  14  15
ATOM     15  C   UNL     1      -0.070  -1.399  23.979  0.00  0.00    +0.132 C 
BRANCH  15  18
ATOM     18  C   UNL     1      -1.568  -1.674  24.066  0.00  0.00    -0.038 A 
ATOM     20  C   UNL     1      -2.481  -0.692  23.683  0.00  0.00    +0.004 A 
ATOM     21  C   UNL     1      -2.024  -2.908  24.529  0.00  0.00    +0.004 A 
ATOM     23  C   UNL     1      -3.850  -0.943  23.763  0.00  0.00    +0.000 A 
ATOM     24  C   UNL     1      -3.394  -3.159  24.609  0.00  0.00    +0.000 A 
ATOM     25  C   UNL     1      -4.307  -2.177  24.226  0.00  0.00    +0.000 A 
ENDBRANCH  15  18
ENDBRANCH  14  15
ENDBRANCH   7  11
TORSDOF 4
ENDMDL
MODEL 3
REMARK VINA RESULT:      -2.7      2.367      6.732
REMARK  Name = 51137826
REMARK  4 active torsions:
REMARK  status: ('A' for Active; 'I' for Inactive)
REMARK    1  A    between atoms: C_7  and  C_11
REMARK    2  A    between atoms: C_12  and  C_13
REMARK    3  A    between atoms: C_14  and  C_15
REMARK    4  A    between atoms: C_15  and  C_18
REMARK                            x       y       z     vdW  Elec       q    Type
REMARK                         _______ _______ _______ _____ _____    ______ ____
ROOT
ATOM      2  O   UNL     1      -3.927   4.541  23.484  0.00  0.00    -0.270 OA
ATOM      3  N   UNL     1      -2.341   3.457  24.790  0.00  0.00    -0.297 N 
ATOM      7  C   UNL     1      -0.421   2.267  25.542  0.00  0.00    +0.095 C 
ATOM      8  C   UNL     1      -0.002   3.655  25.032  0.00  0.00    +0.033 C 
ATOM      9  C   UNL     1      -1.927   2.457  25.775  0.00  0.00    +0.121 C 
ATOM     10  C   UNL     1      -1.186   4.109  24.190  0.00  0.00    +0.109 C 
ATOM     12  C   UNL     1      -3.630   3.742  24.371  0.00  0.00    +0.248 C 
ENDROOT
BRANCH  12  13
ATOM      6  N   UNL     1      -6.244   2.821  26.903  0.00  0.00    -0.263 NA
ATOM     13  C   UNL     1      -4.733   3.019  25.026  0.00  0.00    +0.055 A 
ATOM     16  C   UNL     1      -5.304   1.898  24.437  0.00  0.00    +0.016 A 
ATOM     17  C   UNL     1      -5.234   3.437  26.248  0.00  0.00    +0.123 A 
ATOM     19  C   UNL     1      -6.346   1.237  25.079  0.00  0.00    +0.020 A 
ATOM     22  C   UNL     1      -6.774   1.734  26.300  0.00  0.00    +0.111 A 
ENDBRANCH  12  13
BRANCH   7  11
ATOM      1  O   UNL     1       1.135   1.359  23.874  0.00  0.00    -0.424 OA
ATOM      4  N   UNL     1      -0.618   0.035  24.298  0.00  0.00    -0.112 NA
ATOM      5  N   UNL     1       0.171  -0.590  23.350  0.00  0.00    -0.112 NA
ATOM     11  C   UNL     1      -0.017   1.169  24.574  0.00  0.00    +0.222 A 
ATOM     14  C   UNL     1       1.183   0.218  23.133  0.00  0.00    +0.222 A 
BRANCH  14  15
ATOM     15  C   UNL     1       2.327   0.062  22.228  0.00  0.00    +0.132 C 
BRANCH  15  18
ATOM     18  C   UNL     1       3.667  -0.156  22.925  0.00  0.00    -0.038 A 
ATOM     20  C   UNL     1       3.951  -1.386  23.521  0.00  0.00    +0.004 A 
ATOM     21  C   UNL     1       4.608   0.872  22.966  0.00  0.00    +0.004 A 
ATOM     23  C   UNL     1       5.175  -1.586  24.158  0.00  0.00    +0.000 A 
ATOM     24  C   UNL     1       5.832   0.672  23.603  0.00  0.00    +0.000 A 
ATOM     25  C   UNL     1       6.116  -0.557  24.199  0.00  0.00    +0.000 A 
ENDBRANCH  15  18
ENDBRANCH  14  15
ENDBRANCH   7  11
TORSDOF 4
ENDMDL
MODEL 4
REMARK VINA RESULT:      -2.4      2.142      4.620
REMARK  Name = 51137826
REMARK  4 active torsions:
REMARK  status: ('A' for Active; 'I' for Inactive)
REMARK    1  A    between atoms: C_7  and  C_11
REMARK    2  A    between atoms: C_12  and  C_13
REMARK    3  A    between atoms: C_14  and  C_15
REMARK    4  A    between atoms: C_15  and  C_18
REMARK                            x       y       z     vdW  Elec       q    Type
REMARK                         _______ _______ _______ _____ _____    ______ ____
ROOT
ATOM      2  O   UNL     1      -0.310  -1.454  26.046  0.00  0.00    -0.270 OA
ATOM      3  N   UNL     1      -0.392   0.220  24.438  0.00  0.00    -0.297 N 
ATOM      7  C   UNL     1      -0.325   2.315  23.310  0.00  0.00    +0.095 C 
ATOM      8  C   UNL     1       1.090   1.932  23.774  0.00  0.00    +0.033 C 
ATOM      9  C   UNL     1      -1.052   0.965  23.365  0.00  0.00    +0.121 C 
ATOM     10  C   UNL     1       0.851   0.865  24.834  0.00  0.00    +0.109 C 
ATOM     12  C   UNL     1      -0.865  -0.904  25.097  0.00  0.00    +0.248 C 
ENDROOT
BRANCH  12  13
ATOM      6  N   UNL     1      -3.388  -3.408  23.894  0.00  0.00    -0.263 NA
ATOM     13  C   UNL     1      -2.140  -1.475  24.636  0.00  0.00    +0.055 A 
ATOM     16  C   UNL     1      -3.274  -0.683  24.505  0.00  0.00    +0.016 A 
ATOM     17  C   UNL     1      -2.248  -2.820  24.321  0.00  0.00    +0.123 A 
ATOM     19  C   UNL     1      -4.466  -1.251  24.068  0.00  0.00    +0.020 A 
ATOM     22  C   UNL     1      -4.470  -2.606  23.778  0.00  0.00    +0.111 A 
ENDBRANCH  12  13
BRANCH   7  11
ATOM      1  O   UNL     1      -2.116   3.202  24.734  0.00  0.00    -0.424 OA
ATOM      4  N   UNL     1      -0.418   4.623  24.420  0.00  0.00    -0.112 NA
ATOM      5  N   UNL     1      -1.349   5.243  25.233  0.00  0.00    -0.112 NA
ATOM     11  C   UNL     1      -0.907   3.435  24.153  0.00  0.00    +0.222 A 
ATOM     14  C   UNL     1      -2.323   4.377  25.390  0.00  0.00    +0.222 A 
BRANCH  14  15
ATOM     15  C   UNL     1      -3.568   4.498  26.157  0.00  0.00    +0.132 C 
BRANCH  15  18
ATOM     18  C   UNL     1      -4.625   3.448  25.830  0.00  0.00    -0.038 A 
ATOM     20  C   UNL     1      -4.764   2.983  24.522  0.00  0.00    +0.004 A 
ATOM     21  C   UNL     1      -5.451   2.951  26.838  0.00  0.00    +0.004 A 
ATOM     23  C   UNL     1      -5.730   2.023  24.222  0.00  0.00    +0.000 A 
ATOM     24  C   UNL     1      -6.417   1.991  26.538  0.00  0.00    +0.000 A 
ATOM     25  C   UNL     1      -6.557   1.527  25.230  0.00  0.00    +0.000 A 
ENDBRANCH  15  18
ENDBRANCH  14  15
ENDBRANCH   7  11
TORSDOF 4
ENDMDL
