MODEL 1
REMARK VINA RESULT:      10.2      0.000      0.000
REMARK  Name = 44716858
REMARK  9 active torsions:
REMARK  status: ('A' for Active; 'I' for Inactive)
REMARK    1  A    between atoms: O_3  and  C_15
REMARK    2  A    between atoms: O_4  and  C_20
REMARK    3  A    between atoms: N_8  and  C_26
REMARK    4  A    between atoms: C_10  and  C_18
REMARK    5  A    between atoms: C_12  and  C_20
REMARK    6  A    between atoms: C_12  and  C_21
REMARK    7  A    between atoms: C_13  and  C_23
REMARK    8  A    between atoms: C_23  and  C_24
REMARK    9  A    between atoms: C_32  and  C_33
REMARK                            x       y       z     vdW  Elec       q    Type
REMARK                         _______ _______ _______ _____ _____    ______ ____
ROOT
ATOM      1  S   UNL     1       0.498   2.276  25.776  0.00  0.00    -0.057 S 
ATOM      6  O   UNL     1       2.141   0.296  21.865  0.00  0.00    -0.270 OA
ATOM      7  N   UNL     1      -0.162   1.479  23.405  0.00  0.00    -0.229 NA
ATOM      9  N   UNL     1       2.140   1.176  24.052  0.00  0.00    -0.261 N 
ATOM     10  C   UNL     1      -3.826   2.291  24.294  0.00  0.00    -0.019 C 
ATOM     11  C   UNL     1      -3.407   3.478  25.271  0.00  0.00    +0.011 C 
ATOM     12  C   UNL     1      -4.564   4.176  26.084  0.00  0.00    +0.021 C 
ATOM     13  C   UNL     1      -2.618   2.040  23.278  0.00  0.00    +0.054 C 
ATOM     14  C   UNL     1      -5.073   2.714  23.475  0.00  0.00    +0.010 C 
ATOM     15  C   UNL     1      -5.749   4.486  25.126  0.00  0.00    +0.123 C 
ATOM     16  C   UNL     1      -2.175   3.091  26.139  0.00  0.00    +0.049 C 
ATOM     17  C   UNL     1      -6.206   3.274  24.323  0.00  0.00    +0.032 C 
ATOM     18  C   UNL     1      -4.147   0.977  25.046  0.00  0.00    +0.012 C 
ATOM     19  C   UNL     1      -1.299   1.988  24.005  0.00  0.00    +0.058 A 
ATOM     21  C   UNL     1      -4.047   5.535  26.636  0.00  0.00    +0.016 C 
ATOM     22  C   UNL     1      -1.118   2.482  25.281  0.00  0.00    +0.015 A 
ATOM     25  C   UNL     1       0.844   1.572  24.248  0.00  0.00    +0.165 A 
ATOM     32  C   UNL     1       2.721   0.574  22.909  0.00  0.00    +0.250 C 
ATOM     42  H   UNL     1       2.740   1.392  24.843  0.00  0.00    +0.157 HD
ENDROOT
BRANCH  32  33
ATOM      2  F   UNL     1       8.219  -0.531  23.215  0.00  0.00    -0.205 F 
ATOM     33  C   UNL     1       4.177   0.281  22.991  0.00  0.00    +0.037 A 
ATOM     34  C   UNL     1       4.850  -0.223  21.878  0.00  0.00    +0.016 A 
ATOM     35  C   UNL     1       4.869   0.512  24.179  0.00  0.00    +0.016 A 
ATOM     36  C   UNL     1       6.216  -0.498  21.954  0.00  0.00    +0.039 A 
ATOM     37  C   UNL     1       6.235   0.236  24.255  0.00  0.00    +0.039 A 
ATOM     38  C   UNL     1       6.907  -0.268  23.142  0.00  0.00    +0.123 A 
ENDBRANCH  32  33
BRANCH  15   3
ATOM      3  O   UNL     1      -6.864   5.000  25.856  0.00  0.00    -0.391 OA
ATOM     39  H   UNL     1      -6.692   5.942  26.030  0.00  0.00    +0.210 HD
ENDBRANCH  15   3
BRANCH  12  20
ATOM     20  C   UNL     1      -5.048   3.384  27.320  0.00  0.00    +0.165 C 
BRANCH  20   4
ATOM      4  O   UNL     1      -6.168   2.620  26.932  0.00  0.00    -0.394 OA
ATOM     40  H   UNL     1      -6.935   2.964  27.421  0.00  0.00    +0.209 HD
ENDBRANCH  20   4
ENDBRANCH  12  20
BRANCH  13  23
ATOM     23  C   UNL     1      -2.800   0.826  22.358  0.00  0.00    +0.106 C 
BRANCH  23  24
ATOM      5  O   UNL     1      -3.957  -1.056  23.343  0.00  0.00    -0.276 OA
ATOM      8  N   UNL     1      -1.652  -0.879  23.575  0.00  0.00    -0.312 N 
ATOM     24  C   UNL     1      -2.900  -0.466  23.135  0.00  0.00    +0.214 C 
ATOM     41  H   UNL     1      -0.836  -0.342  23.295  0.00  0.00    +0.149 HD
BRANCH   8  26
ATOM     26  C   UNL     1      -1.444  -2.084  24.347  0.00  0.00    +0.073 C 
ATOM     27  C   UNL     1      -2.777  -2.764  24.678  0.00  0.00    +0.022 C 
ATOM     28  C   UNL     1      -0.638  -1.793  25.616  0.00  0.00    +0.022 C 
ATOM     29  C   UNL     1      -3.583  -1.991  25.722  0.00  0.00    +0.002 C 
ATOM     30  C   UNL     1      -1.448  -1.022  26.659  0.00  0.00    +0.002 C 
ATOM     31  C   UNL     1      -2.764  -1.724  26.981  0.00  0.00    +0.000 C 
ENDBRANCH   8  26
ENDBRANCH  23  24
ENDBRANCH  13  23
TORSDOF 7
ENDMDL
