MODEL 1
REMARK VINA RESULT:       7.5      0.000      0.000
REMARK  Name = 38028970
REMARK  9 active torsions:
REMARK  status: ('A' for Active; 'I' for Inactive)
REMARK    1  A    between atoms: N_4  and  C_17
REMARK    2  A    between atoms: C_9  and  C_13
REMARK    3  A    between atoms: C_10  and  C_17
REMARK    4  A    between atoms: C_12  and  C_16
REMARK    5  A    between atoms: C_13  and  C_18
REMARK    6  A    between atoms: C_13  and  C_19
REMARK    7  A    between atoms: C_14  and  C_20
REMARK    8  A    between atoms: C_16  and  C_21
REMARK    9  A    between atoms: C_26  and  C_28
REMARK                            x       y       z     vdW  Elec       q    Type
REMARK                         _______ _______ _______ _____ _____    ______ ____
ROOT
ATOM      9  C   UNL     1      -3.426   2.113  23.830  0.00  0.00    +0.000 C 
ATOM     10  C   UNL     1      -4.254   3.346  24.271  0.00  0.00    +0.032 C 
ATOM     11  C   UNL     1      -4.321   0.867  23.749  0.00  0.00    +0.012 C 
ATOM     12  C   UNL     1      -4.996   0.547  25.096  0.00  0.00    +0.023 C 
ATOM     14  C   UNL     1      -5.610   1.780  25.727  0.00  0.00    -0.073 C 
ATOM     15  C   UNL     1      -5.275   3.023  25.336  0.00  0.00    -0.022 C 
ATOM     20  C   UNL     1      -6.650   1.552  26.787  0.00  0.00    +0.039 C 
ENDROOT
BRANCH   9  13
ATOM     13  C   UNL     1      -2.734   2.344  22.483  0.00  0.00    -0.013 C 
ATOM     18  C   UNL     1      -2.387   1.012  21.827  0.00  0.00    +0.007 C 
ATOM     19  C   UNL     1      -3.621   3.184  21.567  0.00  0.00    +0.007 C 
ENDBRANCH   9  13
BRANCH  12  16
ATOM     16  C   UNL     1      -4.014  -0.131  26.057  0.00  0.00    +0.103 C 
BRANCH  16  21
ATOM      1  O   UNL     1      -3.820  -2.337  25.198  0.00  0.00    -0.276 OA
ATOM      3  N   UNL     1      -1.995  -0.933  24.888  0.00  0.00    -0.298 N 
ATOM      5  N   UNL     1       0.584  -0.343  23.714  0.00  0.00    -0.312 N 
ATOM      6  N   UNL     1       2.830   0.363  23.908  0.00  0.00    -0.240 NA
ATOM     21  C   UNL     1      -3.278  -1.239  25.343  0.00  0.00    +0.216 C 
ATOM     22  C   UNL     1      -1.216  -1.954  24.191  0.00  0.00    +0.126 C 
ATOM     23  C   UNL     1      -1.356   0.374  25.051  0.00  0.00    +0.126 C 
ATOM     24  C   UNL     1      -0.306  -1.349  23.125  0.00  0.00    +0.125 C 
ATOM     25  C   UNL     1       0.168   0.304  24.959  0.00  0.00    +0.125 C 
ATOM     27  C   UNL     1       1.808  -0.043  23.120  0.00  0.00    +0.121 A 
ATOM     29  C   UNL     1       1.898  -0.182  21.745  0.00  0.00    +0.043 A 
ATOM     31  C   UNL     1       3.113   0.114  21.138  0.00  0.00    +0.005 A 
ATOM     32  C   UNL     1       3.995   0.643  23.283  0.00  0.00    +0.113 A 
ATOM     33  C   UNL     1       4.186   0.535  21.915  0.00  0.00    +0.020 A 
ENDBRANCH  16  21
ENDBRANCH  12  16
BRANCH  10  17
ATOM     17  C   UNL     1      -3.343   4.477  24.763  0.00  0.00    +0.112 C 
BRANCH  17   4
ATOM      2  O   UNL     1      -0.540   3.975  24.404  0.00  0.00    -0.268 OA
ATOM      4  N   UNL     1      -2.428   3.998  25.752  0.00  0.00    -0.309 N 
ATOM     26  C   UNL     1      -1.077   3.781  25.491  0.00  0.00    +0.264 C 
ATOM     36  H   UNL     1      -2.771   3.846  26.696  0.00  0.00    +0.149 HD
BRANCH  26  28
ATOM      7  N   UNL     1      -0.938   2.838  27.706  0.00  0.00    -0.247 NA
ATOM      8  N   UNL     1       1.861   2.732  27.564  0.00  0.00    -0.259 NA
ATOM     28  C   UNL     1      -0.263   3.256  26.617  0.00  0.00    +0.143 A 
ATOM     30  C   UNL     1       1.112   3.204  26.548  0.00  0.00    +0.143 A 
ATOM     34  C   UNL     1      -0.190   2.366  28.723  0.00  0.00    +0.131 A 
ATOM     35  C   UNL     1       1.185   2.313  28.653  0.00  0.00    +0.130 A 
ENDBRANCH  26  28
ENDBRANCH  17   4
ENDBRANCH  10  17
TORSDOF 6
ENDMDL
MODEL 2
REMARK VINA RESULT:       8.6      2.383      5.730
REMARK  Name = 38028970
REMARK  9 active torsions:
REMARK  status: ('A' for Active; 'I' for Inactive)
REMARK    1  A    between atoms: N_4  and  C_17
REMARK    2  A    between atoms: C_9  and  C_13
REMARK    3  A    between atoms: C_10  and  C_17
REMARK    4  A    between atoms: C_12  and  C_16
REMARK    5  A    between atoms: C_13  and  C_18
REMARK    6  A    between atoms: C_13  and  C_19
REMARK    7  A    between atoms: C_14  and  C_20
REMARK    8  A    between atoms: C_16  and  C_21
REMARK    9  A    between atoms: C_26  and  C_28
REMARK                            x       y       z     vdW  Elec       q    Type
REMARK                         _______ _______ _______ _____ _____    ______ ____
ROOT
ATOM      9  C   UNL     1      -2.490   2.833  23.475  0.00  0.00    +0.000 C 
ATOM     10  C   UNL     1      -0.986   2.541  23.247  0.00  0.00    +0.032 C 
ATOM     11  C   UNL     1      -2.722   4.340  23.662  0.00  0.00    +0.012 C 
ATOM     12  C   UNL     1      -1.928   4.908  24.854  0.00  0.00    +0.023 C 
ATOM     14  C   UNL     1      -0.487   4.441  24.844  0.00  0.00    -0.073 C 
ATOM     15  C   UNL     1      -0.082   3.389  24.110  0.00  0.00    -0.022 C 
ATOM     20  C   UNL     1       0.489   5.238  25.664  0.00  0.00    +0.039 C 
ENDROOT
BRANCH   9  13
ATOM     13  C   UNL     1      -3.352   2.315  22.319  0.00  0.00    -0.013 C 
ATOM     18  C   UNL     1      -4.352   3.379  21.881  0.00  0.00    +0.007 C 
ATOM     19  C   UNL     1      -2.471   1.886  21.149  0.00  0.00    +0.007 C 
ENDBRANCH   9  13
BRANCH  12  16
ATOM     16  C   UNL     1      -2.608   4.563  26.183  0.00  0.00    +0.103 C 
BRANCH  16  21
ATOM      1  O   UNL     1      -4.967   4.556  25.910  0.00  0.00    -0.276 OA
ATOM      3  N   UNL     1      -3.889   2.507  25.715  0.00  0.00    -0.298 N 
ATOM      5  N   UNL     1      -3.892  -0.311  25.055  0.00  0.00    -0.312 N 
ATOM      6  N   UNL     1      -3.401  -2.559  25.590  0.00  0.00    -0.240 NA
ATOM     21  C   UNL     1      -3.932   3.886  25.924  0.00  0.00    +0.216 C 
ATOM     22  C   UNL     1      -5.130   1.779  25.462  0.00  0.00    +0.126 C 
ATOM     23  C   UNL     1      -2.658   1.714  25.720  0.00  0.00    +0.126 C 
ATOM     24  C   UNL     1      -4.914   0.595  24.522  0.00  0.00    +0.125 C 
ATOM     25  C   UNL     1      -2.909   0.232  25.995  0.00  0.00    +0.125 C 
ATOM     27  C   UNL     1      -3.884  -1.659  24.704  0.00  0.00    +0.121 A 
ATOM     29  C   UNL     1      -4.376  -1.991  23.452  0.00  0.00    +0.043 A 
ATOM     31  C   UNL     1      -4.373  -3.332  23.087  0.00  0.00    +0.005 A 
ATOM     32  C   UNL     1      -3.414  -3.852  25.200  0.00  0.00    +0.113 A 
ATOM     33  C   UNL     1      -3.885  -4.287  23.971  0.00  0.00    +0.020 A 
ENDBRANCH  16  21
ENDBRANCH  12  16
BRANCH  10  17
ATOM     17  C   UNL     1      -0.669   1.059  23.477  0.00  0.00    +0.112 C 
BRANCH  17   4
ATOM      2  O   UNL     1       1.088  -0.418  21.753  0.00  0.00    -0.268 OA
ATOM      4  N   UNL     1       0.736   0.862  23.656  0.00  0.00    -0.309 N 
ATOM     26  C   UNL     1       1.518   0.128  22.766  0.00  0.00    +0.264 C 
ATOM     36  H   UNL     1       1.192   1.311  24.445  0.00  0.00    +0.149 HD
BRANCH  26  28
ATOM      7  N   UNL     1       3.720   1.094  22.943  0.00  0.00    -0.247 NA
ATOM      8  N   UNL     1       4.786  -1.329  23.872  0.00  0.00    -0.259 NA
ATOM     28  C   UNL     1       2.957  -0.006  23.106  0.00  0.00    +0.143 A 
ATOM     30  C   UNL     1       3.482  -1.195  23.562  0.00  0.00    +0.143 A 
ATOM     34  C   UNL     1       5.025   0.961  23.253  0.00  0.00    +0.131 A 
ATOM     35  C   UNL     1       5.549  -0.230  23.709  0.00  0.00    +0.130 A 
ENDBRANCH  26  28
ENDBRANCH  17   4
ENDBRANCH  10  17
TORSDOF 6
ENDMDL
MODEL 3
REMARK VINA RESULT:       9.4      1.305      2.213
REMARK  Name = 38028970
REMARK  9 active torsions:
REMARK  status: ('A' for Active; 'I' for Inactive)
REMARK    1  A    between atoms: N_4  and  C_17
REMARK    2  A    between atoms: C_9  and  C_13
REMARK    3  A    between atoms: C_10  and  C_17
REMARK    4  A    between atoms: C_12  and  C_16
REMARK    5  A    between atoms: C_13  and  C_18
REMARK    6  A    between atoms: C_13  and  C_19
REMARK    7  A    between atoms: C_14  and  C_20
REMARK    8  A    between atoms: C_16  and  C_21
REMARK    9  A    between atoms: C_26  and  C_28
REMARK                            x       y       z     vdW  Elec       q    Type
REMARK                         _______ _______ _______ _____ _____    ______ ____
ROOT
ATOM      9  C   UNL     1      -4.380   2.294  24.497  0.00  0.00    +0.000 C 
ATOM     10  C   UNL     1      -3.442   2.313  25.730  0.00  0.00    +0.032 C 
ATOM     11  C   UNL     1      -5.520   1.285  24.706  0.00  0.00    +0.012 C 
ATOM     12  C   UNL     1      -4.996  -0.144  24.944  0.00  0.00    +0.023 C 
ATOM     14  C   UNL     1      -3.874  -0.171  25.961  0.00  0.00    -0.073 C 
ATOM     15  C   UNL     1      -3.199   0.940  26.309  0.00  0.00    -0.022 C 
ATOM     20  C   UNL     1      -3.574  -1.496  26.603  0.00  0.00    +0.039 C 
ENDROOT
BRANCH   9  13
ATOM     13  C   UNL     1      -4.961   3.681  24.202  0.00  0.00    -0.013 C 
ATOM     18  C   UNL     1      -5.499   4.315  25.480  0.00  0.00    +0.007 C 
ATOM     19  C   UNL     1      -3.905   4.574  23.558  0.00  0.00    +0.007 C 
ENDBRANCH   9  13
BRANCH  12  16
ATOM     16  C   UNL     1      -4.561  -0.797  23.628  0.00  0.00    +0.103 C 
BRANCH  16  21
ATOM      1  O   UNL     1      -3.624  -2.899  24.216  0.00  0.00    -0.276 OA
ATOM      3  N   UNL     1      -2.127  -1.197  23.706  0.00  0.00    -0.298 N 
ATOM      5  N   UNL     1       0.556  -0.251  23.172  0.00  0.00    -0.312 N 
ATOM      6  N   UNL     1       2.329   1.261  23.560  0.00  0.00    -0.240 NA
ATOM     21  C   UNL     1      -3.403  -1.734  23.878  0.00  0.00    +0.216 C 
ATOM     22  C   UNL     1      -0.955  -2.040  23.934  0.00  0.00    +0.126 C 
ATOM     23  C   UNL     1      -1.866   0.183  23.295  0.00  0.00    +0.126 C 
ATOM     24  C   UNL     1       0.204  -1.665  23.014  0.00  0.00    +0.125 C 
ATOM     25  C   UNL     1      -0.468   0.663  23.683  0.00  0.00    +0.125 C 
ATOM     27  C   UNL     1       1.841   0.199  22.879  0.00  0.00    +0.121 A 
ATOM     29  C   UNL     1       2.542  -0.480  21.895  0.00  0.00    +0.043 A 
ATOM     31  C   UNL     1       3.826  -0.042  21.591  0.00  0.00    +0.005 A 
ATOM     32  C   UNL     1       3.579   1.658  23.236  0.00  0.00    +0.113 A 
ATOM     33  C   UNL     1       4.362   1.047  22.270  0.00  0.00    +0.020 A 
ENDBRANCH  16  21
ENDBRANCH  12  16
BRANCH  10  17
ATOM     17  C   UNL     1      -2.098   2.970  25.392  0.00  0.00    +0.112 C 
BRANCH  17   4
ATOM      2  O   UNL     1       0.718   2.407  25.381  0.00  0.00    -0.268 OA
ATOM      4  N   UNL     1      -1.226   2.953  26.525  0.00  0.00    -0.309 N 
ATOM     26  C   UNL     1       0.135   2.669  26.430  0.00  0.00    +0.264 C 
ATOM     36  H   UNL     1      -1.609   3.198  27.434  0.00  0.00    +0.149 HD
BRANCH  26  28
ATOM      7  N   UNL     1       2.208   2.980  27.623  0.00  0.00    -0.247 NA
ATOM      8  N   UNL     1       0.981   2.348  30.065  0.00  0.00    -0.259 NA
ATOM     28  C   UNL     1       0.900   2.666  27.704  0.00  0.00    +0.143 A 
ATOM     30  C   UNL     1       0.298   2.356  28.904  0.00  0.00    +0.143 A 
ATOM     34  C   UNL     1       2.892   2.973  28.784  0.00  0.00    +0.131 A 
ATOM     35  C   UNL     1       2.290   2.662  29.984  0.00  0.00    +0.130 A 
ENDBRANCH  26  28
ENDBRANCH  17   4
ENDBRANCH  10  17
TORSDOF 6
ENDMDL
MODEL 4
REMARK VINA RESULT:      11.0      1.849      4.652
REMARK  Name = 38028970
REMARK  9 active torsions:
REMARK  status: ('A' for Active; 'I' for Inactive)
REMARK    1  A    between atoms: N_4  and  C_17
REMARK    2  A    between atoms: C_9  and  C_13
REMARK    3  A    between atoms: C_10  and  C_17
REMARK    4  A    between atoms: C_12  and  C_16
REMARK    5  A    between atoms: C_13  and  C_18
REMARK    6  A    between atoms: C_13  and  C_19
REMARK    7  A    between atoms: C_14  and  C_20
REMARK    8  A    between atoms: C_16  and  C_21
REMARK    9  A    between atoms: C_26  and  C_28
REMARK                            x       y       z     vdW  Elec       q    Type
REMARK                         _______ _______ _______ _____ _____    ______ ____
ROOT
ATOM      9  C   UNL     1      -4.527   2.852  24.853  0.00  0.00    +0.000 C 
ATOM     10  C   UNL     1      -4.367   2.961  23.316  0.00  0.00    +0.032 C 
ATOM     11  C   UNL     1      -5.109   4.153  25.426  0.00  0.00    +0.012 C 
ATOM     12  C   UNL     1      -4.224   5.374  25.112  0.00  0.00    +0.023 C 
ATOM     14  C   UNL     1      -3.801   5.405  23.658  0.00  0.00    -0.073 C 
ATOM     15  C   UNL     1      -3.885   4.320  22.867  0.00  0.00    -0.022 C 
ATOM     20  C   UNL     1      -3.321   6.724  23.120  0.00  0.00    +0.039 C 
ENDROOT
BRANCH   9  13
ATOM     13  C   UNL     1      -5.414   1.667  25.250  0.00  0.00    -0.013 C 
ATOM     18  C   UNL     1      -5.854   1.795  26.704  0.00  0.00    +0.007 C 
ATOM     19  C   UNL     1      -6.624   1.575  24.324  0.00  0.00    +0.007 C 
ENDBRANCH   9  13
BRANCH  12  16
ATOM     16  C   UNL     1      -3.005   5.424  26.039  0.00  0.00    +0.103 C 
BRANCH  16  21
ATOM      1  O   UNL     1      -3.258   3.513  27.425  0.00  0.00    -0.276 OA
ATOM      3  N   UNL     1      -1.606   3.407  25.795  0.00  0.00    -0.298 N 
ATOM      5  N   UNL     1       0.384   1.942  24.288  0.00  0.00    -0.312 N 
ATOM      6  N   UNL     1       2.576   1.711  23.439  0.00  0.00    -0.240 NA
ATOM     21  C   UNL     1      -2.643   4.029  26.489  0.00  0.00    +0.216 C 
ATOM     22  C   UNL     1      -1.194   2.057  26.174  0.00  0.00    +0.126 C 
ATOM     23  C   UNL     1      -0.884   4.018  24.677  0.00  0.00    +0.126 C 
ATOM     24  C   UNL     1      -0.711   1.249  24.972  0.00  0.00    +0.125 C 
ATOM     25  C   UNL     1       0.492   3.393  24.449  0.00  0.00    +0.125 C 
ATOM     27  C   UNL     1       1.316   1.229  23.537  0.00  0.00    +0.121 A 
ATOM     29  C   UNL     1       0.884   0.061  22.932  0.00  0.00    +0.043 A 
ATOM     31  C   UNL     1       1.803  -0.661  22.179  0.00  0.00    +0.005 A 
ATOM     32  C   UNL     1       3.441   0.983  22.698  0.00  0.00    +0.113 A 
ATOM     33  C   UNL     1       3.108  -0.198  22.054  0.00  0.00    +0.020 A 
ENDBRANCH  16  21
ENDBRANCH  12  16
BRANCH  10  17
ATOM     17  C   UNL     1      -3.422   1.880  22.779  0.00  0.00    +0.112 C 
BRANCH  17   4
ATOM      2  O   UNL     1      -4.129  -0.880  22.429  0.00  0.00    -0.268 OA
ATOM      4  N   UNL     1      -3.259   0.829  23.735  0.00  0.00    -0.309 N 
ATOM     26  C   UNL     1      -3.631  -0.490  23.482  0.00  0.00    +0.264 C 
ATOM     36  H   UNL     1      -2.817   1.046  24.624  0.00  0.00    +0.149 HD
BRANCH  26  28
ATOM      7  N   UNL     1      -3.189  -0.941  25.809  0.00  0.00    -0.247 NA
ATOM      8  N   UNL     1      -3.270  -3.708  25.363  0.00  0.00    -0.259 NA
ATOM     28  C   UNL     1      -3.421  -1.460  24.587  0.00  0.00    +0.143 A 
ATOM     30  C   UNL     1      -3.461  -2.820  24.369  0.00  0.00    +0.143 A 
ATOM     34  C   UNL     1      -2.998  -1.829  26.804  0.00  0.00    +0.131 A 
ATOM     35  C   UNL     1      -3.038  -3.190  26.585  0.00  0.00    +0.130 A 
ENDBRANCH  26  28
ENDBRANCH  17   4
ENDBRANCH  10  17
TORSDOF 6
ENDMDL
