MODEL 1
REMARK VINA RESULT:       0.1      0.000      0.000
REMARK  Name = 11865954
REMARK  6 active torsions:
REMARK  status: ('A' for Active; 'I' for Inactive)
REMARK    1  A    between atoms: O_6  and  C_29
REMARK    2  A    between atoms: O_6  and  C_34
REMARK    3  A    between atoms: N_10  and  C_15
REMARK    4  A    between atoms: C_21  and  C_23
REMARK    5  A    between atoms: C_22  and  C_24
REMARK    6  A    between atoms: C_24  and  C_26
REMARK                            x       y       z     vdW  Elec       q    Type
REMARK                         _______ _______ _______ _____ _____    ______ ____
ROOT
ATOM      2  O   UNL     1      17.404  -5.162  27.313  0.00  0.00    -0.273 OA
ATOM      3  O   UNL     1      15.935 -10.628  26.465  0.00  0.00    -0.274 OA
ATOM      4  O   UNL     1      14.777  -4.034  25.472  0.00  0.00    -0.269 OA
ATOM      7  N   UNL     1      16.731  -7.328  27.803  0.00  0.00    -0.287 N 
ATOM      8  N   UNL     1      16.555  -5.311  24.690  0.00  0.00    -0.284 N 
ATOM      9  N   UNL     1      16.677  -8.905  25.206  0.00  0.00    -0.309 N 
ATOM     11  C   UNL     1      16.345  -6.456  25.574  0.00  0.00    +0.182 C 
ATOM     12  C   UNL     1      17.198  -7.575  24.971  0.00  0.00    +0.104 C 
ATOM     13  C   UNL     1      15.862  -8.480  27.546  0.00  0.00    +0.164 C 
ATOM     14  C   UNL     1      15.859  -9.246  28.884  0.00  0.00    +0.055 C 
ATOM     15  C   UNL     1      16.192  -8.184  29.928  0.00  0.00    +0.092 C 
ATOM     16  C   UNL     1      17.187  -7.303  29.188  0.00  0.00    +0.131 C 
ATOM     17  C   UNL     1      17.259  -7.205  23.491  0.00  0.00    +0.043 C 
ATOM     18  C   UNL     1      16.871  -6.217  26.977  0.00  0.00    +0.239 C 
ATOM     19  C   UNL     1      17.375  -5.688  23.540  0.00  0.00    +0.111 C 
ATOM     20  C   UNL     1      16.226  -9.428  26.396  0.00  0.00    +0.234 C 
ATOM     21  C   UNL     1      15.818  -4.140  24.824  0.00  0.00    +0.254 C 
ATOM     35  H   UNL     1      16.843  -9.583  24.469  0.00  0.00    +0.149 HD
ENDROOT
BRANCH  21  23
ATOM      1  S   UNL     1      15.945  -1.399  24.820  0.00  0.00    -0.092 S 
ATOM     23  C   UNL     1      16.322  -2.928  24.154  0.00  0.00    +0.074 A 
ATOM     25  C   UNL     1      17.089  -2.831  23.019  0.00  0.00    +0.021 A 
ATOM     27  C   UNL     1      17.375  -1.475  22.686  0.00  0.00    +0.008 A 
ATOM     28  C   UNL     1      16.813  -0.594  23.582  0.00  0.00    +0.046 A 
ENDBRANCH  21  23
BRANCH  15  10
ATOM      5  O   UNL     1      15.374  -7.548  32.613  0.00  0.00    -0.275 OA
ATOM     10  N   UNL     1      15.017  -7.443  30.321  0.00  0.00    -0.311 N 
ATOM     22  C   UNL     1      14.704  -7.185  31.650  0.00  0.00    +0.218 C 
ATOM     36  H   UNL     1      14.425  -7.062  29.589  0.00  0.00    +0.149 HD
BRANCH  22  24
ATOM     24  C   UNL     1      13.422  -6.384  31.774  0.00  0.00    +0.134 C 
BRANCH  24  26
ATOM     26  C   UNL     1      12.217  -7.233  32.080  0.00  0.00    +0.003 A 
ATOM     29  C   UNL     1      10.948  -6.669  32.089  0.00  0.00    +0.124 A 
ATOM     30  C   UNL     1      12.400  -8.582  32.352  0.00  0.00    +0.008 A 
ATOM     31  C   UNL     1       9.842  -7.470  32.374  0.00  0.00    +0.046 A 
ATOM     32  C   UNL     1      11.294  -9.383  32.637  0.00  0.00    +0.001 A 
ATOM     33  C   UNL     1      10.015  -8.827  32.649  0.00  0.00    +0.004 A 
BRANCH  29   6
ATOM      6  O   UNL     1      10.762  -5.347  31.822  0.00  0.00    -0.495 OA
ATOM     34  C   UNL     1      11.122  -4.423  32.848  0.00  0.00    +0.277 C 
ENDBRANCH  29   6
ENDBRANCH  24  26
ENDBRANCH  22  24
ENDBRANCH  15  10
TORSDOF 5
ENDMDL
