MODEL 1
REMARK VINA RESULT:      -3.4      0.000      0.000
REMARK  Name = 7674758
REMARK  6 active torsions:
REMARK  status: ('A' for Active; 'I' for Inactive)
REMARK    1  A    between atoms: O_5  and  C_23
REMARK    2  A    between atoms: O_6  and  C_32
REMARK    3  A    between atoms: O_6  and  C_33
REMARK    4  A    between atoms: N_7  and  C_16
REMARK    5  A    between atoms: C_16  and  C_21
REMARK    6  A    between atoms: C_19  and  C_22
REMARK                            x       y       z     vdW  Elec       q    Type
REMARK                         _______ _______ _______ _____ _____    ______ ____
ROOT
ATOM      4  O   UNL     1      14.898  -7.946  26.922  0.00  0.00    -0.267 OA
ATOM      7  N   UNL     1      13.767  -8.666  31.755  0.00  0.00    -0.297 NA
ATOM      8  N   UNL     1      15.485  -8.648  29.068  0.00  0.00    -0.311 N 
ATOM      9  C   UNL     1      14.319 -10.597  30.254  0.00  0.00    +0.024 C 
ATOM     10  C   UNL     1      16.128  -9.395  31.384  0.00  0.00    +0.050 C 
ATOM     11  C   UNL     1      15.660 -10.781  30.951  0.00  0.00    +0.017 C 
ATOM     12  C   UNL     1      13.304  -9.953  31.221  0.00  0.00    +0.090 C 
ATOM     13  C   UNL     1      15.099  -8.785  32.364  0.00  0.00    +0.094 C 
ATOM     14  C   UNL     1      14.532  -9.764  28.983  0.00  0.00    +0.130 C 
ATOM     15  C   UNL     1      16.314  -8.489  30.180  0.00  0.00    +0.026 A 
ATOM     17  C   UNL     1      17.254  -7.531  30.190  0.00  0.00    +0.022 A 
ATOM     18  C   UNL     1      15.588  -7.816  27.935  0.00  0.00    +0.259 A 
ATOM     19  C   UNL     1      16.628  -6.729  27.988  0.00  0.00    +0.047 A 
ATOM     20  C   UNL     1      17.405  -6.636  29.077  0.00  0.00    +0.015 A 
ENDROOT
BRANCH  19  22
ATOM     22  C   UNL     1      16.792  -5.775  26.877  0.00  0.00    -0.012 A 
ATOM     25  C   UNL     1      16.494  -6.165  25.572  0.00  0.00    +0.012 A 
ATOM     26  C   UNL     1      17.249  -4.480  27.131  0.00  0.00    +0.012 A 
ATOM     30  C   UNL     1      16.651  -5.261  24.520  0.00  0.00    +0.046 A 
ATOM     31  C   UNL     1      17.405  -3.578  26.080  0.00  0.00    +0.046 A 
ATOM     32  C   UNL     1      17.107  -3.967  24.774  0.00  0.00    +0.130 A 
BRANCH  32   6
ATOM      6  O   UNL     1      17.260  -3.086  23.748  0.00  0.00    -0.406 OA
BRANCH   6  33
ATOM      1  F   UNL     1      15.059  -2.598  23.634  0.00  0.00    -0.133 F 
ATOM      2  F   UNL     1      16.382  -1.157  24.606  0.00  0.00    -0.133 F 
ATOM      3  F   UNL     1      16.437  -1.421  22.413  0.00  0.00    -0.133 F 
ATOM     33  C   UNL     1      16.295  -2.052  23.598  0.00  0.00    +0.575 C 
ENDBRANCH   6  33
ENDBRANCH  32   6
ENDBRANCH  19  22
BRANCH   7  16
ATOM     16  C   UNL     1      12.804  -8.115  32.705  0.00  0.00    +0.123 C 
BRANCH  16  21
ATOM     21  C   UNL     1      12.629  -6.635  32.503  0.00  0.00    +0.008 A 
ATOM     23  C   UNL     1      11.370  -6.057  32.596  0.00  0.00    +0.121 A 
ATOM     24  C   UNL     1      13.748  -5.860  32.222  0.00  0.00    +0.008 A 
ATOM     27  C   UNL     1      11.227  -4.682  32.406  0.00  0.00    +0.046 A 
ATOM     28  C   UNL     1      13.605  -4.485  32.032  0.00  0.00    +0.001 A 
ATOM     29  C   UNL     1      12.344  -3.897  32.124  0.00  0.00    +0.004 A 
BRANCH  23   5
ATOM      5  O   UNL     1      10.267  -6.809  32.871  0.00  0.00    -0.506 OA
ATOM     34  H   UNL     1      10.299  -7.624  32.342  0.00  0.00    +0.292 HD
ENDBRANCH  23   5
ENDBRANCH  16  21
ENDBRANCH   7  16
TORSDOF 6
ENDMDL
MODEL 2
REMARK VINA RESULT:      -0.4      1.435      2.168
REMARK  Name = 7674758
REMARK  6 active torsions:
REMARK  status: ('A' for Active; 'I' for Inactive)
REMARK    1  A    between atoms: O_5  and  C_23
REMARK    2  A    between atoms: O_6  and  C_32
REMARK    3  A    between atoms: O_6  and  C_33
REMARK    4  A    between atoms: N_7  and  C_16
REMARK    5  A    between atoms: C_16  and  C_21
REMARK    6  A    between atoms: C_19  and  C_22
REMARK                            x       y       z     vdW  Elec       q    Type
REMARK                         _______ _______ _______ _____ _____    ______ ____
ROOT
ATOM      4  O   UNL     1      14.341  -6.889  26.575  0.00  0.00    -0.267 OA
ATOM      7  N   UNL     1      13.810  -8.516  31.290  0.00  0.00    -0.297 NA
ATOM      8  N   UNL     1      15.041  -8.215  28.363  0.00  0.00    -0.311 N 
ATOM      9  C   UNL     1      13.593 -10.087  29.347  0.00  0.00    +0.024 C 
ATOM     10  C   UNL     1      15.807  -9.639  30.292  0.00  0.00    +0.050 C 
ATOM     11  C   UNL     1      14.927 -10.733  29.696  0.00  0.00    +0.017 C 
ATOM     12  C   UNL     1      12.946  -9.494  30.616  0.00  0.00    +0.090 C 
ATOM     13  C   UNL     1      15.140  -9.078  31.569  0.00  0.00    +0.094 C 
ATOM     14  C   UNL     1      13.824  -9.033  28.256  0.00  0.00    +0.130 C 
ATOM     15  C   UNL     1      16.042  -8.527  29.285  0.00  0.00    +0.026 A 
ATOM     17  C   UNL     1      17.192  -7.837  29.291  0.00  0.00    +0.022 A 
ATOM     18  C   UNL     1      15.188  -7.173  27.426  0.00  0.00    +0.259 A 
ATOM     19  C   UNL     1      16.474  -6.394  27.479  0.00  0.00    +0.047 A 
ATOM     20  C   UNL     1      17.405  -6.751  28.377  0.00  0.00    +0.015 A 
ENDROOT
BRANCH  19  22
ATOM     22  C   UNL     1      16.715  -5.256  26.575  0.00  0.00    -0.012 A 
ATOM     25  C   UNL     1      17.160  -5.480  25.272  0.00  0.00    +0.012 A 
ATOM     26  C   UNL     1      16.500  -3.951  27.023  0.00  0.00    +0.012 A 
ATOM     30  C   UNL     1      17.389  -4.401  24.417  0.00  0.00    +0.046 A 
ATOM     31  C   UNL     1      16.729  -2.874  26.168  0.00  0.00    +0.046 A 
ATOM     32  C   UNL     1      17.174  -3.098  24.865  0.00  0.00    +0.130 A 
BRANCH  32   6
ATOM      6  O   UNL     1      17.397  -2.046  24.031  0.00  0.00    -0.406 OA
BRANCH   6  33
ATOM      1  F   UNL     1      16.936  -1.989  21.822  0.00  0.00    -0.133 F 
ATOM      2  F   UNL     1      15.324  -2.528  23.195  0.00  0.00    -0.133 F 
ATOM      3  F   UNL     1      16.058  -0.445  23.095  0.00  0.00    -0.133 F 
ATOM     33  C   UNL     1      16.415  -1.746  23.046  0.00  0.00    +0.575 C 
ENDBRANCH   6  33
ENDBRANCH  32   6
ENDBRANCH  19  22
BRANCH   7  16
ATOM     16  C   UNL     1      13.185  -8.018  32.512  0.00  0.00    +0.123 C 
BRANCH  16  21
ATOM     21  C   UNL     1      11.716  -8.335  32.538  0.00  0.00    +0.008 A 
ATOM     23  C   UNL     1      10.780  -7.321  32.698  0.00  0.00    +0.121 A 
ATOM     24  C   UNL     1      11.313  -9.658  32.398  0.00  0.00    +0.008 A 
ATOM     27  C   UNL     1       9.421  -7.634  32.719  0.00  0.00    +0.046 A 
ATOM     28  C   UNL     1       9.953  -9.970  32.419  0.00  0.00    +0.001 A 
ATOM     29  C   UNL     1       9.007  -8.958  32.579  0.00  0.00    +0.004 A 
BRANCH  23   5
ATOM      5  O   UNL     1      11.166  -6.021  32.836  0.00  0.00    -0.506 OA
ATOM     34  H   UNL     1      11.522  -5.888  33.730  0.00  0.00    +0.292 HD
ENDBRANCH  23   5
ENDBRANCH  16  21
ENDBRANCH   7  16
TORSDOF 6
ENDMDL
