MODEL 1
REMARK VINA RESULT:      -3.4      0.000      0.000
REMARK  Name = 26744369
REMARK  7 active torsions:
REMARK  status: ('A' for Active; 'I' for Inactive)
REMARK    1  A    between atoms: O_2  and  C_10
REMARK    2  A    between atoms: O_4  and  C_21
REMARK    3  A    between atoms: O_4  and  C_27
REMARK    4  A    between atoms: N_5  and  C_12
REMARK    5  A    between atoms: C_8  and  C_13
REMARK    6  A    between atoms: C_12  and  C_14
REMARK    7  A    between atoms: C_17  and  C_20
REMARK                            x       y       z     vdW  Elec       q    Type
REMARK                         _______ _______ _______ _____ _____    ______ ____
ROOT
ATOM      5  N   UNL     1      -4.999   1.807  25.327  0.00  0.00    -0.285 NA
ATOM      8  C   UNL     1      -4.220   2.610  24.362  0.00  0.00    +0.149 C 
ATOM      9  C   UNL     1      -4.571   4.073  24.694  0.00  0.00    +0.061 C 
ATOM     10  C   UNL     1      -5.585   3.987  25.828  0.00  0.00    +0.130 C 
ATOM     11  C   UNL     1      -6.177   2.599  25.671  0.00  0.00    +0.116 C 
ENDROOT
BRANCH   8  13
ATOM      3  O   UNL     1      -2.088   2.786  25.542  0.00  0.00    -0.336 OA
ATOM      6  N   UNL     1      -1.961   1.713  23.580  0.00  0.00    -0.190 NA
ATOM      7  N   UNL     1      -0.746   2.418  25.386  0.00  0.00    -0.056 NA
ATOM     13  C   UNL     1      -2.734   2.333  24.436  0.00  0.00    +0.245 A 
ATOM     17  C   UNL     1      -0.751   1.790  24.206  0.00  0.00    +0.202 A 
BRANCH  17  20
ATOM      1  F   UNL     1       3.846  -0.392  21.955  0.00  0.00    -0.205 F 
ATOM     20  C   UNL     1       0.434   1.227  23.626  0.00  0.00    +0.023 A 
ATOM     22  C   UNL     1       0.366   0.019  22.934  0.00  0.00    +0.014 A 
ATOM     23  C   UNL     1       1.655   1.889  23.754  0.00  0.00    +0.014 A 
ATOM     24  C   UNL     1       1.518  -0.528  22.369  0.00  0.00    +0.039 A 
ATOM     25  C   UNL     1       2.808   1.342  23.190  0.00  0.00    +0.039 A 
ATOM     26  C   UNL     1       2.739   0.134  22.498  0.00  0.00    +0.123 A 
ENDBRANCH  17  20
ENDBRANCH   8  13
BRANCH  10   2
ATOM      2  O   UNL     1      -6.569   4.995  25.698  0.00  0.00    -0.390 OA
ATOM     28  H   UNL     1      -7.422   4.554  25.549  0.00  0.00    +0.210 HD
ENDBRANCH  10   2
BRANCH   5  12
ATOM     12  C   UNL     1      -5.353   0.487  24.823  0.00  0.00    +0.120 C 
BRANCH  12  14
ATOM     14  C   UNL     1      -4.187  -0.464  24.871  0.00  0.00    -0.033 A 
ATOM     15  C   UNL     1      -4.004  -1.398  23.851  0.00  0.00    +0.008 A 
ATOM     16  C   UNL     1      -3.288  -0.410  25.936  0.00  0.00    +0.008 A 
ATOM     18  C   UNL     1      -2.924  -2.278  23.897  0.00  0.00    +0.046 A 
ATOM     19  C   UNL     1      -2.207  -1.290  25.982  0.00  0.00    +0.046 A 
ATOM     21  C   UNL     1      -2.025  -2.225  24.963  0.00  0.00    +0.120 A 
BRANCH  21   4
ATOM      4  O   UNL     1      -0.969  -3.084  25.006  0.00  0.00    -0.495 OA
ATOM     27  C   UNL     1       0.278  -2.555  25.454  0.00  0.00    +0.277 C 
ENDBRANCH  21   4
ENDBRANCH  12  14
ENDBRANCH   5  12
TORSDOF 6
ENDMDL
MODEL 2
REMARK VINA RESULT:      -0.9      2.298      4.951
REMARK  Name = 26744369
REMARK  7 active torsions:
REMARK  status: ('A' for Active; 'I' for Inactive)
REMARK    1  A    between atoms: O_2  and  C_10
REMARK    2  A    between atoms: O_4  and  C_21
REMARK    3  A    between atoms: O_4  and  C_27
REMARK    4  A    between atoms: N_5  and  C_12
REMARK    5  A    between atoms: C_8  and  C_13
REMARK    6  A    between atoms: C_12  and  C_14
REMARK    7  A    between atoms: C_17  and  C_20
REMARK                            x       y       z     vdW  Elec       q    Type
REMARK                         _______ _______ _______ _____ _____    ______ ____
ROOT
ATOM      5  N   UNL     1      -3.123  -0.653  24.704  0.00  0.00    -0.285 NA
ATOM      8  C   UNL     1      -1.955  -1.557  24.702  0.00  0.00    +0.149 C 
ATOM      9  C   UNL     1      -2.416  -2.792  23.904  0.00  0.00    +0.061 C 
ATOM     10  C   UNL     1      -3.867  -2.506  23.539  0.00  0.00    +0.130 C 
ATOM     11  C   UNL     1      -4.306  -1.502  24.587  0.00  0.00    +0.116 C 
ENDROOT
BRANCH   8  13
ATOM      3  O   UNL     1      -0.920   0.128  23.268  0.00  0.00    -0.336 OA
ATOM      6  N   UNL     1       0.544  -1.209  24.312  0.00  0.00    -0.190 NA
ATOM      7  N   UNL     1       0.352   0.554  22.865  0.00  0.00    -0.056 NA
ATOM     13  C   UNL     1      -0.717  -0.911  24.119  0.00  0.00    +0.245 A 
ATOM     17  C   UNL     1       1.161  -0.283  23.522  0.00  0.00    +0.202 A 
BRANCH  17  20
ATOM      1  F   UNL     1       6.704  -0.038  23.097  0.00  0.00    -0.205 F 
ATOM     20  C   UNL     1       2.591  -0.220  23.412  0.00  0.00    +0.023 A 
ATOM     22  C   UNL     1       3.370  -1.300  23.825  0.00  0.00    +0.014 A 
ATOM     23  C   UNL     1       3.200   0.922  22.892  0.00  0.00    +0.014 A 
ATOM     24  C   UNL     1       4.759  -1.239  23.719  0.00  0.00    +0.039 A 
ATOM     25  C   UNL     1       4.590   0.983  22.785  0.00  0.00    +0.039 A 
ATOM     26  C   UNL     1       5.369  -0.097  23.199  0.00  0.00    +0.123 A 
ENDBRANCH  17  20
ENDBRANCH   8  13
BRANCH  10   2
ATOM      2  O   UNL     1      -4.639  -3.691  23.589  0.00  0.00    -0.390 OA
ATOM     28  H   UNL     1      -4.051  -4.433  23.366  0.00  0.00    +0.210 HD
ENDBRANCH  10   2
BRANCH   5  12
ATOM     12  C   UNL     1      -3.181   0.209  25.876  0.00  0.00    +0.120 C 
BRANCH  12  14
ATOM     14  C   UNL     1      -2.831   1.636  25.543  0.00  0.00    -0.033 A 
ATOM     15  C   UNL     1      -1.541   2.111  25.774  0.00  0.00    +0.008 A 
ATOM     16  C   UNL     1      -3.799   2.481  25.001  0.00  0.00    +0.008 A 
ATOM     18  C   UNL     1      -1.218   3.432  25.465  0.00  0.00    +0.046 A 
ATOM     19  C   UNL     1      -3.477   3.802  24.692  0.00  0.00    +0.046 A 
ATOM     21  C   UNL     1      -2.186   4.278  24.924  0.00  0.00    +0.120 A 
BRANCH  21   4
ATOM      4  O   UNL     1      -1.871   5.567  24.620  0.00  0.00    -0.495 OA
ATOM     27  C   UNL     1      -0.486   5.910  24.605  0.00  0.00    +0.277 C 
ENDBRANCH  21   4
ENDBRANCH  12  14
ENDBRANCH   5  12
TORSDOF 6
ENDMDL
MODEL 3
REMARK VINA RESULT:      -0.2      3.116      6.364
REMARK  Name = 26744369
REMARK  7 active torsions:
REMARK  status: ('A' for Active; 'I' for Inactive)
REMARK    1  A    between atoms: O_2  and  C_10
REMARK    2  A    between atoms: O_4  and  C_21
REMARK    3  A    between atoms: O_4  and  C_27
REMARK    4  A    between atoms: N_5  and  C_12
REMARK    5  A    between atoms: C_8  and  C_13
REMARK    6  A    between atoms: C_12  and  C_14
REMARK    7  A    between atoms: C_17  and  C_20
REMARK                            x       y       z     vdW  Elec       q    Type
REMARK                         _______ _______ _______ _____ _____    ______ ____
ROOT
ATOM      5  N   UNL     1       0.632  -0.274  23.127  0.00  0.00    -0.285 NA
ATOM      8  C   UNL     1       1.264   0.601  24.136  0.00  0.00    +0.149 C 
ATOM      9  C   UNL     1       2.455   1.248  23.406  0.00  0.00    +0.061 C 
ATOM     10  C   UNL     1       2.437   0.641  22.008  0.00  0.00    +0.130 C 
ATOM     11  C   UNL     1       1.689  -0.665  22.197  0.00  0.00    +0.116 C 
ENDROOT
BRANCH   8  13
ATOM      3  O   UNL     1       0.794   2.444  25.670  0.00  0.00    -0.336 OA
ATOM      6  N   UNL     1      -0.955   1.835  24.410  0.00  0.00    -0.190 NA
ATOM      7  N   UNL     1      -0.263   3.286  26.038  0.00  0.00    -0.056 NA
ATOM     13  C   UNL     1       0.303   1.621  24.707  0.00  0.00    +0.245 A 
ATOM     17  C   UNL     1      -1.258   2.865  25.252  0.00  0.00    +0.202 A 
BRANCH  17  20
ATOM      1  F   UNL     1      -6.332   5.146  25.368  0.00  0.00    -0.205 F 
ATOM     20  C   UNL     1      -2.567   3.453  25.281  0.00  0.00    +0.023 A 
ATOM     22  C   UNL     1      -3.056   4.005  26.465  0.00  0.00    +0.014 A 
ATOM     23  C   UNL     1      -3.348   3.473  24.127  0.00  0.00    +0.014 A 
ATOM     24  C   UNL     1      -4.328   4.577  26.494  0.00  0.00    +0.039 A 
ATOM     25  C   UNL     1      -4.621   4.045  24.156  0.00  0.00    +0.039 A 
ATOM     26  C   UNL     1      -5.110   4.597  25.339  0.00  0.00    +0.123 A 
ENDBRANCH  17  20
ENDBRANCH   8  13
BRANCH  10   2
ATOM      2  O   UNL     1       3.754   0.430  21.537  0.00  0.00    -0.390 OA
ATOM     28  H   UNL     1       4.093  -0.374  21.966  0.00  0.00    +0.210 HD
ENDBRANCH  10   2
BRANCH   5  12
ATOM     12  C   UNL     1      -0.042  -1.428  23.707  0.00  0.00    +0.120 C 
BRANCH  12  14
ATOM     14  C   UNL     1      -1.392  -1.066  24.267  0.00  0.00    -0.033 A 
ATOM     15  C   UNL     1      -1.649  -1.226  25.628  0.00  0.00    +0.008 A 
ATOM     16  C   UNL     1      -2.386  -0.571  23.423  0.00  0.00    +0.008 A 
ATOM     18  C   UNL     1      -2.900  -0.891  26.146  0.00  0.00    +0.046 A 
ATOM     19  C   UNL     1      -3.637  -0.235  23.941  0.00  0.00    +0.046 A 
ATOM     21  C   UNL     1      -3.894  -0.396  25.302  0.00  0.00    +0.120 A 
BRANCH  21   4
ATOM      4  O   UNL     1      -5.115  -0.067  25.808  0.00  0.00    -0.495 OA
ATOM     27  C   UNL     1      -5.737   1.107  25.288  0.00  0.00    +0.277 C 
ENDBRANCH  21   4
ENDBRANCH  12  14
ENDBRANCH   5  12
TORSDOF 6
ENDMDL
MODEL 4
REMARK VINA RESULT:      -0.0      2.057      3.049
REMARK  Name = 26744369
REMARK  7 active torsions:
REMARK  status: ('A' for Active; 'I' for Inactive)
REMARK    1  A    between atoms: O_2  and  C_10
REMARK    2  A    between atoms: O_4  and  C_21
REMARK    3  A    between atoms: O_4  and  C_27
REMARK    4  A    between atoms: N_5  and  C_12
REMARK    5  A    between atoms: C_8  and  C_13
REMARK    6  A    between atoms: C_12  and  C_14
REMARK    7  A    between atoms: C_17  and  C_20
REMARK                            x       y       z     vdW  Elec       q    Type
REMARK                         _______ _______ _______ _____ _____    ______ ____
ROOT
ATOM      5  N   UNL     1      -2.575   2.796  24.678  0.00  0.00    -0.285 NA
ATOM      8  C   UNL     1      -1.515   3.146  23.710  0.00  0.00    +0.149 C 
ATOM      9  C   UNL     1      -0.893   4.443  24.261  0.00  0.00    +0.061 C 
ATOM     10  C   UNL     1      -1.697   4.765  25.514  0.00  0.00    +0.130 C 
ATOM     11  C   UNL     1      -3.015   4.051  25.283  0.00  0.00    +0.116 C 
ENDROOT
BRANCH   8  13
ATOM      3  O   UNL     1      -0.989   0.813  23.210  0.00  0.00    -0.336 OA
ATOM      6  N   UNL     1       0.805   2.083  23.642  0.00  0.00    -0.190 NA
ATOM      7  N   UNL     1       0.122  -0.032  23.100  0.00  0.00    -0.056 NA
ATOM     13  C   UNL     1      -0.499   2.039  23.531  0.00  0.00    +0.245 A 
ATOM     17  C   UNL     1       1.141   0.789  23.368  0.00  0.00    +0.202 A 
BRANCH  17  20
ATOM      1  F   UNL     1       6.438  -0.916  23.376  0.00  0.00    -0.205 F 
ATOM     20  C   UNL     1       2.507   0.349  23.370  0.00  0.00    +0.023 A 
ATOM     22  C   UNL     1       3.528   1.243  23.049  0.00  0.00    +0.014 A 
ATOM     23  C   UNL     1       2.813  -0.972  23.693  0.00  0.00    +0.014 A 
ATOM     24  C   UNL     1       4.856   0.816  23.051  0.00  0.00    +0.039 A 
ATOM     25  C   UNL     1       4.142  -1.400  23.695  0.00  0.00    +0.039 A 
ATOM     26  C   UNL     1       5.162  -0.506  23.374  0.00  0.00    +0.123 A 
ENDBRANCH  17  20
ENDBRANCH   8  13
BRANCH  10   2
ATOM      2  O   UNL     1      -1.874   6.162  25.651  0.00  0.00    -0.390 OA
ATOM     28  H   UNL     1      -1.191   6.597  25.113  0.00  0.00    +0.210 HD
ENDBRANCH  10   2
BRANCH   5  12
ATOM     12  C   UNL     1      -3.679   2.059  24.079  0.00  0.00    +0.120 C 
BRANCH  12  14
ATOM     14  C   UNL     1      -3.616   0.590  24.406  0.00  0.00    -0.033 A 
ATOM     15  C   UNL     1      -3.040   0.164  25.602  0.00  0.00    +0.008 A 
ATOM     16  C   UNL     1      -4.137  -0.345  23.511  0.00  0.00    +0.008 A 
ATOM     18  C   UNL     1      -2.983  -1.197  25.903  0.00  0.00    +0.046 A 
ATOM     19  C   UNL     1      -4.080  -1.705  23.812  0.00  0.00    +0.046 A 
ATOM     21  C   UNL     1      -3.502  -2.131  25.008  0.00  0.00    +0.120 A 
BRANCH  21   4
ATOM      4  O   UNL     1      -3.448  -3.459  25.303  0.00  0.00    -0.495 OA
ATOM     27  C   UNL     1      -3.754  -4.371  24.249  0.00  0.00    +0.277 C 
ENDBRANCH  21   4
ENDBRANCH  12  14
ENDBRANCH   5  12
TORSDOF 6
ENDMDL
MODEL 5
REMARK VINA RESULT:       0.0     14.509     16.430
REMARK  Name = 26744369
REMARK  7 active torsions:
REMARK  status: ('A' for Active; 'I' for Inactive)
REMARK    1  A    between atoms: O_2  and  C_10
REMARK    2  A    between atoms: O_4  and  C_21
REMARK    3  A    between atoms: O_4  and  C_27
REMARK    4  A    between atoms: N_5  and  C_12
REMARK    5  A    between atoms: C_8  and  C_13
REMARK    6  A    between atoms: C_12  and  C_14
REMARK    7  A    between atoms: C_17  and  C_20
REMARK                            x       y       z     vdW  Elec       q    Type
REMARK                         _______ _______ _______ _____ _____    ______ ____
ROOT
ATOM      5  N   UNL     1      -9.637  -9.946  15.462  0.00  0.00    -0.285 NA
ATOM      8  C   UNL     1      -8.652  -8.974  14.947  0.00  0.00    +0.149 C 
ATOM      9  C   UNL     1      -8.714  -7.790  15.931  0.00  0.00    +0.061 C 
ATOM     10  C   UNL     1      -9.793  -8.171  16.937  0.00  0.00    +0.130 C 
ATOM     11  C   UNL     1     -10.647  -9.171  16.180  0.00  0.00    +0.116 C 
ENDROOT
BRANCH   8  13
ATOM      3  O   UNL     1      -6.848 -10.354  15.847  0.00  0.00    -0.336 OA
ATOM      6  N   UNL     1      -6.381  -9.417  13.866  0.00  0.00    -0.190 NA
ATOM      7  N   UNL     1      -5.553 -10.772  15.514  0.00  0.00    -0.056 NA
ATOM     13  C   UNL     1      -7.262  -9.561  14.825  0.00  0.00    +0.245 A 
ATOM     17  C   UNL     1      -5.350 -10.178  14.334  0.00  0.00    +0.202 A 
BRANCH  17  20
ATOM      1  F   UNL     1      -0.611 -10.751  11.473  0.00  0.00    -0.205 F 
ATOM     20  C   UNL     1      -4.127 -10.326  13.596  0.00  0.00    +0.023 A 
ATOM     22  C   UNL     1      -2.906 -10.348  14.268  0.00  0.00    +0.014 A 
ATOM     23  C   UNL     1      -4.163 -10.447  12.207  0.00  0.00    +0.014 A 
ATOM     24  C   UNL     1      -1.718 -10.492  13.551  0.00  0.00    +0.039 A 
ATOM     25  C   UNL     1      -2.974 -10.591  11.490  0.00  0.00    +0.039 A 
ATOM     26  C   UNL     1      -1.753 -10.613  12.162  0.00  0.00    +0.123 A 
ENDBRANCH  17  20
ENDBRANCH   8  13
BRANCH  10   2
ATOM      2  O   UNL     1     -10.538  -7.033  17.327  0.00  0.00    -0.390 OA
ATOM     28  H   UNL     1     -11.384  -7.348  17.689  0.00  0.00    +0.210 HD
ENDBRANCH  10   2
BRANCH   5  12
ATOM     12  C   UNL     1     -10.223 -10.778  14.421  0.00  0.00    +0.120 C 
BRANCH  12  14
ATOM     14  C   UNL     1     -10.353 -10.037  13.116  0.00  0.00    -0.033 A 
ATOM     15  C   UNL     1     -10.229 -10.722  11.908  0.00  0.00    +0.008 A 
ATOM     16  C   UNL     1     -10.599  -8.664  13.118  0.00  0.00    +0.008 A 
ATOM     18  C   UNL     1     -10.350 -10.034  10.701  0.00  0.00    +0.046 A 
ATOM     19  C   UNL     1     -10.719  -7.976  11.910  0.00  0.00    +0.046 A 
ATOM     21  C   UNL     1     -10.595  -8.661  10.702  0.00  0.00    +0.120 A 
BRANCH  21   4
ATOM      4  O   UNL     1     -10.714  -7.990   9.523  0.00  0.00    -0.495 OA
ATOM     27  C   UNL     1      -9.706  -7.028   9.219  0.00  0.00    +0.277 C 
ENDBRANCH  21   4
ENDBRANCH  12  14
ENDBRANCH   5  12
TORSDOF 6
ENDMDL
