MODEL 1
REMARK VINA RESULT:      -3.0      0.000      0.000
REMARK  Name = 45360723
REMARK  10 active torsions:
REMARK  status: ('A' for Active; 'I' for Inactive)
REMARK    1  A    between atoms: N_5  and  C_10
REMARK    2  A    between atoms: N_5  and  C_20
REMARK    3  A    between atoms: N_6  and  C_16
REMARK    4  A    between atoms: N_7  and  C_27
REMARK    5  A    between atoms: N_7  and  C_28
REMARK    6  A    between atoms: N_7  and  C_29
REMARK    7  A    between atoms: C_9  and  C_14
REMARK    8  A    between atoms: C_14  and  C_17
REMARK    9  A    between atoms: C_17  and  C_21
REMARK   10  A    between atoms: C_20  and  C_22
REMARK                            x       y       z     vdW  Elec       q    Type
REMARK                         _______ _______ _______ _____ _____    ______ ____
ROOT
ATOM      1  O   UNL     1      -2.744   4.595  27.137  0.00  0.00    -0.274 OA
ATOM      3  N   UNL     1      -2.500   3.010  23.858  0.00  0.00    -0.286 NA
ATOM      4  N   UNL     1      -1.218   3.103  26.352  0.00  0.00    -0.313 N 
ATOM      8  C   UNL     1      -2.928   4.045  24.808  0.00  0.00    +0.145 C 
ATOM      9  C   UNL     1      -1.085   2.666  23.942  0.00  0.00    +0.075 C 
ATOM     10  C   UNL     1      -4.773   2.712  23.964  0.00  0.00    +0.070 C 
ATOM     11  C   UNL     1      -4.455   3.894  24.879  0.00  0.00    +0.048 C 
ATOM     12  C   UNL     1      -3.471   1.922  23.939  0.00  0.00    +0.104 C 
ATOM     13  C   UNL     1      -0.725   2.195  25.342  0.00  0.00    +0.123 C 
ATOM     15  C   UNL     1      -2.309   3.922  26.198  0.00  0.00    +0.230 C 
ATOM     30  H   UNL     1      -0.802   3.046  27.277  0.00  0.00    +0.149 HD
ENDROOT
BRANCH  10   5
ATOM      5  N   UNL     1      -5.915   1.933  24.414  0.00  0.00    -0.308 NA
ATOM     31  H   UNL     1      -6.675   2.568  24.657  0.00  0.00    +0.123 HD
BRANCH   5  20
ATOM     20  C   UNL     1      -5.575   1.132  25.583  0.00  0.00    +0.116 C 
BRANCH  20  22
ATOM     22  C   UNL     1      -4.528   0.097  25.270  0.00  0.00    -0.033 A 
ATOM     23  C   UNL     1      -3.398  -0.018  26.079  0.00  0.00    +0.007 A 
ATOM     24  C   UNL     1      -4.688  -0.747  24.171  0.00  0.00    +0.007 A 
ATOM     25  C   UNL     1      -2.427  -0.976  25.789  0.00  0.00    +0.023 A 
ATOM     26  C   UNL     1      -3.717  -1.705  23.881  0.00  0.00    +0.023 A 
ATOM     27  C   UNL     1      -2.587  -1.820  24.690  0.00  0.00    +0.029 A 
BRANCH  27   7
ATOM      7  N   UNL     1      -1.606  -2.790  24.397  0.00  0.00    -0.336 N 
ATOM     28  C   UNL     1      -0.330  -2.774  25.085  0.00  0.00    +0.129 C 
ATOM     29  C   UNL     1      -1.857  -3.811  23.399  0.00  0.00    +0.129 C 
ENDBRANCH  27   7
ENDBRANCH  20  22
ENDBRANCH   5  20
ENDBRANCH  10   5
BRANCH   9  14
ATOM     14  C   UNL     1      -0.661   1.638  22.892  0.00  0.00    +0.029 C 
BRANCH  14  17
ATOM     17  C   UNL     1       0.146   0.510  23.519  0.00  0.00    +0.097 C 
BRANCH  17  21
ATOM      2  O   UNL     1       1.423  -0.439  21.694  0.00  0.00    -0.276 OA
ATOM      6  N   UNL     1       2.533   0.750  23.350  0.00  0.00    -0.312 N 
ATOM     21  C   UNL     1       1.411   0.208  22.738  0.00  0.00    +0.213 C 
ATOM     32  H   UNL     1       2.433   1.267  24.220  0.00  0.00    +0.149 HD
BRANCH   6  16
ATOM     16  C   UNL     1       3.853   0.605  22.808  0.00  0.00    +0.073 C 
ATOM     18  C   UNL     1       4.774  -0.481  23.284  0.00  0.00    +0.024 C 
ATOM     19  C   UNL     1       5.068   0.951  23.619  0.00  0.00    +0.024 C 
ENDBRANCH   6  16
ENDBRANCH  17  21
ENDBRANCH  14  17
ENDBRANCH   9  14
TORSDOF 8
ENDMDL
MODEL 2
REMARK VINA RESULT:      -2.0      1.654      2.492
REMARK  Name = 45360723
REMARK  10 active torsions:
REMARK  status: ('A' for Active; 'I' for Inactive)
REMARK    1  A    between atoms: N_5  and  C_10
REMARK    2  A    between atoms: N_5  and  C_20
REMARK    3  A    between atoms: N_6  and  C_16
REMARK    4  A    between atoms: N_7  and  C_27
REMARK    5  A    between atoms: N_7  and  C_28
REMARK    6  A    between atoms: N_7  and  C_29
REMARK    7  A    between atoms: C_9  and  C_14
REMARK    8  A    between atoms: C_14  and  C_17
REMARK    9  A    between atoms: C_17  and  C_21
REMARK   10  A    between atoms: C_20  and  C_22
REMARK                            x       y       z     vdW  Elec       q    Type
REMARK                         _______ _______ _______ _____ _____    ______ ____
ROOT
ATOM      1  O   UNL     1      -0.327   2.752  27.937  0.00  0.00    -0.274 OA
ATOM      3  N   UNL     1      -0.373   2.709  24.287  0.00  0.00    -0.286 NA
ATOM      4  N   UNL     1      -0.159   0.997  26.500  0.00  0.00    -0.313 N 
ATOM      8  C   UNL     1      -0.188   3.322  25.609  0.00  0.00    +0.145 C 
ATOM      9  C   UNL     1       0.289   1.419  24.126  0.00  0.00    +0.075 C 
ATOM     10  C   UNL     1      -2.100   4.215  24.408  0.00  0.00    +0.070 C 
ATOM     11  C   UNL     1      -1.314   4.362  25.712  0.00  0.00    +0.048 C 
ATOM     12  C   UNL     1      -1.796   2.789  23.969  0.00  0.00    +0.104 C 
ATOM     13  C   UNL     1      -0.195   0.428  25.173  0.00  0.00    +0.123 C 
ATOM     15  C   UNL     1      -0.255   2.340  26.775  0.00  0.00    +0.230 C 
ATOM     30  H   UNL     1      -0.183   0.355  27.287  0.00  0.00    +0.149 HD
ENDROOT
BRANCH  10   5
ATOM      5  N   UNL     1      -3.520   4.483  24.566  0.00  0.00    -0.308 NA
ATOM     31  H   UNL     1      -3.797   4.257  25.522  0.00  0.00    +0.123 HD
BRANCH   5  20
ATOM     20  C   UNL     1      -4.311   3.679  23.642  0.00  0.00    +0.116 C 
BRANCH  20  22
ATOM     22  C   UNL     1      -4.181   2.207  23.925  0.00  0.00    -0.033 A 
ATOM     23  C   UNL     1      -3.518   1.379  23.020  0.00  0.00    +0.007 A 
ATOM     24  C   UNL     1      -4.723   1.670  25.093  0.00  0.00    +0.007 A 
ATOM     25  C   UNL     1      -3.397   0.014  23.282  0.00  0.00    +0.023 A 
ATOM     26  C   UNL     1      -4.603   0.305  25.355  0.00  0.00    +0.023 A 
ATOM     27  C   UNL     1      -3.940  -0.522  24.450  0.00  0.00    +0.029 A 
BRANCH  27   7
ATOM      7  N   UNL     1      -3.818  -1.902  24.715  0.00  0.00    -0.336 N 
ATOM     28  C   UNL     1      -4.320  -2.878  23.768  0.00  0.00    +0.129 C 
ATOM     29  C   UNL     1      -3.194  -2.362  25.940  0.00  0.00    +0.129 C 
ENDBRANCH  27   7
ENDBRANCH  20  22
ENDBRANCH   5  20
ENDBRANCH  10   5
BRANCH   9  14
ATOM     14  C   UNL     1       0.135   0.846  22.716  0.00  0.00    +0.029 C 
BRANCH  14  17
ATOM     17  C   UNL     1       0.908  -0.457  22.563  0.00  0.00    +0.097 C 
BRANCH  17  21
ATOM      2  O   UNL     1       2.690   0.057  21.007  0.00  0.00    -0.276 OA
ATOM      6  N   UNL     1       3.219  -0.361  23.228  0.00  0.00    -0.312 N 
ATOM     21  C   UNL     1       2.351  -0.221  22.153  0.00  0.00    +0.213 C 
ATOM     32  H   UNL     1       2.851  -0.601  24.145  0.00  0.00    +0.149 HD
BRANCH   6  16
ATOM     16  C   UNL     1       4.637  -0.187  23.102  0.00  0.00    +0.073 C 
ATOM     18  C   UNL     1       5.583  -0.756  24.118  0.00  0.00    +0.024 C 
ATOM     19  C   UNL     1       5.393   0.728  24.019  0.00  0.00    +0.024 C 
ENDBRANCH   6  16
ENDBRANCH  17  21
ENDBRANCH  14  17
ENDBRANCH   9  14
TORSDOF 8
ENDMDL
MODEL 3
REMARK VINA RESULT:      -1.8      2.053      4.862
REMARK  Name = 45360723
REMARK  10 active torsions:
REMARK  status: ('A' for Active; 'I' for Inactive)
REMARK    1  A    between atoms: N_5  and  C_10
REMARK    2  A    between atoms: N_5  and  C_20
REMARK    3  A    between atoms: N_6  and  C_16
REMARK    4  A    between atoms: N_7  and  C_27
REMARK    5  A    between atoms: N_7  and  C_28
REMARK    6  A    between atoms: N_7  and  C_29
REMARK    7  A    between atoms: C_9  and  C_14
REMARK    8  A    between atoms: C_14  and  C_17
REMARK    9  A    between atoms: C_17  and  C_21
REMARK   10  A    between atoms: C_20  and  C_22
REMARK                            x       y       z     vdW  Elec       q    Type
REMARK                         _______ _______ _______ _____ _____    ______ ____
ROOT
ATOM      1  O   UNL     1      -3.346  -3.866  24.807  0.00  0.00    -0.274 OA
ATOM      3  N   UNL     1      -2.150  -0.476  25.438  0.00  0.00    -0.286 NA
ATOM      4  N   UNL     1      -1.595  -2.745  23.885  0.00  0.00    -0.313 N 
ATOM      8  C   UNL     1      -2.868  -1.716  25.761  0.00  0.00    +0.145 C 
ATOM      9  C   UNL     1      -0.796  -0.678  24.936  0.00  0.00    +0.075 C 
ATOM     10  C   UNL     1      -4.351   0.177  25.423  0.00  0.00    +0.070 C 
ATOM     11  C   UNL     1      -4.348  -1.308  25.789  0.00  0.00    +0.048 C 
ATOM     12  C   UNL     1      -3.055   0.352  24.642  0.00  0.00    +0.104 C 
ATOM     13  C   UNL     1      -0.805  -1.552  23.691  0.00  0.00    +0.123 C 
ATOM     15  C   UNL     1      -2.642  -2.853  24.768  0.00  0.00    +0.230 C 
ATOM     30  H   UNL     1      -1.442  -3.518  23.244  0.00  0.00    +0.149 HD
ENDROOT
BRANCH  10   5
ATOM      5  N   UNL     1      -5.533   0.578  24.679  0.00  0.00    -0.308 NA
ATOM     31  H   UNL     1      -5.350   0.472  23.681  0.00  0.00    +0.123 HD
BRANCH   5  20
ATOM     20  C   UNL     1      -5.877   1.968  24.951  0.00  0.00    +0.116 C 
BRANCH  20  22
ATOM     22  C   UNL     1      -4.665   2.860  24.941  0.00  0.00    -0.033 A 
ATOM     23  C   UNL     1      -4.020   3.145  23.738  0.00  0.00    +0.007 A 
ATOM     24  C   UNL     1      -4.186   3.401  26.134  0.00  0.00    +0.007 A 
ATOM     25  C   UNL     1      -2.896   3.970  23.728  0.00  0.00    +0.023 A 
ATOM     26  C   UNL     1      -3.062   4.227  26.124  0.00  0.00    +0.023 A 
ATOM     27  C   UNL     1      -2.417   4.512  24.922  0.00  0.00    +0.029 A 
BRANCH  27   7
ATOM      7  N   UNL     1      -1.281   5.347  24.911  0.00  0.00    -0.336 N 
ATOM     28  C   UNL     1       0.046   4.779  24.783  0.00  0.00    +0.129 C 
ATOM     29  C   UNL     1      -1.425   6.784  25.036  0.00  0.00    +0.129 C 
ENDBRANCH  27   7
ENDBRANCH  20  22
ENDBRANCH   5  20
ENDBRANCH  10   5
BRANCH   9  14
ATOM     14  C   UNL     1      -0.055   0.635  24.679  0.00  0.00    +0.029 C 
BRANCH  14  17
ATOM     17  C   UNL     1       0.080   0.908  23.187  0.00  0.00    +0.097 C 
BRANCH  17  21
ATOM      2  O   UNL     1       1.376  -0.531  21.733  0.00  0.00    -0.276 OA
ATOM      6  N   UNL     1       2.486   0.879  23.205  0.00  0.00    -0.312 N 
ATOM     21  C   UNL     1       1.359   0.326  22.613  0.00  0.00    +0.213 C 
ATOM     32  H   UNL     1       2.380   1.581  23.934  0.00  0.00    +0.149 HD
BRANCH   6  16
ATOM     16  C   UNL     1       3.818   0.496  22.837  0.00  0.00    +0.073 C 
ATOM     18  C   UNL     1       4.515  -0.644  23.519  0.00  0.00    +0.024 C 
ATOM     19  C   UNL     1       4.983   0.763  23.745  0.00  0.00    +0.024 C 
ENDBRANCH   6  16
ENDBRANCH  17  21
ENDBRANCH  14  17
ENDBRANCH   9  14
TORSDOF 8
ENDMDL
MODEL 4
REMARK VINA RESULT:      -1.7      2.297      4.132
REMARK  Name = 45360723
REMARK  10 active torsions:
REMARK  status: ('A' for Active; 'I' for Inactive)
REMARK    1  A    between atoms: N_5  and  C_10
REMARK    2  A    between atoms: N_5  and  C_20
REMARK    3  A    between atoms: N_6  and  C_16
REMARK    4  A    between atoms: N_7  and  C_27
REMARK    5  A    between atoms: N_7  and  C_28
REMARK    6  A    between atoms: N_7  and  C_29
REMARK    7  A    between atoms: C_9  and  C_14
REMARK    8  A    between atoms: C_14  and  C_17
REMARK    9  A    between atoms: C_17  and  C_21
REMARK   10  A    between atoms: C_20  and  C_22
REMARK                            x       y       z     vdW  Elec       q    Type
REMARK                         _______ _______ _______ _____ _____    ______ ____
ROOT
ATOM      1  O   UNL     1      -6.439   3.198  26.204  0.00  0.00    -0.274 OA
ATOM      3  N   UNL     1      -3.453   2.175  24.370  0.00  0.00    -0.286 NA
ATOM      4  N   UNL     1      -4.324   4.028  26.288  0.00  0.00    -0.313 N 
ATOM      8  C   UNL     1      -4.898   2.289  24.602  0.00  0.00    +0.145 C 
ATOM      9  C   UNL     1      -2.717   3.424  24.536  0.00  0.00    +0.075 C 
ATOM     10  C   UNL     1      -4.087   0.008  24.780  0.00  0.00    +0.070 C 
ATOM     11  C   UNL     1      -5.363   0.846  24.851  0.00  0.00    +0.048 C 
ATOM     12  C   UNL     1      -2.987   1.007  25.114  0.00  0.00    +0.104 C 
ATOM     13  C   UNL     1      -2.924   3.993  25.931  0.00  0.00    +0.123 C 
ATOM     15  C   UNL     1      -5.281   3.187  25.776  0.00  0.00    +0.230 C 
ATOM     30  H   UNL     1      -4.597   4.637  27.055  0.00  0.00    +0.149 HD
ENDROOT
BRANCH  10   5
ATOM      5  N   UNL     1      -4.111  -1.144  25.667  0.00  0.00    -0.308 NA
ATOM     31  H   UNL     1      -3.841  -0.847  26.605  0.00  0.00    +0.123 HD
BRANCH   5  20
ATOM     20  C   UNL     1      -3.188  -2.176  25.212  0.00  0.00    +0.116 C 
BRANCH  20  22
ATOM     22  C   UNL     1      -1.949  -1.587  24.592  0.00  0.00    -0.033 A 
ATOM     23  C   UNL     1      -2.046  -0.828  23.427  0.00  0.00    +0.007 A 
ATOM     24  C   UNL     1      -0.703  -1.802  25.183  0.00  0.00    +0.007 A 
ATOM     25  C   UNL     1      -0.899  -0.282  22.851  0.00  0.00    +0.023 A 
ATOM     26  C   UNL     1       0.444  -1.257  24.607  0.00  0.00    +0.023 A 
ATOM     27  C   UNL     1       0.347  -0.497  23.443  0.00  0.00    +0.029 A 
BRANCH  27   7
ATOM      7  N   UNL     1       1.508   0.055  22.861  0.00  0.00    -0.336 N 
ATOM     28  C   UNL     1       2.216   1.134  23.520  0.00  0.00    +0.129 C 
ATOM     29  C   UNL     1       2.003  -0.445  21.594  0.00  0.00    +0.129 C 
ENDBRANCH  27   7
ENDBRANCH  20  22
ENDBRANCH   5  20
ENDBRANCH  10   5
BRANCH   9  14
ATOM     14  C   UNL     1      -1.228   3.283  24.217  0.00  0.00    +0.029 C 
BRANCH  14  17
ATOM     17  C   UNL     1      -0.368   3.774  25.373  0.00  0.00    +0.097 C 
BRANCH  17  21
ATOM      2  O   UNL     1      -0.315   1.481  26.147  0.00  0.00    -0.276 OA
ATOM      6  N   UNL     1       0.869   3.096  27.321  0.00  0.00    -0.312 N 
ATOM     21  C   UNL     1       0.046   2.645  26.298  0.00  0.00    +0.213 C 
ATOM     32  H   UNL     1       1.112   4.082  27.376  0.00  0.00    +0.149 HD
BRANCH   6  16
ATOM     16  C   UNL     1       1.396   2.222  28.329  0.00  0.00    +0.073 C 
ATOM     18  C   UNL     1       1.224   2.525  29.788  0.00  0.00    +0.024 C 
ATOM     19  C   UNL     1       2.582   2.618  29.159  0.00  0.00    +0.024 C 
ENDBRANCH   6  16
ENDBRANCH  17  21
ENDBRANCH  14  17
ENDBRANCH   9  14
TORSDOF 8
ENDMDL
MODEL 5
REMARK VINA RESULT:      -1.5      2.044      6.504
REMARK  Name = 45360723
REMARK  10 active torsions:
REMARK  status: ('A' for Active; 'I' for Inactive)
REMARK    1  A    between atoms: N_5  and  C_10
REMARK    2  A    between atoms: N_5  and  C_20
REMARK    3  A    between atoms: N_6  and  C_16
REMARK    4  A    between atoms: N_7  and  C_27
REMARK    5  A    between atoms: N_7  and  C_28
REMARK    6  A    between atoms: N_7  and  C_29
REMARK    7  A    between atoms: C_9  and  C_14
REMARK    8  A    between atoms: C_14  and  C_17
REMARK    9  A    between atoms: C_17  and  C_21
REMARK   10  A    between atoms: C_20  and  C_22
REMARK                            x       y       z     vdW  Elec       q    Type
REMARK                         _______ _______ _______ _____ _____    ______ ____
ROOT
ATOM      1  O   UNL     1       0.981   2.698  26.806  0.00  0.00    -0.274 OA
ATOM      3  N   UNL     1      -2.115   1.795  25.097  0.00  0.00    -0.286 NA
ATOM      4  N   UNL     1      -0.346   3.944  25.442  0.00  0.00    -0.313 N 
ATOM      8  C   UNL     1      -1.077   1.665  26.128  0.00  0.00    +0.145 C 
ATOM      9  C   UNL     1      -2.605   3.155  24.905  0.00  0.00    +0.075 C 
ATOM     10  C   UNL     1      -1.106  -0.198  24.572  0.00  0.00    +0.070 C 
ATOM     11  C   UNL     1      -0.398   0.321  25.824  0.00  0.00    +0.048 C 
ATOM     12  C   UNL     1      -1.648   1.066  23.920  0.00  0.00    +0.104 C 
ATOM     13  C   UNL     1      -1.466   4.094  24.542  0.00  0.00    +0.123 C 
ATOM     15  C   UNL     1      -0.052   2.796  26.137  0.00  0.00    +0.230 C 
ATOM     30  H   UNL     1       0.335   4.698  25.474  0.00  0.00    +0.149 HD
ENDROOT
BRANCH  10   5
ATOM      5  N   UNL     1      -0.232  -0.970  23.703  0.00  0.00    -0.308 NA
ATOM     31  H   UNL     1       0.486  -1.421  24.269  0.00  0.00    +0.123 HD
BRANCH   5  20
ATOM     20  C   UNL     1       0.412  -0.114  22.714  0.00  0.00    +0.116 C 
BRANCH  20  22
ATOM     22  C   UNL     1       1.903  -0.058  22.907  0.00  0.00    -0.033 A 
ATOM     23  C   UNL     1       2.590  -1.182  23.363  0.00  0.00    +0.007 A 
ATOM     24  C   UNL     1       2.599   1.119  22.627  0.00  0.00    +0.007 A 
ATOM     25  C   UNL     1       3.972  -1.130  23.542  0.00  0.00    +0.023 A 
ATOM     26  C   UNL     1       3.981   1.171  22.806  0.00  0.00    +0.023 A 
ATOM     27  C   UNL     1       4.668   0.047  23.263  0.00  0.00    +0.029 A 
BRANCH  27   7
ATOM      7  N   UNL     1       6.066   0.100  23.443  0.00  0.00    -0.336 N 
ATOM     28  C   UNL     1       6.660   1.126  24.277  0.00  0.00    +0.129 C 
ATOM     29  C   UNL     1       6.927  -0.867  22.792  0.00  0.00    +0.129 C 
ENDBRANCH  27   7
ENDBRANCH  20  22
ENDBRANCH   5  20
ENDBRANCH  10   5
BRANCH   9  14
ATOM     14  C   UNL     1      -3.734   3.240  23.876  0.00  0.00    +0.029 C 
BRANCH  14  17
ATOM     17  C   UNL     1      -5.098   3.183  24.550  0.00  0.00    +0.097 C 
BRANCH  17  21
ATOM      2  O   UNL     1      -6.060   1.639  26.148  0.00  0.00    -0.276 OA
ATOM      6  N   UNL     1      -4.808   0.800  24.383  0.00  0.00    -0.312 N 
ATOM     21  C   UNL     1      -5.391   1.813  25.134  0.00  0.00    +0.213 C 
ATOM     32  H   UNL     1      -4.262   1.035  23.558  0.00  0.00    +0.149 HD
BRANCH   6  16
ATOM     16  C   UNL     1      -4.937  -0.586  24.726  0.00  0.00    +0.073 C 
ATOM     18  C   UNL     1      -3.803  -1.340  25.356  0.00  0.00    +0.024 C 
ATOM     19  C   UNL     1      -4.219  -1.650  23.948  0.00  0.00    +0.024 C 
ENDBRANCH   6  16
ENDBRANCH  17  21
ENDBRANCH  14  17
ENDBRANCH   9  14
TORSDOF 8
ENDMDL
MODEL 6
REMARK VINA RESULT:      -1.3      2.041      6.154
REMARK  Name = 45360723
REMARK  10 active torsions:
REMARK  status: ('A' for Active; 'I' for Inactive)
REMARK    1  A    between atoms: N_5  and  C_10
REMARK    2  A    between atoms: N_5  and  C_20
REMARK    3  A    between atoms: N_6  and  C_16
REMARK    4  A    between atoms: N_7  and  C_27
REMARK    5  A    between atoms: N_7  and  C_28
REMARK    6  A    between atoms: N_7  and  C_29
REMARK    7  A    between atoms: C_9  and  C_14
REMARK    8  A    between atoms: C_14  and  C_17
REMARK    9  A    between atoms: C_17  and  C_21
REMARK   10  A    between atoms: C_20  and  C_22
REMARK                            x       y       z     vdW  Elec       q    Type
REMARK                         _______ _______ _______ _____ _____    ______ ____
ROOT
ATOM      1  O   UNL     1      -0.746   5.254  25.175  0.00  0.00    -0.274 OA
ATOM      3  N   UNL     1      -2.543   2.084  24.957  0.00  0.00    -0.286 NA
ATOM      4  N   UNL     1      -2.905   4.842  24.591  0.00  0.00    -0.313 N 
ATOM      8  C   UNL     1      -1.476   2.980  25.421  0.00  0.00    +0.145 C 
ATOM      9  C   UNL     1      -3.887   2.644  25.062  0.00  0.00    +0.075 C 
ATOM     10  C   UNL     1      -0.668   1.225  23.950  0.00  0.00    +0.070 C 
ATOM     11  C   UNL     1      -0.196   2.414  24.788  0.00  0.00    +0.048 C 
ATOM     12  C   UNL     1      -2.127   1.552  23.662  0.00  0.00    +0.104 C 
ATOM     13  C   UNL     1      -3.994   3.944  24.281  0.00  0.00    +0.123 C 
ATOM     15  C   UNL     1      -1.667   4.444  25.032  0.00  0.00    +0.230 C 
ATOM     30  H   UNL     1      -3.025   5.823  24.356  0.00  0.00    +0.149 HD
ENDROOT
BRANCH  10   5
ATOM      5  N   UNL     1       0.128   1.021  22.751  0.00  0.00    -0.308 NA
ATOM     31  H   UNL     1      -0.478   1.093  21.934  0.00  0.00    +0.123 HD
BRANCH   5  20
ATOM     20  C   UNL     1       0.759  -0.293  22.758  0.00  0.00    +0.116 C 
BRANCH  20  22
ATOM     22  C   UNL     1       2.251  -0.198  22.931  0.00  0.00    -0.033 A 
ATOM     23  C   UNL     1       2.959  -1.268  23.476  0.00  0.00    +0.007 A 
ATOM     24  C   UNL     1       2.926   0.962  22.547  0.00  0.00    +0.007 A 
ATOM     25  C   UNL     1       4.342  -1.180  23.637  0.00  0.00    +0.023 A 
ATOM     26  C   UNL     1       4.308   1.049  22.708  0.00  0.00    +0.023 A 
ATOM     27  C   UNL     1       5.016  -0.021  23.252  0.00  0.00    +0.029 A 
BRANCH  27   7
ATOM      7  N   UNL     1       6.415   0.067  23.414  0.00  0.00    -0.336 N 
ATOM     28  C   UNL     1       7.288  -0.908  22.792  0.00  0.00    +0.129 C 
ATOM     29  C   UNL     1       6.996   1.130  24.211  0.00  0.00    +0.129 C 
ENDBRANCH  27   7
ENDBRANCH  20  22
ENDBRANCH   5  20
ENDBRANCH  10   5
BRANCH   9  14
ATOM     14  C   UNL     1      -4.976   1.658  24.638  0.00  0.00    +0.029 C 
BRANCH  14  17
ATOM     17  C   UNL     1      -5.029   0.460  25.576  0.00  0.00    +0.097 C 
BRANCH  17  21
ATOM      2  O   UNL     1      -4.650  -1.332  23.992  0.00  0.00    -0.276 OA
ATOM      6  N   UNL     1      -3.195  -1.083  25.784  0.00  0.00    -0.312 N 
ATOM     21  C   UNL     1      -4.297  -0.743  25.010  0.00  0.00    +0.213 C 
ATOM     32  H   UNL     1      -2.979  -0.544  26.619  0.00  0.00    +0.149 HD
BRANCH   6  16
ATOM     16  C   UNL     1      -2.336  -2.185  25.461  0.00  0.00    +0.073 C 
ATOM     18  C   UNL     1      -0.847  -2.017  25.396  0.00  0.00    +0.024 C 
ATOM     19  C   UNL     1      -1.629  -2.257  24.139  0.00  0.00    +0.024 C 
ENDBRANCH   6  16
ENDBRANCH  17  21
ENDBRANCH  14  17
ENDBRANCH   9  14
TORSDOF 8
ENDMDL
MODEL 7
REMARK VINA RESULT:      -1.1      2.091      4.494
REMARK  Name = 45360723
REMARK  10 active torsions:
REMARK  status: ('A' for Active; 'I' for Inactive)
REMARK    1  A    between atoms: N_5  and  C_10
REMARK    2  A    between atoms: N_5  and  C_20
REMARK    3  A    between atoms: N_6  and  C_16
REMARK    4  A    between atoms: N_7  and  C_27
REMARK    5  A    between atoms: N_7  and  C_28
REMARK    6  A    between atoms: N_7  and  C_29
REMARK    7  A    between atoms: C_9  and  C_14
REMARK    8  A    between atoms: C_14  and  C_17
REMARK    9  A    between atoms: C_17  and  C_21
REMARK   10  A    between atoms: C_20  and  C_22
REMARK                            x       y       z     vdW  Elec       q    Type
REMARK                         _______ _______ _______ _____ _____    ______ ____
ROOT
ATOM      1  O   UNL     1      -2.817   0.010  26.355  0.00  0.00    -0.274 OA
ATOM      3  N   UNL     1       0.163   0.822  24.411  0.00  0.00    -0.286 NA
ATOM      4  N   UNL     1      -2.394  -0.300  24.143  0.00  0.00    -0.313 N 
ATOM      8  C   UNL     1      -0.584   0.527  25.639  0.00  0.00    +0.145 C 
ATOM      9  C   UNL     1      -0.094  -0.103  23.313  0.00  0.00    +0.075 C 
ATOM     10  C   UNL     1       0.217   2.816  25.545  0.00  0.00    +0.070 C 
ATOM     11  C   UNL     1      -0.542   1.837  26.441  0.00  0.00    +0.048 C 
ATOM     12  C   UNL     1       0.012   2.251  24.146  0.00  0.00    +0.104 C 
ATOM     13  C   UNL     1      -1.574  -0.132  22.965  0.00  0.00    +0.123 C 
ATOM     15  C   UNL     1      -2.026   0.083  25.410  0.00  0.00    +0.230 C 
ATOM     30  H   UNL     1      -3.350  -0.614  24.007  0.00  0.00    +0.149 HD
ENDROOT
BRANCH  10   5
ATOM      5  N   UNL     1      -0.239   4.189  25.688  0.00  0.00    -0.308 NA
ATOM     31  H   UNL     1      -0.688   4.298  26.598  0.00  0.00    +0.123 HD
BRANCH   5  20
ATOM     20  C   UNL     1      -1.196   4.535  24.644  0.00  0.00    +0.116 C 
BRANCH  20  22
ATOM     22  C   UNL     1      -2.529   3.873  24.862  0.00  0.00    -0.033 A 
ATOM     23  C   UNL     1      -3.120   3.140  23.834  0.00  0.00    +0.007 A 
ATOM     24  C   UNL     1      -3.174   3.993  26.094  0.00  0.00    +0.007 A 
ATOM     25  C   UNL     1      -4.356   2.526  24.036  0.00  0.00    +0.023 A 
ATOM     26  C   UNL     1      -4.411   3.380  26.295  0.00  0.00    +0.023 A 
ATOM     27  C   UNL     1      -5.001   2.646  25.267  0.00  0.00    +0.029 A 
BRANCH  27   7
ATOM      7  N   UNL     1      -6.251   2.025  25.472  0.00  0.00    -0.336 N 
ATOM     28  C   UNL     1      -6.691   1.684  26.810  0.00  0.00    +0.129 C 
ATOM     29  C   UNL     1      -7.109   1.714  24.346  0.00  0.00    +0.129 C 
ENDBRANCH  27   7
ENDBRANCH  20  22
ENDBRANCH   5  20
ENDBRANCH  10   5
BRANCH   9  14
ATOM     14  C   UNL     1       0.755   0.193  22.075  0.00  0.00    +0.029 C 
BRANCH  14  17
ATOM     17  C   UNL     1       1.999  -0.684  22.038  0.00  0.00    +0.097 C 
BRANCH  17  21
ATOM      2  O   UNL     1       3.371   1.158  22.803  0.00  0.00    -0.276 OA
ATOM      6  N   UNL     1       3.956  -1.008  23.398  0.00  0.00    -0.312 N 
ATOM     21  C   UNL     1       3.166  -0.052  22.774  0.00  0.00    +0.213 C 
ATOM     32  H   UNL     1       3.717  -1.993  23.316  0.00  0.00    +0.149 HD
BRANCH   6  16
ATOM     16  C   UNL     1       5.123  -0.666  24.160  0.00  0.00    +0.073 C 
ATOM     18  C   UNL     1       5.699   0.719  24.120  0.00  0.00    +0.024 C 
ATOM     19  C   UNL     1       6.444  -0.421  23.491  0.00  0.00    +0.024 C 
ENDBRANCH   6  16
ENDBRANCH  17  21
ENDBRANCH  14  17
ENDBRANCH   9  14
TORSDOF 8
ENDMDL
MODEL 8
REMARK VINA RESULT:      -0.7      1.990      4.916
REMARK  Name = 45360723
REMARK  10 active torsions:
REMARK  status: ('A' for Active; 'I' for Inactive)
REMARK    1  A    between atoms: N_5  and  C_10
REMARK    2  A    between atoms: N_5  and  C_20
REMARK    3  A    between atoms: N_6  and  C_16
REMARK    4  A    between atoms: N_7  and  C_27
REMARK    5  A    between atoms: N_7  and  C_28
REMARK    6  A    between atoms: N_7  and  C_29
REMARK    7  A    between atoms: C_9  and  C_14
REMARK    8  A    between atoms: C_14  and  C_17
REMARK    9  A    between atoms: C_17  and  C_21
REMARK   10  A    between atoms: C_20  and  C_22
REMARK                            x       y       z     vdW  Elec       q    Type
REMARK                         _______ _______ _______ _____ _____    ______ ____
ROOT
ATOM      1  O   UNL     1      -6.975   1.232  26.819  0.00  0.00    -0.274 OA
ATOM      3  N   UNL     1      -4.539   2.152  24.261  0.00  0.00    -0.286 NA
ATOM      4  N   UNL     1      -5.841   3.181  26.523  0.00  0.00    -0.313 N 
ATOM      8  C   UNL     1      -5.651   1.374  24.821  0.00  0.00    +0.145 C 
ATOM      9  C   UNL     1      -4.687   3.597  24.399  0.00  0.00    +0.075 C 
ATOM     10  C   UNL     1      -3.622   0.069  24.552  0.00  0.00    +0.070 C 
ATOM     11  C   UNL     1      -5.079  -0.041  25.001  0.00  0.00    +0.048 C 
ATOM     12  C   UNL     1      -3.301   1.545  24.743  0.00  0.00    +0.104 C 
ATOM     13  C   UNL     1      -4.843   3.987  25.860  0.00  0.00    +0.123 C 
ATOM     15  C   UNL     1      -6.192   1.908  26.145  0.00  0.00    +0.230 C 
ATOM     30  H   UNL     1      -6.225   3.533  27.395  0.00  0.00    +0.149 HD
ENDROOT
BRANCH  10   5
ATOM      5  N   UNL     1      -2.732  -0.817  25.284  0.00  0.00    -0.308 NA
ATOM     31  H   UNL     1      -2.010  -0.259  25.741  0.00  0.00    +0.123 HD
BRANCH   5  20
ATOM     20  C   UNL     1      -2.095  -1.777  24.391  0.00  0.00    +0.116 C 
BRANCH  20  22
ATOM     22  C   UNL     1      -0.676  -1.391  24.071  0.00  0.00    -0.033 A 
ATOM     23  C   UNL     1      -0.415  -0.465  23.063  0.00  0.00    +0.007 A 
ATOM     24  C   UNL     1       0.379  -1.960  24.786  0.00  0.00    +0.007 A 
ATOM     25  C   UNL     1       0.900  -0.108  22.766  0.00  0.00    +0.023 A 
ATOM     26  C   UNL     1       1.694  -1.603  24.489  0.00  0.00    +0.023 A 
ATOM     27  C   UNL     1       1.955  -0.677  23.481  0.00  0.00    +0.029 A 
BRANCH  27   7
ATOM      7  N   UNL     1       3.285  -0.315  23.181  0.00  0.00    -0.336 N 
ATOM     28  C   UNL     1       3.563   0.848  22.363  0.00  0.00    +0.129 C 
ATOM     29  C   UNL     1       4.392  -1.107  23.682  0.00  0.00    +0.129 C 
ENDBRANCH  27   7
ENDBRANCH  20  22
ENDBRANCH   5  20
ENDBRANCH  10   5
BRANCH   9  14
ATOM     14  C   UNL     1      -3.547   4.376  23.741  0.00  0.00    +0.029 C 
BRANCH  14  17
ATOM     17  C   UNL     1      -2.843   5.276  24.747  0.00  0.00    +0.097 C 
BRANCH  17  21
ATOM      2  O   UNL     1      -0.425   5.381  24.700  0.00  0.00    -0.276 OA
ATOM      6  N   UNL     1      -1.456   3.617  25.802  0.00  0.00    -0.312 N 
ATOM     21  C   UNL     1      -1.440   4.793  25.063  0.00  0.00    +0.213 C 
ATOM     32  H   UNL     1      -2.345   3.192  26.053  0.00  0.00    +0.149 HD
BRANCH   6  16
ATOM     16  C   UNL     1      -0.256   2.957  26.227  0.00  0.00    +0.073 C 
ATOM     18  C   UNL     1       0.551   2.123  25.276  0.00  0.00    +0.024 C 
ATOM     19  C   UNL     1      -0.206   1.466  26.391  0.00  0.00    +0.024 C 
ENDBRANCH   6  16
ENDBRANCH  17  21
ENDBRANCH  14  17
ENDBRANCH   9  14
TORSDOF 8
ENDMDL
MODEL 9
REMARK VINA RESULT:      -0.2      2.648      5.629
REMARK  Name = 45360723
REMARK  10 active torsions:
REMARK  status: ('A' for Active; 'I' for Inactive)
REMARK    1  A    between atoms: N_5  and  C_10
REMARK    2  A    between atoms: N_5  and  C_20
REMARK    3  A    between atoms: N_6  and  C_16
REMARK    4  A    between atoms: N_7  and  C_27
REMARK    5  A    between atoms: N_7  and  C_28
REMARK    6  A    between atoms: N_7  and  C_29
REMARK    7  A    between atoms: C_9  and  C_14
REMARK    8  A    between atoms: C_14  and  C_17
REMARK    9  A    between atoms: C_17  and  C_21
REMARK   10  A    between atoms: C_20  and  C_22
REMARK                            x       y       z     vdW  Elec       q    Type
REMARK                         _______ _______ _______ _____ _____    ______ ____
ROOT
ATOM      1  O   UNL     1      -2.473  -3.655  24.033  0.00  0.00    -0.274 OA
ATOM      3  N   UNL     1      -2.010  -0.319  25.439  0.00  0.00    -0.286 NA
ATOM      4  N   UNL     1      -0.930  -2.063  23.526  0.00  0.00    -0.313 N 
ATOM      8  C   UNL     1      -2.484  -1.708  25.438  0.00  0.00    +0.145 C 
ATOM      9  C   UNL     1      -0.616  -0.159  25.040  0.00  0.00    +0.075 C 
ATOM     10  C   UNL     1      -4.291  -0.089  25.343  0.00  0.00    +0.070 C 
ATOM     11  C   UNL     1      -4.016  -1.592  25.405  0.00  0.00    +0.048 C 
ATOM     12  C   UNL     1      -3.014   0.481  24.742  0.00  0.00    +0.104 C 
ATOM     13  C   UNL     1      -0.382  -0.733  23.651  0.00  0.00    +0.123 C 
ATOM     15  C   UNL     1      -1.983  -2.546  24.264  0.00  0.00    +0.230 C 
ATOM     30  H   UNL     1      -0.591  -2.640  22.761  0.00  0.00    +0.149 HD
ENDROOT
BRANCH  10   5
ATOM      5  N   UNL     1      -5.486   0.241  24.584  0.00  0.00    -0.308 NA
ATOM     31  H   UNL     1      -5.273   0.183  23.587  0.00  0.00    +0.123 HD
BRANCH   5  20
ATOM     20  C   UNL     1      -5.949   1.588  24.893  0.00  0.00    +0.116 C 
BRANCH  20  22
ATOM     22  C   UNL     1      -4.823   2.587  24.871  0.00  0.00    -0.033 A 
ATOM     23  C   UNL     1      -4.374   3.157  26.061  0.00  0.00    +0.007 A 
ATOM     24  C   UNL     1      -4.229   2.942  23.659  0.00  0.00    +0.007 A 
ATOM     25  C   UNL     1      -3.332   4.083  26.041  0.00  0.00    +0.023 A 
ATOM     26  C   UNL     1      -3.187   3.869  23.639  0.00  0.00    +0.023 A 
ATOM     27  C   UNL     1      -2.738   4.439  24.830  0.00  0.00    +0.029 A 
BRANCH  27   7
ATOM      7  N   UNL     1      -1.683   5.375  24.810  0.00  0.00    -0.336 N 
ATOM     28  C   UNL     1      -0.316   4.936  24.611  0.00  0.00    +0.129 C 
ATOM     29  C   UNL     1      -1.951   6.787  24.995  0.00  0.00    +0.129 C 
ENDBRANCH  27   7
ENDBRANCH  20  22
ENDBRANCH   5  20
ENDBRANCH  10   5
BRANCH   9  14
ATOM     14  C   UNL     1      -0.137   1.291  25.122  0.00  0.00    +0.029 C 
BRANCH  14  17
ATOM     17  C   UNL     1      -0.641   1.966  26.390  0.00  0.00    +0.097 C 
BRANCH  17  21
ATOM      2  O   UNL     1       1.426   3.177  26.741  0.00  0.00    -0.276 OA
ATOM      6  N   UNL     1       0.333   2.258  28.571  0.00  0.00    -0.312 N 
ATOM     21  C   UNL     1       0.492   2.541  27.221  0.00  0.00    +0.213 C 
ATOM     32  H   UNL     1      -0.470   1.717  28.882  0.00  0.00    +0.149 HD
BRANCH   6  16
ATOM     16  C   UNL     1       1.271   2.692  29.565  0.00  0.00    +0.073 C 
ATOM     18  C   UNL     1       2.738   2.779  29.264  0.00  0.00    +0.024 C 
ATOM     19  C   UNL     1       2.227   1.728  30.205  0.00  0.00    +0.024 C 
ENDBRANCH   6  16
ENDBRANCH  17  21
ENDBRANCH  14  17
ENDBRANCH   9  14
TORSDOF 8
ENDMDL
MODEL 10
REMARK VINA RESULT:       0.8      2.440      6.235
REMARK  Name = 45360723
REMARK  10 active torsions:
REMARK  status: ('A' for Active; 'I' for Inactive)
REMARK    1  A    between atoms: N_5  and  C_10
REMARK    2  A    between atoms: N_5  and  C_20
REMARK    3  A    between atoms: N_6  and  C_16
REMARK    4  A    between atoms: N_7  and  C_27
REMARK    5  A    between atoms: N_7  and  C_28
REMARK    6  A    between atoms: N_7  and  C_29
REMARK    7  A    between atoms: C_9  and  C_14
REMARK    8  A    between atoms: C_14  and  C_17
REMARK    9  A    between atoms: C_17  and  C_21
REMARK   10  A    between atoms: C_20  and  C_22
REMARK                            x       y       z     vdW  Elec       q    Type
REMARK                         _______ _______ _______ _____ _____    ______ ____
ROOT
ATOM      1  O   UNL     1       2.170  -0.678  22.869  0.00  0.00    -0.274 OA
ATOM      3  N   UNL     1      -0.914   0.137  24.644  0.00  0.00    -0.286 NA
ATOM      4  N   UNL     1       1.116  -1.797  24.545  0.00  0.00    -0.313 N 
ATOM      8  C   UNL     1       0.032   0.196  23.522  0.00  0.00    +0.145 C 
ATOM      9  C   UNL     1      -1.195  -1.213  25.122  0.00  0.00    +0.075 C 
ATOM     10  C   UNL     1      -0.165   2.305  24.709  0.00  0.00    +0.070 C 
ATOM     11  C   UNL     1       0.532   1.649  23.516  0.00  0.00    +0.048 C 
ATOM     12  C   UNL     1      -0.483   1.131  25.624  0.00  0.00    +0.104 C 
ATOM     13  C   UNL     1       0.085  -1.912  25.550  0.00  0.00    +0.123 C 
ATOM     15  C   UNL     1       1.203  -0.776  23.631  0.00  0.00    +0.230 C 
ATOM     30  H   UNL     1       1.893  -2.450  24.593  0.00  0.00    +0.149 HD
ENDROOT
BRANCH  10   5
ATOM      5  N   UNL     1       0.642   3.333  25.345  0.00  0.00    -0.308 NA
ATOM     31  H   UNL     1       0.877   3.033  26.292  0.00  0.00    +0.123 HD
BRANCH   5  20
ATOM     20  C   UNL     1      -0.079   4.598  25.414  0.00  0.00    +0.116 C 
BRANCH  20  22
ATOM     22  C   UNL     1      -1.570   4.393  25.453  0.00  0.00    -0.033 A 
ATOM     23  C   UNL     1      -2.141   3.613  26.457  0.00  0.00    +0.007 A 
ATOM     24  C   UNL     1      -2.380   4.985  24.483  0.00  0.00    +0.007 A 
ATOM     25  C   UNL     1      -3.522   3.423  26.492  0.00  0.00    +0.023 A 
ATOM     26  C   UNL     1      -3.761   4.795  24.518  0.00  0.00    +0.023 A 
ATOM     27  C   UNL     1      -4.332   4.014  25.522  0.00  0.00    +0.029 A 
BRANCH  27   7
ATOM      7  N   UNL     1      -5.729   3.823  25.558  0.00  0.00    -0.336 N 
ATOM     28  C   UNL     1      -6.628   4.954  25.449  0.00  0.00    +0.129 C 
ATOM     29  C   UNL     1      -6.284   2.492  25.713  0.00  0.00    +0.129 C 
ENDBRANCH  27   7
ENDBRANCH  20  22
ENDBRANCH   5  20
ENDBRANCH  10   5
BRANCH   9  14
ATOM     14  C   UNL     1      -2.237  -1.241  26.241  0.00  0.00    +0.029 C 
BRANCH  14  17
ATOM     17  C   UNL     1      -3.588  -1.713  25.724  0.00  0.00    +0.097 C 
BRANCH  17  21
ATOM      2  O   UNL     1      -4.332  -1.796  23.421  0.00  0.00    -0.276 OA
ATOM      6  N   UNL     1      -3.685   0.242  24.325  0.00  0.00    -0.312 N 
ATOM     21  C   UNL     1      -3.916  -1.127  24.363  0.00  0.00    +0.213 C 
ATOM     32  H   UNL     1      -3.332   0.717  25.151  0.00  0.00    +0.149 HD
BRANCH   6  16
ATOM     16  C   UNL     1      -3.918   1.030  23.150  0.00  0.00    +0.073 C 
ATOM     18  C   UNL     1      -2.882   1.140  22.069  0.00  0.00    +0.024 C 
ATOM     19  C   UNL     1      -3.197   2.328  22.929  0.00  0.00    +0.024 C 
ENDBRANCH   6  16
ENDBRANCH  17  21
ENDBRANCH  14  17
ENDBRANCH   9  14
TORSDOF 8
ENDMDL
