MODEL 1
REMARK VINA RESULT:       4.9      0.000      0.000
REMARK  Name = 7114682
REMARK  14 active torsions:
REMARK  status: ('A' for Active; 'I' for Inactive)
REMARK    1  A    between atoms: O_5  and  C_25
REMARK    2  A    between atoms: O_5  and  C_30
REMARK    3  A    between atoms: O_7  and  C_28
REMARK    4  A    between atoms: N_10  and  C_13
REMARK    5  A    between atoms: N_11  and  C_20
REMARK    6  A    between atoms: N_12  and  C_29
REMARK    7  A    between atoms: C_14  and  C_18
REMARK    8  A    between atoms: C_19  and  C_21
REMARK    9  A    between atoms: C_20  and  C_22
REMARK   10  A    between atoms: C_20  and  C_25
REMARK   11  A    between atoms: C_21  and  C_24
REMARK   12  A    between atoms: C_22  and  C_26
REMARK   13  A    between atoms: C_22  and  C_27
REMARK   14  A    between atoms: C_24  and  C_28
REMARK                            x       y       z     vdW  Elec       q    Type
REMARK                         _______ _______ _______ _____ _____    ______ ____
ROOT
ATOM      3  O   UNL     1      -3.755   4.134  27.113  0.00  0.00    -0.276 OA
ATOM      9  N   UNL     1      -2.620   3.103  25.360  0.00  0.00    -0.290 N 
ATOM     13  C   UNL     1      -0.136   1.957  24.341  0.00  0.00    +0.078 C 
ATOM     14  C   UNL     1      -2.548   2.713  23.944  0.00  0.00    +0.164 C 
ATOM     15  C   UNL     1      -1.117   2.667  23.403  0.00  0.00    +0.054 C 
ATOM     16  C   UNL     1      -0.237   2.537  25.750  0.00  0.00    +0.041 C 
ATOM     17  C   UNL     1      -1.666   2.457  26.270  0.00  0.00    +0.110 C 
ATOM     19  C   UNL     1      -3.619   3.918  25.906  0.00  0.00    +0.217 C 
ENDROOT
BRANCH  13  10
ATOM      4  O   UNL     1       1.804  -0.147  24.208  0.00  0.00    -0.253 OA
ATOM     10  N   UNL     1       1.214   2.059  23.844  0.00  0.00    -0.296 N 
ATOM     12  N   UNL     1       3.333   1.375  23.282  0.00  0.00    -0.269 N 
ATOM     23  C   UNL     1       2.103   0.978  23.813  0.00  0.00    +0.304 C 
ATOM     36  H   UNL     1       1.511   2.938  23.429  0.00  0.00    +0.151 HD
ATOM     38  H   UNL     1       3.417   2.349  23.003  0.00  0.00    +0.156 HD
BRANCH  12  29
ATOM      1  F   UNL     1       7.112  -1.010  25.036  0.00  0.00    -0.205 F 
ATOM     29  C   UNL     1       4.489   0.583  23.083  0.00  0.00    +0.037 A 
ATOM     31  C   UNL     1       5.246   0.170  24.179  0.00  0.00    +0.061 A 
ATOM     32  C   UNL     1       4.871   0.217  21.793  0.00  0.00    +0.023 A 
ATOM     33  C   UNL     1       6.385  -0.612  23.984  0.00  0.00    +0.125 A 
ATOM     34  C   UNL     1       6.010  -0.564  21.598  0.00  0.00    +0.005 A 
ATOM     35  C   UNL     1       6.767  -0.979  22.693  0.00  0.00    +0.038 A 
ENDBRANCH  12  29
ENDBRANCH  13  10
BRANCH  14  18
ATOM      2  O   UNL     1      -4.464   1.297  23.770  0.00  0.00    -0.274 OA
ATOM     11  N   UNL     1      -2.346   0.329  23.797  0.00  0.00    -0.301 N 
ATOM     18  C   UNL     1      -3.240   1.386  23.821  0.00  0.00    +0.234 C 
ATOM     37  H   UNL     1      -1.355   0.530  23.712  0.00  0.00    +0.150 HD
BRANCH  11  20
ATOM     20  C   UNL     1      -2.760  -1.053  23.708  0.00  0.00    +0.184 C 
BRANCH  20  22
ATOM     22  C   UNL     1      -4.100  -1.316  24.429  0.00  0.00    +0.014 C 
ATOM     26  C   UNL     1      -4.777  -2.583  23.897  0.00  0.00    +0.009 C 
ATOM     27  C   UNL     1      -3.963  -1.395  25.952  0.00  0.00    +0.009 C 
ENDBRANCH  20  22
BRANCH  20  25
ATOM      6  O   UNL     1      -1.733  -3.214  24.060  0.00  0.00    -0.249 OA
ATOM     25  C   UNL     1      -1.670  -1.997  24.202  0.00  0.00    +0.328 C 
BRANCH  25   5
ATOM      5  O   UNL     1      -0.645  -1.331  24.806  0.00  0.00    -0.467 OA
ATOM     30  C   UNL     1      -0.762  -1.162  26.222  0.00  0.00    +0.280 C 
ENDBRANCH  25   5
ENDBRANCH  20  25
ENDBRANCH  11  20
ENDBRANCH  14  18
BRANCH  19  21
ATOM     21  C   UNL     1      -4.570   4.571  24.934  0.00  0.00    +0.107 C 
BRANCH  21  24
ATOM     24  C   UNL     1      -5.997   4.388  25.409  0.00  0.00    +0.129 C 
BRANCH  24  28
ATOM      8  O   UNL     1      -6.584   2.137  24.754  0.00  0.00    -0.251 OA
ATOM     28  C   UNL     1      -6.311   2.932  25.645  0.00  0.00    +0.305 C 
BRANCH  28   7
ATOM      7  O   UNL     1      -6.283   2.598  26.959  0.00  0.00    -0.481 OA
ATOM     39  H   UNL     1      -5.956   1.684  27.098  0.00  0.00    +0.295 HD
ENDBRANCH  28   7
ENDBRANCH  24  28
ENDBRANCH  21  24
ENDBRANCH  19  21
TORSDOF 11
ENDMDL
MODEL 2
REMARK VINA RESULT:       5.0      1.637      4.839
REMARK  Name = 7114682
REMARK  14 active torsions:
REMARK  status: ('A' for Active; 'I' for Inactive)
REMARK    1  A    between atoms: O_5  and  C_25
REMARK    2  A    between atoms: O_5  and  C_30
REMARK    3  A    between atoms: O_7  and  C_28
REMARK    4  A    between atoms: N_10  and  C_13
REMARK    5  A    between atoms: N_11  and  C_20
REMARK    6  A    between atoms: N_12  and  C_29
REMARK    7  A    between atoms: C_14  and  C_18
REMARK    8  A    between atoms: C_19  and  C_21
REMARK    9  A    between atoms: C_20  and  C_22
REMARK   10  A    between atoms: C_20  and  C_25
REMARK   11  A    between atoms: C_21  and  C_24
REMARK   12  A    between atoms: C_22  and  C_26
REMARK   13  A    between atoms: C_22  and  C_27
REMARK   14  A    between atoms: C_24  and  C_28
REMARK                            x       y       z     vdW  Elec       q    Type
REMARK                         _______ _______ _______ _____ _____    ______ ____
ROOT
ATOM      3  O   UNL     1      -4.698  -1.605  22.974  0.00  0.00    -0.276 OA
ATOM      9  N   UNL     1      -3.113  -0.170  23.896  0.00  0.00    -0.290 N 
ATOM     13  C   UNL     1      -0.740   1.488  23.513  0.00  0.00    +0.078 C 
ATOM     14  C   UNL     1      -2.464   0.423  25.075  0.00  0.00    +0.164 C 
ATOM     15  C   UNL     1      -0.991   0.770  24.843  0.00  0.00    +0.054 C 
ATOM     16  C   UNL     1      -1.371   0.706  22.363  0.00  0.00    +0.041 C 
ATOM     17  C   UNL     1      -2.857   0.484  22.607  0.00  0.00    +0.110 C 
ATOM     19  C   UNL     1      -4.058  -1.202  23.948  0.00  0.00    +0.217 C 
ENDROOT
BRANCH  13  10
ATOM      4  O   UNL     1       1.337  -0.417  24.020  0.00  0.00    -0.253 OA
ATOM     10  N   UNL     1       0.672   1.673  23.289  0.00  0.00    -0.296 N 
ATOM     12  N   UNL     1       2.908   1.147  23.248  0.00  0.00    -0.269 N 
ATOM     23  C   UNL     1       1.627   0.687  23.564  0.00  0.00    +0.304 C 
ATOM     36  H   UNL     1       0.983   2.531  22.842  0.00  0.00    +0.151 HD
ATOM     38  H   UNL     1       2.975   2.093  22.879  0.00  0.00    +0.156 HD
BRANCH  12  29
ATOM      1  F   UNL     1       5.360  -2.934  23.857  0.00  0.00    -0.205 F 
ATOM     29  C   UNL     1       4.136   0.458  23.380  0.00  0.00    +0.037 A 
ATOM     31  C   UNL     1       4.142  -0.925  23.558  0.00  0.00    +0.061 A 
ATOM     32  C   UNL     1       5.339   1.161  23.332  0.00  0.00    +0.023 A 
ATOM     33  C   UNL     1       5.353  -1.606  23.686  0.00  0.00    +0.125 A 
ATOM     34  C   UNL     1       6.550   0.481  23.461  0.00  0.00    +0.005 A 
ATOM     35  C   UNL     1       6.557  -0.902  23.639  0.00  0.00    +0.038 A 
ENDBRANCH  12  29
ENDBRANCH  13  10
BRANCH  14  18
ATOM      2  O   UNL     1      -4.442   1.530  25.827  0.00  0.00    -0.274 OA
ATOM     11  N   UNL     1      -2.558   2.804  25.329  0.00  0.00    -0.301 N 
ATOM     18  C   UNL     1      -3.274   1.627  25.461  0.00  0.00    +0.234 C 
ATOM     37  H   UNL     1      -1.561   2.751  25.145  0.00  0.00    +0.150 HD
BRANCH  11  20
ATOM     20  C   UNL     1      -3.118   4.105  25.614  0.00  0.00    +0.184 C 
BRANCH  20  22
ATOM     22  C   UNL     1      -4.384   4.399  24.780  0.00  0.00    +0.014 C 
ATOM     26  C   UNL     1      -4.338   3.677  23.429  0.00  0.00    +0.009 C 
ATOM     27  C   UNL     1      -5.685   4.057  25.512  0.00  0.00    +0.009 C 
ENDBRANCH  20  22
BRANCH  20  25
ATOM      6  O   UNL     1      -2.376   6.400  25.434  0.00  0.00    -0.249 OA
ATOM     25  C   UNL     1      -2.080   5.210  25.454  0.00  0.00    +0.328 C 
BRANCH  25   5
ATOM      5  O   UNL     1      -0.814   4.716  25.339  0.00  0.00    -0.467 OA
ATOM     30  C   UNL     1      -0.170   4.943  24.081  0.00  0.00    +0.280 C 
ENDBRANCH  25   5
ENDBRANCH  20  25
ENDBRANCH  11  20
ENDBRANCH  14  18
BRANCH  19  21
ATOM     21  C   UNL     1      -4.279  -1.853  25.291  0.00  0.00    +0.107 C 
BRANCH  21  24
ATOM     24  C   UNL     1      -3.453  -3.120  25.389  0.00  0.00    +0.129 C 
BRANCH  24  28
ATOM      8  O   UNL     1      -1.122  -2.482  25.361  0.00  0.00    -0.251 OA
ATOM     28  C   UNL     1      -2.092  -2.934  24.766  0.00  0.00    +0.305 C 
BRANCH  28   7
ATOM      7  O   UNL     1      -2.061  -3.301  23.460  0.00  0.00    -0.481 OA
ATOM     39  H   UNL     1      -2.613  -2.714  22.902  0.00  0.00    +0.295 HD
ENDBRANCH  28   7
ENDBRANCH  24  28
ENDBRANCH  21  24
ENDBRANCH  19  21
TORSDOF 11
ENDMDL
MODEL 3
REMARK VINA RESULT:       5.1      1.391      4.800
REMARK  Name = 7114682
REMARK  14 active torsions:
REMARK  status: ('A' for Active; 'I' for Inactive)
REMARK    1  A    between atoms: O_5  and  C_25
REMARK    2  A    between atoms: O_5  and  C_30
REMARK    3  A    between atoms: O_7  and  C_28
REMARK    4  A    between atoms: N_10  and  C_13
REMARK    5  A    between atoms: N_11  and  C_20
REMARK    6  A    between atoms: N_12  and  C_29
REMARK    7  A    between atoms: C_14  and  C_18
REMARK    8  A    between atoms: C_19  and  C_21
REMARK    9  A    between atoms: C_20  and  C_22
REMARK   10  A    between atoms: C_20  and  C_25
REMARK   11  A    between atoms: C_21  and  C_24
REMARK   12  A    between atoms: C_22  and  C_26
REMARK   13  A    between atoms: C_22  and  C_27
REMARK   14  A    between atoms: C_24  and  C_28
REMARK                            x       y       z     vdW  Elec       q    Type
REMARK                         _______ _______ _______ _____ _____    ______ ____
ROOT
ATOM      3  O   UNL     1      -4.511  -0.653  23.308  0.00  0.00    -0.276 OA
ATOM      9  N   UNL     1      -2.749   0.585  24.196  0.00  0.00    -0.290 N 
ATOM     13  C   UNL     1      -0.163   1.877  23.784  0.00  0.00    +0.078 C 
ATOM     14  C   UNL     1      -2.036   1.131  25.361  0.00  0.00    +0.164 C 
ATOM     15  C   UNL     1      -0.527   1.259  25.138  0.00  0.00    +0.054 C 
ATOM     16  C   UNL     1      -0.886   1.142  22.657  0.00  0.00    +0.041 C 
ATOM     17  C   UNL     1      -2.391   1.141  22.886  0.00  0.00    +0.110 C 
ATOM     19  C   UNL     1      -3.830  -0.302  24.276  0.00  0.00    +0.217 C 
ENDROOT
BRANCH  13  10
ATOM      4  O   UNL     1       1.551  -0.413  23.938  0.00  0.00    -0.253 OA
ATOM     10  N   UNL     1       1.263   1.852  23.576  0.00  0.00    -0.296 N 
ATOM     12  N   UNL     1       3.377   0.967  23.418  0.00  0.00    -0.269 N 
ATOM     23  C   UNL     1       2.031   0.686  23.670  0.00  0.00    +0.304 C 
ATOM     36  H   UNL     1       1.723   2.708  23.275  0.00  0.00    +0.151 HD
ATOM     38  H   UNL     1       3.610   1.935  23.212  0.00  0.00    +0.156 HD
BRANCH  12  29
ATOM      1  F   UNL     1       8.068   0.091  22.906  0.00  0.00    -0.205 F 
ATOM     29  C   UNL     1       4.467   0.066  23.418  0.00  0.00    +0.037 A 
ATOM     31  C   UNL     1       5.755   0.531  23.156  0.00  0.00    +0.061 A 
ATOM     32  C   UNL     1       4.254  -1.287  23.678  0.00  0.00    +0.023 A 
ATOM     33  C   UNL     1       6.831  -0.357  23.157  0.00  0.00    +0.125 A 
ATOM     34  C   UNL     1       5.329  -2.175  23.679  0.00  0.00    +0.005 A 
ATOM     35  C   UNL     1       6.618  -1.711  23.418  0.00  0.00    +0.038 A 
ENDBRANCH  12  29
ENDBRANCH  13  10
BRANCH  14  18
ATOM      2  O   UNL     1      -2.506   3.004  26.768  0.00  0.00    -0.274 OA
ATOM     11  N   UNL     1      -3.455   2.923  24.643  0.00  0.00    -0.301 N 
ATOM     18  C   UNL     1      -2.673   2.452  25.683  0.00  0.00    +0.234 C 
ATOM     37  H   UNL     1      -3.414   2.449  23.747  0.00  0.00    +0.150 HD
BRANCH  11  20
ATOM     20  C   UNL     1      -4.195   4.163  24.711  0.00  0.00    +0.184 C 
BRANCH  20  22
ATOM     22  C   UNL     1      -3.353   5.323  25.286  0.00  0.00    +0.014 C 
ATOM     26  C   UNL     1      -3.407   5.341  26.817  0.00  0.00    +0.009 C 
ATOM     27  C   UNL     1      -1.896   5.305  24.814  0.00  0.00    +0.009 C 
ENDBRANCH  20  22
BRANCH  20  25
ATOM      6  O   UNL     1      -6.281   4.923  25.672  0.00  0.00    -0.249 OA
ATOM     25  C   UNL     1      -5.503   3.995  25.477  0.00  0.00    +0.328 C 
BRANCH  25   5
ATOM      5  O   UNL     1      -5.688   2.714  25.906  0.00  0.00    -0.467 OA
ATOM     30  C   UNL     1      -6.505   1.890  25.068  0.00  0.00    +0.280 C 
ENDBRANCH  25   5
ENDBRANCH  20  25
ENDBRANCH  11  20
ENDBRANCH  14  18
BRANCH  19  21
ATOM     21  C   UNL     1      -4.154  -0.857  25.640  0.00  0.00    +0.107 C 
BRANCH  21  24
ATOM     24  C   UNL     1      -3.227  -2.013  25.957  0.00  0.00    +0.129 C 
BRANCH  24  28
ATOM      8  O   UNL     1      -1.652  -2.681  24.251  0.00  0.00    -0.251 OA
ATOM     28  C   UNL     1      -2.790  -2.723  24.700  0.00  0.00    +0.305 C 
BRANCH  28   7
ATOM      7  O   UNL     1      -3.803  -3.399  24.103  0.00  0.00    -0.481 OA
ATOM     39  H   UNL     1      -3.706  -3.417  23.127  0.00  0.00    +0.295 HD
ENDBRANCH  28   7
ENDBRANCH  24  28
ENDBRANCH  21  24
ENDBRANCH  19  21
TORSDOF 11
ENDMDL
MODEL 4
REMARK VINA RESULT:       5.2      1.559      4.560
REMARK  Name = 7114682
REMARK  14 active torsions:
REMARK  status: ('A' for Active; 'I' for Inactive)
REMARK    1  A    between atoms: O_5  and  C_25
REMARK    2  A    between atoms: O_5  and  C_30
REMARK    3  A    between atoms: O_7  and  C_28
REMARK    4  A    between atoms: N_10  and  C_13
REMARK    5  A    between atoms: N_11  and  C_20
REMARK    6  A    between atoms: N_12  and  C_29
REMARK    7  A    between atoms: C_14  and  C_18
REMARK    8  A    between atoms: C_19  and  C_21
REMARK    9  A    between atoms: C_20  and  C_22
REMARK   10  A    between atoms: C_20  and  C_25
REMARK   11  A    between atoms: C_21  and  C_24
REMARK   12  A    between atoms: C_22  and  C_26
REMARK   13  A    between atoms: C_22  and  C_27
REMARK   14  A    between atoms: C_24  and  C_28
REMARK                            x       y       z     vdW  Elec       q    Type
REMARK                         _______ _______ _______ _____ _____    ______ ____
ROOT
ATOM      3  O   UNL     1      -4.332  -0.925  23.054  0.00  0.00    -0.276 OA
ATOM      9  N   UNL     1      -2.644   0.299  24.091  0.00  0.00    -0.290 N 
ATOM     13  C   UNL     1      -0.117   1.743  23.855  0.00  0.00    +0.078 C 
ATOM     14  C   UNL     1      -1.974   0.761  25.316  0.00  0.00    +0.164 C 
ATOM     15  C   UNL     1      -0.470   0.980  25.136  0.00  0.00    +0.054 C 
ATOM     16  C   UNL     1      -0.788   1.090  22.649  0.00  0.00    +0.041 C 
ATOM     17  C   UNL     1      -2.294   0.997  22.848  0.00  0.00    +0.110 C 
ATOM     19  C   UNL     1      -3.682  -0.640  24.064  0.00  0.00    +0.217 C 
ENDROOT
BRANCH  13  10
ATOM      4  O   UNL     1       1.709  -0.463  23.880  0.00  0.00    -0.253 OA
ATOM     10  N   UNL     1       1.312   1.805  23.672  0.00  0.00    -0.296 N 
ATOM     12  N   UNL     1       3.470   1.041  23.493  0.00  0.00    -0.269 N 
ATOM     23  C   UNL     1       2.137   0.675  23.699  0.00  0.00    +0.304 C 
ATOM     36  H   UNL     1       1.731   2.702  23.441  0.00  0.00    +0.151 HD
ATOM     38  H   UNL     1       3.656   2.031  23.359  0.00  0.00    +0.156 HD
BRANCH  12  29
ATOM      1  F   UNL     1       8.211   0.442  23.039  0.00  0.00    -0.205 F 
ATOM     29  C   UNL     1       4.605   0.197  23.449  0.00  0.00    +0.037 A 
ATOM     31  C   UNL     1       5.873   0.746  23.261  0.00  0.00    +0.061 A 
ATOM     32  C   UNL     1       4.456  -1.182  23.594  0.00  0.00    +0.023 A 
ATOM     33  C   UNL     1       6.993  -0.085  23.219  0.00  0.00    +0.125 A 
ATOM     34  C   UNL     1       5.575  -2.012  23.552  0.00  0.00    +0.005 A 
ATOM     35  C   UNL     1       6.844  -1.465  23.365  0.00  0.00    +0.038 A 
ENDBRANCH  12  29
ENDBRANCH  13  10
BRANCH  14  18
ATOM      2  O   UNL     1      -2.069   2.961  26.243  0.00  0.00    -0.274 OA
ATOM     11  N   UNL     1      -4.046   1.940  25.558  0.00  0.00    -0.301 N 
ATOM     18  C   UNL     1      -2.678   2.013  25.754  0.00  0.00    +0.234 C 
ATOM     37  H   UNL     1      -4.422   1.162  25.026  0.00  0.00    +0.150 HD
BRANCH  11  20
ATOM     20  C   UNL     1      -4.953   3.006  25.919  0.00  0.00    +0.184 C 
BRANCH  20  22
ATOM     22  C   UNL     1      -6.422   2.533  25.986  0.00  0.00    +0.014 C 
ATOM     26  C   UNL     1      -6.841   1.836  24.688  0.00  0.00    +0.009 C 
ATOM     27  C   UNL     1      -6.711   1.624  27.184  0.00  0.00    +0.009 C 
ENDBRANCH  20  22
BRANCH  20  25
ATOM      6  O   UNL     1      -5.539   5.187  25.053  0.00  0.00    -0.249 OA
ATOM     25  C   UNL     1      -4.801   4.209  24.995  0.00  0.00    +0.328 C 
BRANCH  25   5
ATOM      5  O   UNL     1      -3.765   4.060  24.121  0.00  0.00    -0.467 OA
ATOM     30  C   UNL     1      -4.126   3.685  22.788  0.00  0.00    +0.280 C 
ENDBRANCH  25   5
ENDBRANCH  20  25
ENDBRANCH  11  20
ENDBRANCH  14  18
BRANCH  19  21
ATOM     21  C   UNL     1      -3.999  -1.341  25.361  0.00  0.00    +0.107 C 
BRANCH  21  24
ATOM     24  C   UNL     1      -3.432  -2.746  25.337  0.00  0.00    +0.129 C 
BRANCH  24  28
ATOM      8  O   UNL     1      -1.866  -3.167  23.546  0.00  0.00    -0.251 OA
ATOM     28  C   UNL     1      -2.071  -2.774  24.687  0.00  0.00    +0.305 C 
BRANCH  28   7
ATOM      7  O   UNL     1      -1.088  -2.337  25.513  0.00  0.00    -0.481 OA
ATOM     39  H   UNL     1      -0.277  -2.883  25.440  0.00  0.00    +0.295 HD
ENDBRANCH  28   7
ENDBRANCH  24  28
ENDBRANCH  21  24
ENDBRANCH  19  21
TORSDOF 11
ENDMDL
MODEL 5
REMARK VINA RESULT:       6.0      1.749      4.643
REMARK  Name = 7114682
REMARK  14 active torsions:
REMARK  status: ('A' for Active; 'I' for Inactive)
REMARK    1  A    between atoms: O_5  and  C_25
REMARK    2  A    between atoms: O_5  and  C_30
REMARK    3  A    between atoms: O_7  and  C_28
REMARK    4  A    between atoms: N_10  and  C_13
REMARK    5  A    between atoms: N_11  and  C_20
REMARK    6  A    between atoms: N_12  and  C_29
REMARK    7  A    between atoms: C_14  and  C_18
REMARK    8  A    between atoms: C_19  and  C_21
REMARK    9  A    between atoms: C_20  and  C_22
REMARK   10  A    between atoms: C_20  and  C_25
REMARK   11  A    between atoms: C_21  and  C_24
REMARK   12  A    between atoms: C_22  and  C_26
REMARK   13  A    between atoms: C_22  and  C_27
REMARK   14  A    between atoms: C_24  and  C_28
REMARK                            x       y       z     vdW  Elec       q    Type
REMARK                         _______ _______ _______ _____ _____    ______ ____
ROOT
ATOM      3  O   UNL     1      -1.942  -2.761  23.851  0.00  0.00    -0.276 OA
ATOM      9  N   UNL     1      -0.838  -0.726  24.102  0.00  0.00    -0.290 N 
ATOM     13  C   UNL     1       1.432   0.972  23.403  0.00  0.00    +0.078 C 
ATOM     14  C   UNL     1      -0.655   0.544  24.820  0.00  0.00    +0.164 C 
ATOM     15  C   UNL     1       0.789   1.051  24.791  0.00  0.00    +0.054 C 
ATOM     16  C   UNL     1       1.267  -0.431  22.823  0.00  0.00    +0.041 C 
ATOM     17  C   UNL     1      -0.201  -0.833  22.783  0.00  0.00    +0.110 C 
ATOM     19  C   UNL     1      -1.688  -1.757  24.521  0.00  0.00    +0.217 C 
ENDROOT
BRANCH  13  10
ATOM      4  O   UNL     1       3.676  -0.768  23.025  0.00  0.00    -0.253 OA
ATOM     10  N   UNL     1       2.826   1.337  23.462  0.00  0.00    -0.296 N 
ATOM     12  N   UNL     1       5.104   1.061  23.381  0.00  0.00    -0.269 N 
ATOM     23  C   UNL     1       3.867   0.422  23.265  0.00  0.00    +0.304 C 
ATOM     36  H   UNL     1       3.064   2.318  23.580  0.00  0.00    +0.151 HD
ATOM     38  H   UNL     1       5.087   2.057  23.585  0.00  0.00    +0.156 HD
BRANCH  12  29
ATOM      1  F   UNL     1       9.822   1.154  24.263  0.00  0.00    -0.205 F 
ATOM     29  C   UNL     1       6.392   0.489  23.251  0.00  0.00    +0.037 A 
ATOM     31  C   UNL     1       7.494   1.116  23.831  0.00  0.00    +0.061 A 
ATOM     32  C   UNL     1       6.559  -0.701  22.544  0.00  0.00    +0.023 A 
ATOM     33  C   UNL     1       8.763   0.552  23.706  0.00  0.00    +0.125 A 
ATOM     34  C   UNL     1       7.828  -1.265  22.418  0.00  0.00    +0.005 A 
ATOM     35  C   UNL     1       8.931  -0.639  22.998  0.00  0.00    +0.038 A 
ENDBRANCH  12  29
ENDBRANCH  13  10
BRANCH  14  18
ATOM      2  O   UNL     1      -1.718   1.665  22.999  0.00  0.00    -0.274 OA
ATOM     11  N   UNL     1      -2.303   2.246  25.176  0.00  0.00    -0.301 N 
ATOM     18  C   UNL     1      -1.611   1.530  24.215  0.00  0.00    +0.234 C 
ATOM     37  H   UNL     1      -2.230   1.959  26.146  0.00  0.00    +0.150 HD
BRANCH  11  20
ATOM     20  C   UNL     1      -3.267   3.274  24.854  0.00  0.00    +0.184 C 
BRANCH  20  22
ATOM     22  C   UNL     1      -2.861   4.658  25.407  0.00  0.00    +0.014 C 
ATOM     26  C   UNL     1      -2.879   4.670  26.939  0.00  0.00    +0.009 C 
ATOM     27  C   UNL     1      -1.500   5.140  24.895  0.00  0.00    +0.009 C 
ENDBRANCH  20  22
BRANCH  20  25
ATOM      6  O   UNL     1      -5.115   3.174  26.411  0.00  0.00    -0.249 OA
ATOM     25  C   UNL     1      -4.671   2.887  25.304  0.00  0.00    +0.328 C 
BRANCH  25   5
ATOM      5  O   UNL     1      -5.350   2.199  24.342  0.00  0.00    -0.467 OA
ATOM     30  C   UNL     1      -6.601   1.634  24.747  0.00  0.00    +0.280 C 
ENDBRANCH  25   5
ENDBRANCH  20  25
ENDBRANCH  11  20
ENDBRANCH  14  18
BRANCH  19  21
ATOM     21  C   UNL     1      -2.310  -1.610  25.887  0.00  0.00    +0.107 C 
BRANCH  21  24
ATOM     24  C   UNL     1      -3.722  -1.075  25.754  0.00  0.00    +0.129 C 
BRANCH  24  28
ATOM      8  O   UNL     1      -4.768  -2.231  23.908  0.00  0.00    -0.251 OA
ATOM     28  C   UNL     1      -4.230  -1.220  24.341  0.00  0.00    +0.305 C 
BRANCH  28   7
ATOM      7  O   UNL     1      -4.006  -0.114  23.590  0.00  0.00    -0.481 OA
ATOM     39  H   UNL     1      -3.056   0.127  23.566  0.00  0.00    +0.295 HD
ENDBRANCH  28   7
ENDBRANCH  24  28
ENDBRANCH  21  24
ENDBRANCH  19  21
TORSDOF 11
ENDMDL
