MODEL 1
REMARK VINA RESULT:      -5.3      0.000      0.000
REMARK  Name = 11886192
REMARK  6 active torsions:
REMARK  status: ('A' for Active; 'I' for Inactive)
REMARK    1  A    between atoms: O_3  and  C_17
REMARK    2  A    between atoms: O_3  and  C_20
REMARK    3  A    between atoms: N_5  and  C_13
REMARK    4  A    between atoms: N_6  and  C_14
REMARK    5  A    between atoms: N_9  and  C_19
REMARK    6  A    between atoms: C_19  and  C_21
REMARK                            x       y       z     vdW  Elec       q    Type
REMARK                         _______ _______ _______ _____ _____    ______ ____
ROOT
ATOM      1  O   UNL     1      -2.099   3.466  26.854  0.00  0.00    -0.370 OA
ATOM      2  O   UNL     1      -2.358   4.923  24.079  0.00  0.00    -0.370 OA
ATOM     11  C   UNL     1      -2.874   3.690  24.610  0.00  0.00    +0.176 C 
ATOM     12  C   UNL     1      -1.797   3.099  25.498  0.00  0.00    +0.171 C 
ATOM     13  C   UNL     1      -4.032   3.976  25.548  0.00  0.00    +0.171 C 
ATOM     14  C   UNL     1      -0.524   3.776  25.044  0.00  0.00    +0.131 C 
ATOM     15  C   UNL     1      -3.342   4.180  26.892  0.00  0.00    +0.190 C 
ATOM     16  C   UNL     1      -1.028   5.129  24.575  0.00  0.00    +0.185 C 
ENDROOT
BRANCH  14   6
ATOM      4  O   UNL     1       0.374   1.034  25.089  0.00  0.00    -0.253 OA
ATOM      6  N   UNL     1       0.099   3.048  23.966  0.00  0.00    -0.292 N 
ATOM      9  N   UNL     1       1.075   1.264  22.889  0.00  0.00    -0.295 N 
ATOM     18  C   UNL     1       0.505   1.719  24.075  0.00  0.00    +0.300 C 
ATOM     32  H   UNL     1       0.191   3.505  23.063  0.00  0.00    +0.151 HD
ATOM     33  H   UNL     1       1.120   1.895  22.094  0.00  0.00    +0.151 HD
BRANCH   9  19
ATOM     19  C   UNL     1       1.580  -0.079  22.728  0.00  0.00    +0.141 C 
BRANCH  19  21
ATOM     21  C   UNL     1       3.030  -0.183  23.102  0.00  0.00    -0.030 A 
ATOM     24  C   UNL     1       3.865   0.915  22.930  0.00  0.00    +0.005 A 
ATOM     25  C   UNL     1       3.525  -1.377  23.616  0.00  0.00    +0.005 A 
ATOM     28  C   UNL     1       5.213   0.819  23.277  0.00  0.00    +0.000 A 
ATOM     29  C   UNL     1       4.872  -1.473  23.963  0.00  0.00    +0.000 A 
ATOM     31  C   UNL     1       5.716  -0.375  23.793  0.00  0.00    +0.000 A 
ENDBRANCH  19  21
ENDBRANCH   9  19
ENDBRANCH  14   6
BRANCH  13   5
ATOM      5  N   UNL     1      -5.047   2.919  25.526  0.00  0.00    -0.187 N 
ATOM      7  N   UNL     1      -6.231   3.093  26.119  0.00  0.00    -0.041 NA
ATOM      8  N   UNL     1      -6.117   1.074  25.180  0.00  0.00    -0.071 NA
ATOM     10  N   UNL     1      -6.885   1.959  25.904  0.00  0.00    -0.020 NA
ATOM     17  C   UNL     1      -4.982   1.693  24.956  0.00  0.00    +0.342 A 
BRANCH  17   3
ATOM      3  O   UNL     1      -3.942   1.218  24.295  0.00  0.00    -0.423 OA
BRANCH   3  20
ATOM     20  C   UNL     1      -3.529  -0.102  24.399  0.00  0.00    +0.132 A 
ATOM     22  C   UNL     1      -4.322  -1.097  23.859  0.00  0.00    +0.046 A 
ATOM     23  C   UNL     1      -2.339  -0.384  25.041  0.00  0.00    +0.046 A 
ATOM     26  C   UNL     1      -3.908  -2.425  23.965  0.00  0.00    +0.004 A 
ATOM     27  C   UNL     1      -1.925  -1.712  25.147  0.00  0.00    +0.004 A 
ATOM     30  C   UNL     1      -2.708  -2.732  24.609  0.00  0.00    +0.000 A 
ENDBRANCH   3  20
ENDBRANCH  17   3
ENDBRANCH  13   5
TORSDOF 6
ENDMDL
MODEL 2
REMARK VINA RESULT:      -3.0      1.520      4.057
REMARK  Name = 11886192
REMARK  6 active torsions:
REMARK  status: ('A' for Active; 'I' for Inactive)
REMARK    1  A    between atoms: O_3  and  C_17
REMARK    2  A    between atoms: O_3  and  C_20
REMARK    3  A    between atoms: N_5  and  C_13
REMARK    4  A    between atoms: N_6  and  C_14
REMARK    5  A    between atoms: N_9  and  C_19
REMARK    6  A    between atoms: C_19  and  C_21
REMARK                            x       y       z     vdW  Elec       q    Type
REMARK                         _______ _______ _______ _____ _____    ______ ____
ROOT
ATOM      1  O   UNL     1      -3.620  -0.562  23.279  0.00  0.00    -0.370 OA
ATOM      2  O   UNL     1      -2.179  -0.967  26.045  0.00  0.00    -0.370 OA
ATOM     11  C   UNL     1      -2.869   0.136  25.432  0.00  0.00    +0.176 C 
ATOM     12  C   UNL     1      -2.539   0.104  23.952  0.00  0.00    +0.171 C 
ATOM     13  C   UNL     1      -4.368  -0.091  25.497  0.00  0.00    +0.171 C 
ATOM     14  C   UNL     1      -1.279  -0.726  23.868  0.00  0.00    +0.131 C 
ATOM     15  C   UNL     1      -4.651  -0.880  24.224  0.00  0.00    +0.190 C 
ATOM     16  C   UNL     1      -1.438  -1.675  25.042  0.00  0.00    +0.185 C 
ENDROOT
BRANCH  14   6
ATOM      4  O   UNL     1       0.980  -0.589  22.077  0.00  0.00    -0.253 OA
ATOM      6  N   UNL     1      -0.102   0.095  24.014  0.00  0.00    -0.292 N 
ATOM      9  N   UNL     1       1.955   0.980  23.481  0.00  0.00    -0.295 N 
ATOM     18  C   UNL     1       0.948   0.097  23.097  0.00  0.00    +0.300 C 
ATOM     32  H   UNL     1      -0.062   0.749  24.790  0.00  0.00    +0.151 HD
ATOM     33  H   UNL     1       1.830   1.524  24.330  0.00  0.00    +0.151 HD
BRANCH   9  19
ATOM     19  C   UNL     1       3.158   1.178  22.709  0.00  0.00    +0.141 C 
BRANCH  19  21
ATOM     21  C   UNL     1       4.295   0.339  23.214  0.00  0.00    -0.030 A 
ATOM     24  C   UNL     1       4.086  -1.007  23.492  0.00  0.00    +0.005 A 
ATOM     25  C   UNL     1       5.547   0.916  23.400  0.00  0.00    +0.005 A 
ATOM     28  C   UNL     1       5.144  -1.787  23.962  0.00  0.00    +0.000 A 
ATOM     29  C   UNL     1       6.603   0.137  23.870  0.00  0.00    +0.000 A 
ATOM     31  C   UNL     1       6.401  -1.215  24.150  0.00  0.00    +0.000 A 
ENDBRANCH  19  21
ENDBRANCH   9  19
ENDBRANCH  14   6
BRANCH  13   5
ATOM      5  N   UNL     1      -5.120   1.159  25.633  0.00  0.00    -0.187 N 
ATOM      7  N   UNL     1      -6.155   1.249  26.473  0.00  0.00    -0.041 NA
ATOM      8  N   UNL     1      -5.832   3.188  25.421  0.00  0.00    -0.071 NA
ATOM     10  N   UNL     1      -6.588   2.497  26.340  0.00  0.00    -0.020 NA
ATOM     17  C   UNL     1      -4.926   2.338  24.996  0.00  0.00    +0.342 A 
BRANCH  17   3
ATOM      3  O   UNL     1      -3.984   2.571  24.102  0.00  0.00    -0.423 OA
BRANCH   3  20
ATOM     20  C   UNL     1      -2.870   3.352  24.376  0.00  0.00    +0.132 A 
ATOM     22  C   UNL     1      -1.637   2.952  23.898  0.00  0.00    +0.046 A 
ATOM     23  C   UNL     1      -3.026   4.505  25.120  0.00  0.00    +0.046 A 
ATOM     26  C   UNL     1      -0.516   3.736  24.174  0.00  0.00    +0.004 A 
ATOM     27  C   UNL     1      -1.906   5.289  25.396  0.00  0.00    +0.004 A 
ATOM     30  C   UNL     1      -0.651   4.906  24.923  0.00  0.00    +0.000 A 
ENDBRANCH   3  20
ENDBRANCH  17   3
ENDBRANCH  13   5
TORSDOF 6
ENDMDL
