MODEL 1
REMARK VINA RESULT:      -1.5      0.000      0.000
REMARK  Name = 75368554
REMARK  8 active torsions:
REMARK  status: ('A' for Active; 'I' for Inactive)
REMARK    1  A    between atoms: O_2  and  C_18
REMARK    2  A    between atoms: O_2  and  C_21
REMARK    3  A    between atoms: O_3  and  C_19
REMARK    4  A    between atoms: O_3  and  C_22
REMARK    5  A    between atoms: O_4  and  C_20
REMARK    6  A    between atoms: O_4  and  C_23
REMARK    7  A    between atoms: N_6  and  C_14
REMARK    8  A    between atoms: C_14  and  C_15
REMARK                            x       y       z     vdW  Elec       q    Type
REMARK                         _______ _______ _______ _____ _____    ______ ____
ROOT
ATOM     14  C   UNL     1      -0.789   3.449  24.418  0.00  0.00    +0.120 C 
ENDROOT
BRANCH  14   6
ATOM      1  O   UNL     1      -6.956   1.788  24.424  0.00  0.00    -0.253 OA
ATOM      5  N   UNL     1      -4.951   2.994  24.674  0.00  0.00    -0.279 N 
ATOM      6  N   UNL     1      -2.236   3.667  24.400  0.00  0.00    -0.295 NA
ATOM      7  N   UNL     1      -6.235   2.648  26.485  0.00  0.00    -0.297 N 
ATOM      8  C   UNL     1      -4.304   3.745  25.730  0.00  0.00    +0.109 C 
ATOM      9  C   UNL     1      -2.804   3.453  25.746  0.00  0.00    +0.109 C 
ATOM     10  C   UNL     1      -4.388   3.015  23.341  0.00  0.00    +0.125 C 
ATOM     11  C   UNL     1      -5.057   3.316  26.988  0.00  0.00    +0.129 C 
ATOM     12  C   UNL     1      -2.876   2.780  23.409  0.00  0.00    +0.104 C 
ATOM     13  C   UNL     1      -6.145   2.404  25.101  0.00  0.00    +0.303 C 
ATOM     24  H   UNL     1      -6.998   2.316  27.067  0.00  0.00    +0.150 HD
ENDBRANCH  14   6
BRANCH  14  15
ATOM     15  C   UNL     1      -0.442   1.986  24.382  0.00  0.00    -0.026 A 
ATOM     16  C   UNL     1      -1.176   1.075  25.142  0.00  0.00    +0.054 A 
ATOM     17  C   UNL     1       0.614   1.539  23.588  0.00  0.00    +0.054 A 
ATOM     18  C   UNL     1       0.936   0.181  23.554  0.00  0.00    +0.165 A 
ATOM     19  C   UNL     1      -0.854  -0.281  25.109  0.00  0.00    +0.165 A 
ATOM     20  C   UNL     1       0.201  -0.728  24.315  0.00  0.00    +0.204 A 
BRANCH  18   2
ATOM      2  O   UNL     1       1.968  -0.242  22.773  0.00  0.00    -0.491 OA
ATOM     21  C   UNL     1       3.121   0.595  22.712  0.00  0.00    +0.277 C 
ENDBRANCH  18   2
BRANCH  19   3
ATOM      3  O   UNL     1      -1.579  -1.159  25.858  0.00  0.00    -0.491 OA
ATOM     22  C   UNL     1      -2.998  -1.106  25.726  0.00  0.00    +0.277 C 
ENDBRANCH  19   3
BRANCH  20   4
ATOM      4  O   UNL     1       0.515  -2.055  24.281  0.00  0.00    -0.488 OA
ATOM     23  C   UNL     1       0.514  -2.750  25.525  0.00  0.00    +0.277 C 
ENDBRANCH  20   4
ENDBRANCH  14  15
TORSDOF 5
ENDMDL
MODEL 2
REMARK VINA RESULT:      -1.4      0.017      2.703
REMARK  Name = 75368554
REMARK  8 active torsions:
REMARK  status: ('A' for Active; 'I' for Inactive)
REMARK    1  A    between atoms: O_2  and  C_18
REMARK    2  A    between atoms: O_2  and  C_21
REMARK    3  A    between atoms: O_3  and  C_19
REMARK    4  A    between atoms: O_3  and  C_22
REMARK    5  A    between atoms: O_4  and  C_20
REMARK    6  A    between atoms: O_4  and  C_23
REMARK    7  A    between atoms: N_6  and  C_14
REMARK    8  A    between atoms: C_14  and  C_15
REMARK                            x       y       z     vdW  Elec       q    Type
REMARK                         _______ _______ _______ _____ _____    ______ ____
ROOT
ATOM     14  C   UNL     1      -0.798   3.452  24.428  0.00  0.00    +0.120 C 
ENDROOT
BRANCH  14   6
ATOM      1  O   UNL     1      -6.963   1.781  24.432  0.00  0.00    -0.253 OA
ATOM      5  N   UNL     1      -4.959   2.989  24.687  0.00  0.00    -0.279 N 
ATOM      6  N   UNL     1      -2.245   3.668  24.412  0.00  0.00    -0.295 NA
ATOM      7  N   UNL     1      -6.241   2.632  26.497  0.00  0.00    -0.297 N 
ATOM      8  C   UNL     1      -4.312   3.735  25.745  0.00  0.00    +0.109 C 
ATOM      9  C   UNL     1      -2.812   3.446  25.758  0.00  0.00    +0.109 C 
ATOM     10  C   UNL     1      -4.398   3.017  23.352  0.00  0.00    +0.125 C 
ATOM     11  C   UNL     1      -5.062   3.299  27.002  0.00  0.00    +0.129 C 
ATOM     12  C   UNL     1      -2.886   2.784  23.417  0.00  0.00    +0.104 C 
ATOM     13  C   UNL     1      -6.152   2.395  25.112  0.00  0.00    +0.303 C 
ATOM     24  H   UNL     1      -7.002   2.296  27.079  0.00  0.00    +0.150 HD
ENDBRANCH  14   6
BRANCH  14  15
ATOM     15  C   UNL     1      -0.449   1.989  24.386  0.00  0.00    -0.026 A 
ATOM     16  C   UNL     1       0.613   1.547  23.597  0.00  0.00    +0.054 A 
ATOM     17  C   UNL     1      -1.186   1.075  25.138  0.00  0.00    +0.054 A 
ATOM     18  C   UNL     1      -0.862  -0.282  25.099  0.00  0.00    +0.165 A 
ATOM     19  C   UNL     1       0.936   0.191  23.558  0.00  0.00    +0.165 A 
ATOM     20  C   UNL     1       0.199  -0.723  24.309  0.00  0.00    +0.204 A 
BRANCH  18   2
ATOM      2  O   UNL     1      -1.589  -1.165  25.839  0.00  0.00    -0.491 OA
ATOM     21  C   UNL     1      -3.008  -1.099  25.717  0.00  0.00    +0.277 C 
ENDBRANCH  18   2
BRANCH  19   3
ATOM      3  O   UNL     1       1.976  -0.227  22.781  0.00  0.00    -0.491 OA
ATOM     22  C   UNL     1       3.135   0.603  22.748  0.00  0.00    +0.277 C 
ENDBRANCH  19   3
BRANCH  20   4
ATOM      4  O   UNL     1       0.517  -2.049  24.273  0.00  0.00    -0.488 OA
ATOM     23  C   UNL     1       0.509  -2.750  25.514  0.00  0.00    +0.277 C 
ENDBRANCH  20   4
ENDBRANCH  14  15
TORSDOF 5
ENDMDL
MODEL 3
REMARK VINA RESULT:      -0.9      1.499      2.189
REMARK  Name = 75368554
REMARK  8 active torsions:
REMARK  status: ('A' for Active; 'I' for Inactive)
REMARK    1  A    between atoms: O_2  and  C_18
REMARK    2  A    between atoms: O_2  and  C_21
REMARK    3  A    between atoms: O_3  and  C_19
REMARK    4  A    between atoms: O_3  and  C_22
REMARK    5  A    between atoms: O_4  and  C_20
REMARK    6  A    between atoms: O_4  and  C_23
REMARK    7  A    between atoms: N_6  and  C_14
REMARK    8  A    between atoms: C_14  and  C_15
REMARK                            x       y       z     vdW  Elec       q    Type
REMARK                         _______ _______ _______ _____ _____    ______ ____
ROOT
ATOM     14  C   UNL     1      -0.125   3.342  24.162  0.00  0.00    +0.120 C 
ENDROOT
BRANCH  14   6
ATOM      1  O   UNL     1      -6.215   4.083  25.939  0.00  0.00    -0.253 OA
ATOM      5  N   UNL     1      -4.056   3.203  25.620  0.00  0.00    -0.279 N 
ATOM      6  N   UNL     1      -1.322   3.115  24.973  0.00  0.00    -0.295 NA
ATOM      7  N   UNL     1      -5.819   2.043  24.850  0.00  0.00    -0.297 N 
ATOM      8  C   UNL     1      -3.491   1.964  25.129  0.00  0.00    +0.109 C 
ATOM      9  C   UNL     1      -2.274   2.247  24.250  0.00  0.00    +0.109 C 
ATOM     10  C   UNL     1      -3.185   4.194  26.216  0.00  0.00    +0.125 C 
ATOM     11  C   UNL     1      -4.662   1.296  24.412  0.00  0.00    +0.129 C 
ATOM     12  C   UNL     1      -1.950   4.402  25.334  0.00  0.00    +0.104 C 
ATOM     13  C   UNL     1      -5.452   3.222  25.528  0.00  0.00    +0.303 C 
ATOM     24  H   UNL     1      -6.778   1.798  24.623  0.00  0.00    +0.150 HD
ENDBRANCH  14   6
BRANCH  14  15
ATOM     15  C   UNL     1       0.606   2.060  23.869  0.00  0.00    -0.026 A 
ATOM     16  C   UNL     1       0.012   0.834  24.170  0.00  0.00    +0.054 A 
ATOM     17  C   UNL     1       1.876   2.097  23.295  0.00  0.00    +0.054 A 
ATOM     18  C   UNL     1       2.554   0.908  23.023  0.00  0.00    +0.165 A 
ATOM     19  C   UNL     1       0.690  -0.354  23.899  0.00  0.00    +0.165 A 
ATOM     20  C   UNL     1       1.960  -0.317  23.325  0.00  0.00    +0.204 A 
BRANCH  18   2
ATOM      2  O   UNL     1       3.794   0.958  22.461  0.00  0.00    -0.491 OA
ATOM     21  C   UNL     1       4.910   0.845  23.341  0.00  0.00    +0.277 C 
ENDBRANCH  18   2
BRANCH  19   3
ATOM      3  O   UNL     1       0.098  -1.545  24.200  0.00  0.00    -0.491 OA
ATOM     22  C   UNL     1      -1.045  -1.504  25.051  0.00  0.00    +0.277 C 
ENDBRANCH  19   3
BRANCH  20   4
ATOM      4  O   UNL     1       2.621  -1.480  23.058  0.00  0.00    -0.488 OA
ATOM     23  C   UNL     1       3.763  -1.772  23.860  0.00  0.00    +0.277 C 
ENDBRANCH  20   4
ENDBRANCH  14  15
TORSDOF 5
ENDMDL
MODEL 4
REMARK VINA RESULT:      -0.8      2.537      6.672
REMARK  Name = 75368554
REMARK  8 active torsions:
REMARK  status: ('A' for Active; 'I' for Inactive)
REMARK    1  A    between atoms: O_2  and  C_18
REMARK    2  A    between atoms: O_2  and  C_21
REMARK    3  A    between atoms: O_3  and  C_19
REMARK    4  A    between atoms: O_3  and  C_22
REMARK    5  A    between atoms: O_4  and  C_20
REMARK    6  A    between atoms: O_4  and  C_23
REMARK    7  A    between atoms: N_6  and  C_14
REMARK    8  A    between atoms: C_14  and  C_15
REMARK                            x       y       z     vdW  Elec       q    Type
REMARK                         _______ _______ _______ _____ _____    ______ ____
ROOT
ATOM     14  C   UNL     1      -3.390  -0.353  24.160  0.00  0.00    +0.120 C 
ENDROOT
BRANCH  14   6
ATOM      1  O   UNL     1       2.817  -0.753  22.711  0.00  0.00    -0.253 OA
ATOM      5  N   UNL     1       0.790  -0.296  23.815  0.00  0.00    -0.279 N 
ATOM      6  N   UNL     1      -1.952  -0.396  24.426  0.00  0.00    -0.295 NA
ATOM      7  N   UNL     1       2.152   1.417  23.308  0.00  0.00    -0.297 N 
ATOM      8  C   UNL     1       0.163   0.861  24.420  0.00  0.00    +0.109 C 
ATOM      9  C   UNL     1      -1.326   0.896  24.079  0.00  0.00    +0.109 C 
ATOM     10  C   UNL     1       0.176  -1.598  23.968  0.00  0.00    +0.125 C 
ATOM     11  C   UNL     1       0.975   2.034  23.876  0.00  0.00    +0.129 C 
ATOM     12  C   UNL     1      -1.325  -1.504  23.678  0.00  0.00    +0.104 C 
ATOM     13  C   UNL     1       2.016   0.018  23.219  0.00  0.00    +0.303 C 
ATOM     24  H   UNL     1       2.946   1.931  22.938  0.00  0.00    +0.150 HD
ENDBRANCH  14   6
BRANCH  14  15
ATOM     15  C   UNL     1      -4.018   0.914  24.677  0.00  0.00    -0.026 A 
ATOM     16  C   UNL     1      -5.235   0.862  25.357  0.00  0.00    +0.054 A 
ATOM     17  C   UNL     1      -3.382   2.139  24.478  0.00  0.00    +0.054 A 
ATOM     18  C   UNL     1      -3.965   3.313  24.957  0.00  0.00    +0.165 A 
ATOM     19  C   UNL     1      -5.817   2.036  25.835  0.00  0.00    +0.165 A 
ATOM     20  C   UNL     1      -5.182   3.260  25.636  0.00  0.00    +0.204 A 
BRANCH  18   2
ATOM      2  O   UNL     1      -3.333   4.503  24.757  0.00  0.00    -0.491 OA
ATOM     21  C   UNL     1      -2.031   4.648  25.319  0.00  0.00    +0.277 C 
ENDBRANCH  18   2
BRANCH  19   3
ATOM      3  O   UNL     1      -7.007   1.970  26.496  0.00  0.00    -0.491 OA
ATOM     22  C   UNL     1      -7.044   1.192  27.690  0.00  0.00    +0.277 C 
ENDBRANCH  19   3
BRANCH  20   4
ATOM      4  O   UNL     1      -5.751   4.408  26.106  0.00  0.00    -0.488 OA
ATOM     23  C   UNL     1      -6.345   5.275  25.143  0.00  0.00    +0.277 C 
ENDBRANCH  20   4
ENDBRANCH  14  15
TORSDOF 5
ENDMDL
MODEL 5
REMARK VINA RESULT:      -0.8      2.540      7.151
REMARK  Name = 75368554
REMARK  8 active torsions:
REMARK  status: ('A' for Active; 'I' for Inactive)
REMARK    1  A    between atoms: O_2  and  C_18
REMARK    2  A    between atoms: O_2  and  C_21
REMARK    3  A    between atoms: O_3  and  C_19
REMARK    4  A    between atoms: O_3  and  C_22
REMARK    5  A    between atoms: O_4  and  C_20
REMARK    6  A    between atoms: O_4  and  C_23
REMARK    7  A    between atoms: N_6  and  C_14
REMARK    8  A    between atoms: C_14  and  C_15
REMARK                            x       y       z     vdW  Elec       q    Type
REMARK                         _______ _______ _______ _____ _____    ______ ____
ROOT
ATOM     14  C   UNL     1      -3.306  -0.261  24.099  0.00  0.00    +0.120 C 
ENDROOT
BRANCH  14   6
ATOM      1  O   UNL     1       2.912  -0.719  22.713  0.00  0.00    -0.253 OA
ATOM      5  N   UNL     1       0.877  -0.226  23.787  0.00  0.00    -0.279 N 
ATOM      6  N   UNL     1      -1.870  -0.301  24.377  0.00  0.00    -0.295 NA
ATOM      7  N   UNL     1       2.249   1.469  23.244  0.00  0.00    -0.297 N 
ATOM      8  C   UNL     1       0.249   0.949  24.354  0.00  0.00    +0.109 C 
ATOM      9  C   UNL     1      -1.238   0.979  24.000  0.00  0.00    +0.109 C 
ATOM     10  C   UNL     1       0.258  -1.521  23.971  0.00  0.00    +0.125 C 
ATOM     11  C   UNL     1       1.069   2.104  23.785  0.00  0.00    +0.129 C 
ATOM     12  C   UNL     1      -1.240  -1.432  23.665  0.00  0.00    +0.104 C 
ATOM     13  C   UNL     1       2.109   0.068  23.193  0.00  0.00    +0.303 C 
ATOM     24  H   UNL     1       3.047   1.970  22.866  0.00  0.00    +0.150 HD
ENDBRANCH  14   6
BRANCH  14  15
ATOM     15  C   UNL     1      -3.948   0.988  24.640  0.00  0.00    -0.026 A 
ATOM     16  C   UNL     1      -3.317   2.222  24.480  0.00  0.00    +0.054 A 
ATOM     17  C   UNL     1      -5.173   0.912  25.300  0.00  0.00    +0.054 A 
ATOM     18  C   UNL     1      -5.768   2.071  25.803  0.00  0.00    +0.165 A 
ATOM     19  C   UNL     1      -3.911   3.379  24.983  0.00  0.00    +0.165 A 
ATOM     20  C   UNL     1      -5.136   3.304  25.643  0.00  0.00    +0.204 A 
BRANCH  18   2
ATOM      2  O   UNL     1      -6.966   1.983  26.445  0.00  0.00    -0.491 OA
ATOM     21  C   UNL     1      -7.000   1.227  27.653  0.00  0.00    +0.277 C 
ENDBRANCH  18   2
BRANCH  19   3
ATOM      3  O   UNL     1      -3.282   4.578  24.820  0.00  0.00    -0.491 OA
ATOM     22  C   UNL     1      -1.936   4.672  25.281  0.00  0.00    +0.277 C 
ENDBRANCH  19   3
BRANCH  20   4
ATOM      4  O   UNL     1      -5.718   4.436  26.132  0.00  0.00    -0.488 OA
ATOM     23  C   UNL     1      -6.338   5.305  25.187  0.00  0.00    +0.277 C 
ENDBRANCH  20   4
ENDBRANCH  14  15
TORSDOF 5
ENDMDL
MODEL 6
REMARK VINA RESULT:      -0.7      1.942      3.675
REMARK  Name = 75368554
REMARK  8 active torsions:
REMARK  status: ('A' for Active; 'I' for Inactive)
REMARK    1  A    between atoms: O_2  and  C_18
REMARK    2  A    between atoms: O_2  and  C_21
REMARK    3  A    between atoms: O_3  and  C_19
REMARK    4  A    between atoms: O_3  and  C_22
REMARK    5  A    between atoms: O_4  and  C_20
REMARK    6  A    between atoms: O_4  and  C_23
REMARK    7  A    between atoms: N_6  and  C_14
REMARK    8  A    between atoms: C_14  and  C_15
REMARK                            x       y       z     vdW  Elec       q    Type
REMARK                         _______ _______ _______ _____ _____    ______ ____
ROOT
ATOM     14  C   UNL     1      -2.235  -1.087  24.496  0.00  0.00    +0.120 C 
ENDROOT
BRANCH  14   6
ATOM      1  O   UNL     1      -6.374   3.400  26.376  0.00  0.00    -0.253 OA
ATOM      5  N   UNL     1      -5.091   1.935  25.055  0.00  0.00    -0.279 N 
ATOM      6  N   UNL     1      -3.407  -0.216  24.393  0.00  0.00    -0.295 NA
ATOM      7  N   UNL     1      -4.910   4.146  24.701  0.00  0.00    -0.297 N 
ATOM      8  C   UNL     1      -4.227   2.050  23.899  0.00  0.00    +0.109 C 
ATOM      9  C   UNL     1      -2.994   1.164  24.067  0.00  0.00    +0.109 C 
ATOM     10  C   UNL     1      -5.440   0.621  25.553  0.00  0.00    +0.125 C 
ATOM     11  C   UNL     1      -3.938   3.547  23.815  0.00  0.00    +0.129 C 
ATOM     12  C   UNL     1      -4.185  -0.252  25.648  0.00  0.00    +0.104 C 
ATOM     13  C   UNL     1      -5.563   3.179  25.488  0.00  0.00    +0.303 C 
ATOM     24  H   UNL     1      -5.047   5.146  24.808  0.00  0.00    +0.150 HD
ENDBRANCH  14   6
BRANCH  14  15
ATOM     15  C   UNL     1      -0.956  -0.340  24.229  0.00  0.00    -0.026 A 
ATOM     16  C   UNL     1      -0.121  -0.739  23.185  0.00  0.00    +0.054 A 
ATOM     17  C   UNL     1      -0.606   0.751  25.023  0.00  0.00    +0.054 A 
ATOM     18  C   UNL     1       0.580   1.443  24.775  0.00  0.00    +0.165 A 
ATOM     19  C   UNL     1       1.064  -0.047  22.937  0.00  0.00    +0.165 A 
ATOM     20  C   UNL     1       1.414   1.043  23.731  0.00  0.00    +0.204 A 
BRANCH  18   2
ATOM      2  O   UNL     1       0.910   2.508  25.558  0.00  0.00    -0.491 OA
ATOM     21  C   UNL     1       0.020   2.828  26.625  0.00  0.00    +0.277 C 
ENDBRANCH  18   2
BRANCH  19   3
ATOM      3  O   UNL     1       1.871  -0.448  21.914  0.00  0.00    -0.491 OA
ATOM     22  C   UNL     1       1.237  -0.781  20.681  0.00  0.00    +0.277 C 
ENDBRANCH  19   3
BRANCH  20   4
ATOM      4  O   UNL     1       2.573   1.720  23.487  0.00  0.00    -0.488 OA
ATOM     23  C   UNL     1       3.669   0.963  22.979  0.00  0.00    +0.277 C 
ENDBRANCH  20   4
ENDBRANCH  14  15
TORSDOF 5
ENDMDL
MODEL 7
REMARK VINA RESULT:      -0.7      1.477      3.345
REMARK  Name = 75368554
REMARK  8 active torsions:
REMARK  status: ('A' for Active; 'I' for Inactive)
REMARK    1  A    between atoms: O_2  and  C_18
REMARK    2  A    between atoms: O_2  and  C_21
REMARK    3  A    between atoms: O_3  and  C_19
REMARK    4  A    between atoms: O_3  and  C_22
REMARK    5  A    between atoms: O_4  and  C_20
REMARK    6  A    between atoms: O_4  and  C_23
REMARK    7  A    between atoms: N_6  and  C_14
REMARK    8  A    between atoms: C_14  and  C_15
REMARK                            x       y       z     vdW  Elec       q    Type
REMARK                         _______ _______ _______ _____ _____    ______ ____
ROOT
ATOM     14  C   UNL     1      -0.293   3.299  24.162  0.00  0.00    +0.120 C 
ENDROOT
BRANCH  14   6
ATOM      1  O   UNL     1      -6.347   4.129  26.022  0.00  0.00    -0.253 OA
ATOM      5  N   UNL     1      -4.210   3.212  25.662  0.00  0.00    -0.279 N 
ATOM      6  N   UNL     1      -1.485   3.080  24.982  0.00  0.00    -0.295 NA
ATOM      7  N   UNL     1      -6.004   2.102  24.891  0.00  0.00    -0.297 N 
ATOM      8  C   UNL     1      -3.676   1.971  25.142  0.00  0.00    +0.109 C 
ATOM      9  C   UNL     1      -2.463   2.246  24.254  0.00  0.00    +0.109 C 
ATOM     10  C   UNL     1      -3.312   4.174  26.266  0.00  0.00    +0.125 C 
ATOM     11  C   UNL     1      -4.867   1.340  24.426  0.00  0.00    +0.129 C 
ATOM     12  C   UNL     1      -2.083   4.373  25.374  0.00  0.00    +0.104 C 
ATOM     13  C   UNL     1      -5.606   3.260  25.586  0.00  0.00    +0.303 C 
ATOM     24  H   UNL     1      -6.970   1.881  24.671  0.00  0.00    +0.150 HD
ENDBRANCH  14   6
BRANCH  14  15
ATOM     15  C   UNL     1       0.446   2.016  23.893  0.00  0.00    -0.026 A 
ATOM     16  C   UNL     1       1.689   2.046  23.262  0.00  0.00    +0.054 A 
ATOM     17  C   UNL     1      -0.112   0.797  24.276  0.00  0.00    +0.054 A 
ATOM     18  C   UNL     1       0.573  -0.393  24.026  0.00  0.00    +0.165 A 
ATOM     19  C   UNL     1       2.374   0.857  23.012  0.00  0.00    +0.165 A 
ATOM     20  C   UNL     1       1.816  -0.362  23.395  0.00  0.00    +0.204 A 
BRANCH  18   2
ATOM      2  O   UNL     1       0.018  -1.577  24.407  0.00  0.00    -0.491 OA
ATOM     21  C   UNL     1      -1.386  -1.584  24.657  0.00  0.00    +0.277 C 
ENDBRANCH  18   2
BRANCH  19   3
ATOM      3  O   UNL     1       3.587   0.902  22.393  0.00  0.00    -0.491 OA
ATOM     22  C   UNL     1       4.742   0.918  23.231  0.00  0.00    +0.277 C 
ENDBRANCH  19   3
BRANCH  20   4
ATOM      4  O   UNL     1       2.487  -1.525  23.152  0.00  0.00    -0.488 OA
ATOM     23  C   UNL     1       3.707  -1.727  23.861  0.00  0.00    +0.277 C 
ENDBRANCH  20   4
ENDBRANCH  14  15
TORSDOF 5
ENDMDL
MODEL 8
REMARK VINA RESULT:      -0.7      2.859      7.384
REMARK  Name = 75368554
REMARK  8 active torsions:
REMARK  status: ('A' for Active; 'I' for Inactive)
REMARK    1  A    between atoms: O_2  and  C_18
REMARK    2  A    between atoms: O_2  and  C_21
REMARK    3  A    between atoms: O_3  and  C_19
REMARK    4  A    between atoms: O_3  and  C_22
REMARK    5  A    between atoms: O_4  and  C_20
REMARK    6  A    between atoms: O_4  and  C_23
REMARK    7  A    between atoms: N_6  and  C_14
REMARK    8  A    between atoms: C_14  and  C_15
REMARK                            x       y       z     vdW  Elec       q    Type
REMARK                         _______ _______ _______ _____ _____    ______ ____
ROOT
ATOM     14  C   UNL     1      -1.907   0.137  24.402  0.00  0.00    +0.120 C 
ENDROOT
BRANCH  14   6
ATOM      1  O   UNL     1       4.313   1.286  23.514  0.00  0.00    -0.253 OA
ATOM      5  N   UNL     1       2.007   0.983  23.153  0.00  0.00    -0.279 N 
ATOM      6  N   UNL     1      -0.727   0.684  23.731  0.00  0.00    -0.295 NA
ATOM      7  N   UNL     1       3.455  -0.318  22.030  0.00  0.00    -0.297 N 
ATOM      8  C   UNL     1       1.180   0.211  22.250  0.00  0.00    +0.109 C 
ATOM      9  C   UNL     1      -0.013  -0.382  22.999  0.00  0.00    +0.109 C 
ATOM     10  C   UNL     1       1.388   1.957  24.027  0.00  0.00    +0.125 C 
ATOM     11  C   UNL     1       2.148  -0.816  21.666  0.00  0.00    +0.129 C 
ATOM     12  C   UNL     1       0.163   1.340  24.710  0.00  0.00    +0.104 C 
ATOM     13  C   UNL     1       3.371   0.728  22.970  0.00  0.00    +0.303 C 
ATOM     24  H   UNL     1       4.330  -0.725  21.718  0.00  0.00    +0.150 HD
ENDBRANCH  14   6
BRANCH  14  15
ATOM     15  C   UNL     1      -2.833   1.222  24.880  0.00  0.00    -0.026 A 
ATOM     16  C   UNL     1      -2.334   2.495  25.155  0.00  0.00    +0.054 A 
ATOM     17  C   UNL     1      -4.192   0.956  25.048  0.00  0.00    +0.054 A 
ATOM     18  C   UNL     1      -5.051   1.962  25.491  0.00  0.00    +0.165 A 
ATOM     19  C   UNL     1      -3.192   3.501  25.599  0.00  0.00    +0.165 A 
ATOM     20  C   UNL     1      -4.550   3.234  25.766  0.00  0.00    +0.204 A 
BRANCH  18   2
ATOM      2  O   UNL     1      -6.376   1.689  25.650  0.00  0.00    -0.491 OA
ATOM     21  C   UNL     1      -6.845   1.504  26.983  0.00  0.00    +0.277 C 
ENDBRANCH  18   2
BRANCH  19   3
ATOM      3  O   UNL     1      -2.690   4.740  25.865  0.00  0.00    -0.491 OA
ATOM     22  C   UNL     1      -1.501   5.119  25.175  0.00  0.00    +0.277 C 
ENDBRANCH  19   3
BRANCH  20   4
ATOM      4  O   UNL     1      -5.390   4.218  26.198  0.00  0.00    -0.488 OA
ATOM     23  C   UNL     1      -6.049   4.990  25.198  0.00  0.00    +0.277 C 
ENDBRANCH  20   4
ENDBRANCH  14  15
TORSDOF 5
ENDMDL
MODEL 9
REMARK VINA RESULT:      -0.7      1.942      3.192
REMARK  Name = 75368554
REMARK  8 active torsions:
REMARK  status: ('A' for Active; 'I' for Inactive)
REMARK    1  A    between atoms: O_2  and  C_18
REMARK    2  A    between atoms: O_2  and  C_21
REMARK    3  A    between atoms: O_3  and  C_19
REMARK    4  A    between atoms: O_3  and  C_22
REMARK    5  A    between atoms: O_4  and  C_20
REMARK    6  A    between atoms: O_4  and  C_23
REMARK    7  A    between atoms: N_6  and  C_14
REMARK    8  A    between atoms: C_14  and  C_15
REMARK                            x       y       z     vdW  Elec       q    Type
REMARK                         _______ _______ _______ _____ _____    ______ ____
ROOT
ATOM     14  C   UNL     1      -2.303  -1.012  24.526  0.00  0.00    +0.120 C 
ENDROOT
BRANCH  14   6
ATOM      1  O   UNL     1      -6.337   3.607  26.313  0.00  0.00    -0.253 OA
ATOM      5  N   UNL     1      -5.089   2.084  25.023  0.00  0.00    -0.279 N 
ATOM      6  N   UNL     1      -3.455  -0.118  24.405  0.00  0.00    -0.295 NA
ATOM      7  N   UNL     1      -4.861   4.282  24.618  0.00  0.00    -0.297 N 
ATOM      8  C   UNL     1      -4.227   2.154  23.862  0.00  0.00    +0.109 C 
ATOM      9  C   UNL     1      -3.013   1.245  24.047  0.00  0.00    +0.109 C 
ATOM     10  C   UNL     1      -5.466   0.790  25.551  0.00  0.00    +0.125 C 
ATOM     11  C   UNL     1      -3.904   3.642  23.744  0.00  0.00    +0.129 C 
ATOM     12  C   UNL     1      -4.231  -0.108  25.662  0.00  0.00    +0.104 C 
ATOM     13  C   UNL     1      -5.533   3.347  25.428  0.00  0.00    +0.303 C 
ATOM     24  H   UNL     1      -4.975   5.288  24.703  0.00  0.00    +0.150 HD
ENDBRANCH  14   6
BRANCH  14  15
ATOM     15  C   UNL     1      -1.007  -0.296  24.255  0.00  0.00    -0.026 A 
ATOM     16  C   UNL     1      -0.634   0.793  25.043  0.00  0.00    +0.054 A 
ATOM     17  C   UNL     1      -0.178  -0.722  23.218  0.00  0.00    +0.054 A 
ATOM     18  C   UNL     1       1.023  -0.057  22.967  0.00  0.00    +0.165 A 
ATOM     19  C   UNL     1       0.566   1.457  24.792  0.00  0.00    +0.165 A 
ATOM     20  C   UNL     1       1.395   1.031  23.755  0.00  0.00    +0.204 A 
BRANCH  18   2
ATOM      2  O   UNL     1       1.824  -0.485  21.951  0.00  0.00    -0.491 OA
ATOM     21  C   UNL     1       1.188  -0.814  20.719  0.00  0.00    +0.277 C 
ENDBRANCH  18   2
BRANCH  19   3
ATOM      3  O   UNL     1       0.917   2.521  25.569  0.00  0.00    -0.491 OA
ATOM     22  C   UNL     1       0.185   2.710  26.778  0.00  0.00    +0.277 C 
ENDBRANCH  19   3
BRANCH  20   4
ATOM      4  O   UNL     1       2.570   1.680  23.511  0.00  0.00    -0.488 OA
ATOM     23  C   UNL     1       3.640   0.901  22.981  0.00  0.00    +0.277 C 
ENDBRANCH  20   4
ENDBRANCH  14  15
TORSDOF 5
ENDMDL
MODEL 10
REMARK VINA RESULT:      -0.7      2.865      6.985
REMARK  Name = 75368554
REMARK  8 active torsions:
REMARK  status: ('A' for Active; 'I' for Inactive)
REMARK    1  A    between atoms: O_2  and  C_18
REMARK    2  A    between atoms: O_2  and  C_21
REMARK    3  A    between atoms: O_3  and  C_19
REMARK    4  A    between atoms: O_3  and  C_22
REMARK    5  A    between atoms: O_4  and  C_20
REMARK    6  A    between atoms: O_4  and  C_23
REMARK    7  A    between atoms: N_6  and  C_14
REMARK    8  A    between atoms: C_14  and  C_15
REMARK                            x       y       z     vdW  Elec       q    Type
REMARK                         _______ _______ _______ _____ _____    ______ ____
ROOT
ATOM     14  C   UNL     1      -1.859   0.157  24.434  0.00  0.00    +0.120 C 
ENDROOT
BRANCH  14   6
ATOM      1  O   UNL     1       4.352   1.301  23.485  0.00  0.00    -0.253 OA
ATOM      5  N   UNL     1       2.045   0.989  23.144  0.00  0.00    -0.279 N 
ATOM      6  N   UNL     1      -0.685   0.695  23.745  0.00  0.00    -0.295 NA
ATOM      7  N   UNL     1       3.487  -0.328  22.034  0.00  0.00    -0.297 N 
ATOM      8  C   UNL     1       1.213   0.201  22.260  0.00  0.00    +0.109 C 
ATOM      9  C   UNL     1       0.026  -0.382  23.026  0.00  0.00    +0.109 C 
ATOM     10  C   UNL     1       1.429   1.976  24.007  0.00  0.00    +0.125 C 
ATOM     11  C   UNL     1       2.178  -0.834  21.687  0.00  0.00    +0.129 C 
ATOM     12  C   UNL     1       0.210   1.369  24.707  0.00  0.00    +0.104 C 
ATOM     13  C   UNL     1       3.407   0.733  22.956  0.00  0.00    +0.303 C 
ATOM     24  H   UNL     1       4.361  -0.739  21.722  0.00  0.00    +0.150 HD
ENDBRANCH  14   6
BRANCH  14  15
ATOM     15  C   UNL     1      -2.784   1.249  24.901  0.00  0.00    -0.026 A 
ATOM     16  C   UNL     1      -4.148   0.995  25.041  0.00  0.00    +0.054 A 
ATOM     17  C   UNL     1      -2.276   2.514  25.196  0.00  0.00    +0.054 A 
ATOM     18  C   UNL     1      -3.134   3.526  25.629  0.00  0.00    +0.165 A 
ATOM     19  C   UNL     1      -5.005   2.007  25.474  0.00  0.00    +0.165 A 
ATOM     20  C   UNL     1      -4.498   3.271  25.769  0.00  0.00    +0.204 A 
BRANCH  18   2
ATOM      2  O   UNL     1      -2.625   4.757  25.915  0.00  0.00    -0.491 OA
ATOM     21  C   UNL     1      -1.515   5.196  25.136  0.00  0.00    +0.277 C 
ENDBRANCH  18   2
BRANCH  19   3
ATOM      3  O   UNL     1      -6.336   1.745  25.605  0.00  0.00    -0.491 OA
ATOM     22  C   UNL     1      -6.823   1.505  26.924  0.00  0.00    +0.277 C 
ENDBRANCH  19   3
BRANCH  20   4
ATOM      4  O   UNL     1      -5.336   4.260  26.194  0.00  0.00    -0.488 OA
ATOM     23  C   UNL     1      -6.072   4.958  25.192  0.00  0.00    +0.277 C 
ENDBRANCH  20   4
ENDBRANCH  14  15
TORSDOF 5
ENDMDL
