MODEL 1
REMARK VINA RESULT:      -4.5      0.000      0.000
REMARK  Name = 11912157
REMARK  2 active torsions:
REMARK  status: ('A' for Active; 'I' for Inactive)
REMARK    1  A    between atoms: N_5  and  C_16
REMARK    2  A    between atoms: C_18  and  C_19
REMARK                            x       y       z     vdW  Elec       q    Type
REMARK                         _______ _______ _______ _____ _____    ______ ____
ROOT
ATOM      1  O   UNL     1      -4.641 -10.453  13.518  0.00  0.00    -0.266 OA
ATOM      3  N   UNL     1      -5.631 -10.349  11.400  0.00  0.00    -0.310 N 
ATOM      4  N   UNL     1      -5.722  -7.936   9.301  0.00  0.00    -0.315 NA
ATOM      7  C   UNL     1      -4.290  -9.994   9.247  0.00  0.00    +0.023 C 
ATOM      8  C   UNL     1      -6.728 -10.218   9.136  0.00  0.00    +0.050 C 
ATOM      9  C   UNL     1      -5.417 -10.781   8.592  0.00  0.00    +0.017 C 
ATOM     10  C   UNL     1      -4.313 -10.261  10.758  0.00  0.00    +0.130 C 
ATOM     11  C   UNL     1      -4.429  -8.496   8.910  0.00  0.00    +0.086 C 
ATOM     12  C   UNL     1      -6.837  -8.722   8.769  0.00  0.00    +0.090 C 
ATOM     13  C   UNL     1      -6.807 -10.401  10.642  0.00  0.00    +0.026 A 
ATOM     14  C   UNL     1      -7.997 -10.593  11.240  0.00  0.00    +0.024 A 
ATOM     15  C   UNL     1      -5.644 -10.478  12.806  0.00  0.00    +0.273 A 
ATOM     16  C   UNL     1      -6.988 -10.664  13.409  0.00  0.00    +0.099 A 
ATOM     17  C   UNL     1      -8.095 -10.728  12.669  0.00  0.00    +0.030 A 
ATOM     24  H   UNL     1      -5.793  -6.973   8.972  0.00  0.00    +0.122 HD
ENDROOT
BRANCH  16   5
ATOM      2  O   UNL     1      -8.411  -8.946  15.189  0.00  0.00    -0.270 OA
ATOM      5  N   UNL     1      -7.045 -10.781  14.769  0.00  0.00    -0.277 N 
ATOM     18  C   UNL     1      -7.757  -9.910  15.580  0.00  0.00    +0.248 C 
ATOM     25  H   UNL     1      -6.360 -11.402  15.194  0.00  0.00    +0.155 HD
BRANCH  18  19
ATOM      6  N   UNL     1      -7.649 -10.772  19.740  0.00  0.00    -0.263 NA
ATOM     19  C   UNL     1      -7.719 -10.211  17.036  0.00  0.00    +0.040 A 
ATOM     20  C   UNL     1      -8.902 -10.439  17.699  0.00  0.00    +0.033 A 
ATOM     21  C   UNL     1      -6.503 -10.253  17.675  0.00  0.00    +0.033 A 
ATOM     22  C   UNL     1      -8.812 -10.717  19.053  0.00  0.00    +0.111 A 
ATOM     23  C   UNL     1      -6.521 -10.539  19.031  0.00  0.00    +0.111 A 
ENDBRANCH  18  19
ENDBRANCH  16   5
TORSDOF 2
ENDMDL
MODEL 2
REMARK VINA RESULT:      -3.6      1.934      2.659
REMARK  Name = 11912157
REMARK  2 active torsions:
REMARK  status: ('A' for Active; 'I' for Inactive)
REMARK    1  A    between atoms: N_5  and  C_16
REMARK    2  A    between atoms: C_18  and  C_19
REMARK                            x       y       z     vdW  Elec       q    Type
REMARK                         _______ _______ _______ _____ _____    ______ ____
ROOT
ATOM      1  O   UNL     1      -5.738  -9.260  11.985  0.00  0.00    -0.266 OA
ATOM      3  N   UNL     1      -7.672  -9.448  10.682  0.00  0.00    -0.310 N 
ATOM      4  N   UNL     1      -9.354  -7.179   9.178  0.00  0.00    -0.315 NA
ATOM      7  C   UNL     1      -7.747  -8.835   8.196  0.00  0.00    +0.023 C 
ATOM      8  C   UNL     1      -9.777  -9.639   9.311  0.00  0.00    +0.050 C 
ATOM      9  C   UNL     1      -8.848  -9.885   8.124  0.00  0.00    +0.017 C 
ATOM     10  C   UNL     1      -6.930  -9.063   9.475  0.00  0.00    +0.130 C 
ATOM     11  C   UNL     1      -8.362  -7.423   8.131  0.00  0.00    +0.086 C 
ATOM     12  C   UNL     1     -10.381  -8.222   9.205  0.00  0.00    +0.090 C 
ATOM     13  C   UNL     1      -9.027  -9.799  10.621  0.00  0.00    +0.026 A 
ATOM     14  C   UNL     1      -9.664 -10.255  11.716  0.00  0.00    +0.024 A 
ATOM     15  C   UNL     1      -6.931  -9.541  11.880  0.00  0.00    +0.273 A 
ATOM     16  C   UNL     1      -7.694 -10.029  13.057  0.00  0.00    +0.099 A 
ATOM     17  C   UNL     1      -8.979 -10.374  12.975  0.00  0.00    +0.030 A 
ATOM     24  H   UNL     1      -9.792  -6.270   9.031  0.00  0.00    +0.122 HD
ENDROOT
BRANCH  16   5
ATOM      2  O   UNL     1      -8.848 -10.444  15.633  0.00  0.00    -0.270 OA
ATOM      5  N   UNL     1      -7.014 -10.123  14.239  0.00  0.00    -0.277 N 
ATOM     18  C   UNL     1      -7.637 -10.326  15.461  0.00  0.00    +0.248 C 
ATOM     25  H   UNL     1      -6.046  -9.812  14.223  0.00  0.00    +0.155 HD
BRANCH  18  19
ATOM      6  N   UNL     1      -5.044 -10.604  18.817  0.00  0.00    -0.263 NA
ATOM     19  C   UNL     1      -6.730 -10.423  16.635  0.00  0.00    +0.040 A 
ATOM     20  C   UNL     1      -5.371 -10.427  16.427  0.00  0.00    +0.033 A 
ATOM     21  C   UNL     1      -7.277 -10.507  17.894  0.00  0.00    +0.033 A 
ATOM     22  C   UNL     1      -4.569 -10.518  17.554  0.00  0.00    +0.111 A 
ATOM     23  C   UNL     1      -6.389 -10.595  18.955  0.00  0.00    +0.111 A 
ENDBRANCH  18  19
ENDBRANCH  16   5
TORSDOF 2
ENDMDL
MODEL 3
REMARK VINA RESULT:      -3.4     16.293     18.227
REMARK  Name = 11912157
REMARK  2 active torsions:
REMARK  status: ('A' for Active; 'I' for Inactive)
REMARK    1  A    between atoms: N_5  and  C_16
REMARK    2  A    between atoms: C_18  and  C_19
REMARK                            x       y       z     vdW  Elec       q    Type
REMARK                         _______ _______ _______ _____ _____    ______ ____
ROOT
ATOM      1  O   UNL     1       0.033   2.740  25.804  0.00  0.00    -0.266 OA
ATOM      3  N   UNL     1      -2.052   2.790  24.744  0.00  0.00    -0.310 N 
ATOM      4  N   UNL     1      -4.889   1.715  25.759  0.00  0.00    -0.315 NA
ATOM      7  C   UNL     1      -4.060   4.080  25.673  0.00  0.00    +0.023 C 
ATOM      8  C   UNL     1      -4.292   2.807  23.591  0.00  0.00    +0.050 C 
ATOM      9  C   UNL     1      -4.476   4.190  24.212  0.00  0.00    +0.017 C 
ATOM     10  C   UNL     1      -2.564   3.742  25.737  0.00  0.00    +0.130 C 
ATOM     11  C   UNL     1      -4.934   3.033  26.391  0.00  0.00    +0.086 C 
ATOM     12  C   UNL     1      -5.190   1.790  24.328  0.00  0.00    +0.090 C 
ATOM     13  C   UNL     1      -2.837   2.376  23.660  0.00  0.00    +0.026 A 
ATOM     14  C   UNL     1      -2.316   1.591  22.700  0.00  0.00    +0.024 A 
ATOM     15  C   UNL     1      -0.704   2.395  24.881  0.00  0.00    +0.273 A 
ATOM     16  C   UNL     1      -0.193   1.511  23.803  0.00  0.00    +0.099 A 
ATOM     17  C   UNL     1      -0.951   1.141  22.771  0.00  0.00    +0.030 A 
ATOM     24  H   UNL     1      -5.553   1.091  26.217  0.00  0.00    +0.122 HD
ENDROOT
BRANCH  16   5
ATOM      2  O   UNL     1       1.182  -0.186  21.967  0.00  0.00    -0.270 OA
ATOM      5  N   UNL     1       1.105   1.096  23.906  0.00  0.00    -0.277 N 
ATOM     18  C   UNL     1       1.716   0.268  22.976  0.00  0.00    +0.248 C 
ATOM     25  H   UNL     1       1.548   1.234  24.811  0.00  0.00    +0.155 HD
BRANCH  18  19
ATOM      6  N   UNL     1       5.791  -0.662  23.746  0.00  0.00    -0.263 NA
ATOM     19  C   UNL     1       3.142  -0.057  23.245  0.00  0.00    +0.040 A 
ATOM     20  C   UNL     1       4.093   0.917  23.057  0.00  0.00    +0.033 A 
ATOM     21  C   UNL     1       3.466  -1.322  23.673  0.00  0.00    +0.033 A 
ATOM     22  C   UNL     1       5.407   0.564  23.323  0.00  0.00    +0.111 A 
ATOM     23  C   UNL     1       4.808  -1.575  23.911  0.00  0.00    +0.111 A 
ENDBRANCH  18  19
ENDBRANCH  16   5
TORSDOF 2
ENDMDL
MODEL 4
REMARK VINA RESULT:      -1.2     16.541     18.302
REMARK  Name = 11912157
REMARK  2 active torsions:
REMARK  status: ('A' for Active; 'I' for Inactive)
REMARK    1  A    between atoms: N_5  and  C_16
REMARK    2  A    between atoms: C_18  and  C_19
REMARK                            x       y       z     vdW  Elec       q    Type
REMARK                         _______ _______ _______ _____ _____    ______ ____
ROOT
ATOM      1  O   UNL     1      -0.805  -0.120  24.967  0.00  0.00    -0.266 OA
ATOM      3  N   UNL     1      -2.204   1.751  25.099  0.00  0.00    -0.310 N 
ATOM      4  N   UNL     1      -4.625   2.633  23.202  0.00  0.00    -0.315 NA
ATOM      7  C   UNL     1      -4.732   1.582  25.476  0.00  0.00    +0.023 C 
ATOM      8  C   UNL     1      -3.688   3.784  25.213  0.00  0.00    +0.050 C 
ATOM      9  C   UNL     1      -4.575   2.947  26.133  0.00  0.00    +0.017 C 
ATOM     10  C   UNL     1      -3.358   0.900  25.417  0.00  0.00    +0.130 C 
ATOM     11  C   UNL     1      -5.375   1.738  24.084  0.00  0.00    +0.086 C 
ATOM     12  C   UNL     1      -4.369   3.928  23.835  0.00  0.00    +0.090 C 
ATOM     13  C   UNL     1      -2.318   3.147  25.063  0.00  0.00    +0.026 A 
ATOM     14  C   UNL     1      -1.229   3.916  24.879  0.00  0.00    +0.024 A 
ATOM     15  C   UNL     1      -0.963   1.100  24.930  0.00  0.00    +0.273 A 
ATOM     16  C   UNL     1       0.197   2.000  24.709  0.00  0.00    +0.099 A 
ATOM     17  C   UNL     1       0.071   3.327  24.695  0.00  0.00    +0.030 A 
ATOM     24  H   UNL     1      -5.143   2.771  22.334  0.00  0.00    +0.122 HD
ENDROOT
BRANCH  16   5
ATOM      2  O   UNL     1       0.977   0.394  22.482  0.00  0.00    -0.270 OA
ATOM      5  N   UNL     1       1.415   1.408  24.530  0.00  0.00    -0.277 N 
ATOM     18  C   UNL     1       1.732   0.636  23.421  0.00  0.00    +0.248 C 
ATOM     25  H   UNL     1       2.015   1.363  25.350  0.00  0.00    +0.155 HD
BRANCH  18  19
ATOM      6  N   UNL     1       5.685  -0.918  23.338  0.00  0.00    -0.263 NA
ATOM     19  C   UNL     1       3.115   0.092  23.392  0.00  0.00    +0.040 A 
ATOM     20  C   UNL     1       4.142   0.908  22.979  0.00  0.00    +0.033 A 
ATOM     21  C   UNL     1       3.326  -1.210  23.778  0.00  0.00    +0.033 A 
ATOM     22  C   UNL     1       5.412   0.354  22.970  0.00  0.00    +0.111 A 
ATOM     23  C   UNL     1       4.633  -1.669  23.734  0.00  0.00    +0.111 A 
ENDBRANCH  18  19
ENDBRANCH  16   5
TORSDOF 2
ENDMDL
MODEL 5
REMARK VINA RESULT:      -1.0     16.510     18.302
REMARK  Name = 11912157
REMARK  2 active torsions:
REMARK  status: ('A' for Active; 'I' for Inactive)
REMARK    1  A    between atoms: N_5  and  C_16
REMARK    2  A    between atoms: C_18  and  C_19
REMARK                            x       y       z     vdW  Elec       q    Type
REMARK                         _______ _______ _______ _____ _____    ______ ____
ROOT
ATOM      1  O   UNL     1      -0.610  -0.006  25.319  0.00  0.00    -0.266 OA
ATOM      3  N   UNL     1      -2.045   1.832  25.123  0.00  0.00    -0.310 N 
ATOM      4  N   UNL     1      -4.587   2.248  23.225  0.00  0.00    -0.315 NA
ATOM      7  C   UNL     1      -4.543   1.718  25.676  0.00  0.00    +0.023 C 
ATOM      8  C   UNL     1      -3.570   3.822  24.880  0.00  0.00    +0.050 C 
ATOM      9  C   UNL     1      -4.384   3.196  26.010  0.00  0.00    +0.017 C 
ATOM     10  C   UNL     1      -3.158   1.057  25.686  0.00  0.00    +0.130 C 
ATOM     11  C   UNL     1      -5.265   1.559  24.323  0.00  0.00    +0.086 C 
ATOM     12  C   UNL     1      -4.329   3.654  23.546  0.00  0.00    +0.090 C 
ATOM     13  C   UNL     1      -2.195   3.184  24.792  0.00  0.00    +0.026 A 
ATOM     14  C   UNL     1      -1.137   3.908  24.381  0.00  0.00    +0.024 A 
ATOM     15  C   UNL     1      -0.799   1.175  25.028  0.00  0.00    +0.273 A 
ATOM     16  C   UNL     1       0.324   2.019  24.548  0.00  0.00    +0.099 A 
ATOM     17  C   UNL     1       0.165   3.309  24.253  0.00  0.00    +0.030 A 
ATOM     24  H   UNL     1      -5.154   2.188  22.380  0.00  0.00    +0.122 HD
ENDROOT
BRANCH  16   5
ATOM      2  O   UNL     1       1.145   0.273  22.445  0.00  0.00    -0.270 OA
ATOM      5  N   UNL     1       1.545   1.416  24.431  0.00  0.00    -0.277 N 
ATOM     18  C   UNL     1       1.882   0.575  23.380  0.00  0.00    +0.248 C 
ATOM     25  H   UNL     1       2.129   1.425  25.263  0.00  0.00    +0.155 HD
BRANCH  18  19
ATOM      6  N   UNL     1       5.834  -0.982  23.471  0.00  0.00    -0.263 NA
ATOM     19  C   UNL     1       3.265   0.031  23.412  0.00  0.00    +0.040 A 
ATOM     20  C   UNL     1       3.452  -1.289  23.750  0.00  0.00    +0.033 A 
ATOM     21  C   UNL     1       4.315   0.862  23.103  0.00  0.00    +0.033 A 
ATOM     22  C   UNL     1       4.760  -1.748  23.764  0.00  0.00    +0.111 A 
ATOM     23  C   UNL     1       5.584   0.306  23.147  0.00  0.00    +0.111 A 
ENDBRANCH  18  19
ENDBRANCH  16   5
TORSDOF 2
ENDMDL
