MODEL 1
REMARK VINA RESULT:      -4.6      0.000      0.000
REMARK  Name = 75536791
REMARK  6 active torsions:
REMARK  status: ('A' for Active; 'I' for Inactive)
REMARK    1  A    between atoms: O_2  and  C_9
REMARK    2  A    between atoms: N_4  and  C_8
REMARK    3  A    between atoms: N_4  and  C_10
REMARK    4  A    between atoms: N_6  and  C_17
REMARK    5  A    between atoms: C_11  and  C_17
REMARK    6  A    between atoms: C_18  and  C_19
REMARK                            x       y       z     vdW  Elec       q    Type
REMARK                         _______ _______ _______ _____ _____    ______ ____
ROOT
ATOM      1  O   UNL     1      -1.420  -2.051  23.553  0.00  0.00    -0.371 OA
ATOM      8  C   UNL     1       0.078  -0.609  24.701  0.00  0.00    +0.111 C 
ATOM      9  C   UNL     1      -1.198  -0.744  25.512  0.00  0.00    +0.164 C 
ATOM     11  C   UNL     1      -1.769  -2.039  24.948  0.00  0.00    +0.165 C 
ATOM     12  C   UNL     1      -0.385  -1.078  23.331  0.00  0.00    +0.181 C 
ENDROOT
BRANCH   9   2
ATOM      2  O   UNL     1      -0.955  -0.837  26.901  0.00  0.00    -0.388 OA
ATOM     26  H   UNL     1      -0.502  -0.026  27.188  0.00  0.00    +0.210 HD
ENDBRANCH   9   2
BRANCH   8   4
ATOM      4  N   UNL     1       0.619   0.739  24.685  0.00  0.00    -0.306 NA
ATOM     24  H   UNL     1       1.133   0.900  23.819  0.00  0.00    +0.123 HD
BRANCH   4  10
ATOM      5  N   UNL     1      -1.276   4.505  25.251  0.00  0.00    -0.316 NA
ATOM     10  C   UNL     1      -0.447   1.728  24.817  0.00  0.00    +0.056 C 
ATOM     13  C   UNL     1      -0.351   2.791  23.717  0.00  0.00    +0.034 C 
ATOM     14  C   UNL     1      -0.388   2.392  26.197  0.00  0.00    +0.034 C 
ATOM     15  C   UNL     1      -1.394   3.889  23.927  0.00  0.00    +0.082 C 
ATOM     16  C   UNL     1      -1.429   3.505  26.311  0.00  0.00    +0.082 C 
ATOM     25  H   UNL     1      -1.997   5.219  25.355  0.00  0.00    +0.122 HD
ENDBRANCH   4  10
ENDBRANCH   8   4
BRANCH  11  17
ATOM     17  C   UNL     1      -3.275  -2.148  25.102  0.00  0.00    +0.138 C 
BRANCH  17   6
ATOM      3  O   UNL     1      -3.839  -0.068  23.204  0.00  0.00    -0.270 OA
ATOM      6  N   UNL     1      -3.864  -0.870  25.381  0.00  0.00    -0.309 N 
ATOM     18  C   UNL     1      -4.103   0.082  24.395  0.00  0.00    +0.244 C 
ATOM     27  H   UNL     1      -4.044  -0.655  26.356  0.00  0.00    +0.149 HD
BRANCH  18  19
ATOM      7  N   UNL     1      -5.808   3.781  25.712  0.00  0.00    -0.263 NA
ATOM     19  C   UNL     1      -4.696   1.366  24.851  0.00  0.00    +0.040 A 
ATOM     20  C   UNL     1      -4.254   2.569  24.312  0.00  0.00    +0.033 A 
ATOM     21  C   UNL     1      -5.693   1.370  25.819  0.00  0.00    +0.033 A 
ATOM     22  C   UNL     1      -4.836   3.739  24.773  0.00  0.00    +0.111 A 
ATOM     23  C   UNL     1      -6.212   2.592  26.212  0.00  0.00    +0.111 A 
ENDBRANCH  18  19
ENDBRANCH  17   6
ENDBRANCH  11  17
TORSDOF 6
ENDMDL
MODEL 2
REMARK VINA RESULT:      -4.3      1.836      4.699
REMARK  Name = 75536791
REMARK  6 active torsions:
REMARK  status: ('A' for Active; 'I' for Inactive)
REMARK    1  A    between atoms: O_2  and  C_9
REMARK    2  A    between atoms: N_4  and  C_8
REMARK    3  A    between atoms: N_4  and  C_10
REMARK    4  A    between atoms: N_6  and  C_17
REMARK    5  A    between atoms: C_11  and  C_17
REMARK    6  A    between atoms: C_18  and  C_19
REMARK                            x       y       z     vdW  Elec       q    Type
REMARK                         _______ _______ _______ _____ _____    ______ ____
ROOT
ATOM      1  O   UNL     1       0.315   3.416  23.524  0.00  0.00    -0.371 OA
ATOM      8  C   UNL     1      -0.962   4.150  25.388  0.00  0.00    +0.111 C 
ATOM      9  C   UNL     1      -0.666   2.670  25.543  0.00  0.00    +0.164 C 
ATOM     11  C   UNL     1       0.535   2.512  24.621  0.00  0.00    +0.165 C 
ATOM     12  C   UNL     1      -0.708   4.354  23.903  0.00  0.00    +0.181 C 
ENDROOT
BRANCH   9   2
ATOM      2  O   UNL     1      -0.358   2.311  26.875  0.00  0.00    -0.388 OA
ATOM     26  H   UNL     1       0.590   2.098  26.923  0.00  0.00    +0.210 HD
ENDBRANCH   9   2
BRANCH   8   4
ATOM      4  N   UNL     1      -2.309   4.522  25.787  0.00  0.00    -0.306 NA
ATOM     24  H   UNL     1      -2.604   5.361  25.290  0.00  0.00    +0.123 HD
BRANCH   4  10
ATOM      5  N   UNL     1      -5.936   2.548  24.762  0.00  0.00    -0.316 NA
ATOM     10  C   UNL     1      -3.248   3.435  25.521  0.00  0.00    +0.056 C 
ATOM     13  C   UNL     1      -3.744   3.481  24.071  0.00  0.00    +0.034 C 
ATOM     14  C   UNL     1      -4.434   3.508  26.487  0.00  0.00    +0.034 C 
ATOM     15  C   UNL     1      -4.815   2.416  23.828  0.00  0.00    +0.082 C 
ATOM     16  C   UNL     1      -5.478   2.443  26.150  0.00  0.00    +0.082 C 
ATOM     25  H   UNL     1      -6.617   1.813  24.576  0.00  0.00    +0.122 HD
ENDBRANCH   4  10
ENDBRANCH   8   4
BRANCH  11  17
ATOM     17  C   UNL     1       0.706   1.099  24.094  0.00  0.00    +0.138 C 
BRANCH  17   6
ATOM      3  O   UNL     1       0.028  -1.412  25.310  0.00  0.00    -0.270 OA
ATOM      6  N   UNL     1      -0.554   0.418  24.009  0.00  0.00    -0.309 N 
ATOM     18  C   UNL     1      -0.796  -0.801  24.634  0.00  0.00    +0.244 C 
ATOM     27  H   UNL     1      -1.258   0.836  23.409  0.00  0.00    +0.149 HD
BRANCH  18  19
ATOM      7  N   UNL     1      -4.682  -2.494  24.034  0.00  0.00    -0.263 NA
ATOM     19  C   UNL     1      -2.145  -1.389  24.427  0.00  0.00    +0.040 A 
ATOM     20  C   UNL     1      -2.317  -2.768  24.456  0.00  0.00    +0.033 A 
ATOM     21  C   UNL     1      -3.240  -0.562  24.204  0.00  0.00    +0.033 A 
ATOM     22  C   UNL     1      -3.594  -3.267  24.254  0.00  0.00    +0.111 A 
ATOM     23  C   UNL     1      -4.476  -1.158  24.015  0.00  0.00    +0.111 A 
ENDBRANCH  18  19
ENDBRANCH  17   6
ENDBRANCH  11  17
TORSDOF 6
ENDMDL
MODEL 3
REMARK VINA RESULT:      -4.2      2.203      4.835
REMARK  Name = 75536791
REMARK  6 active torsions:
REMARK  status: ('A' for Active; 'I' for Inactive)
REMARK    1  A    between atoms: O_2  and  C_9
REMARK    2  A    between atoms: N_4  and  C_8
REMARK    3  A    between atoms: N_4  and  C_10
REMARK    4  A    between atoms: N_6  and  C_17
REMARK    5  A    between atoms: C_11  and  C_17
REMARK    6  A    between atoms: C_18  and  C_19
REMARK                            x       y       z     vdW  Elec       q    Type
REMARK                         _______ _______ _______ _____ _____    ______ ____
ROOT
ATOM      1  O   UNL     1      -3.497   3.994  26.000  0.00  0.00    -0.371 OA
ATOM      8  C   UNL     1      -1.352   3.807  24.996  0.00  0.00    +0.111 C 
ATOM      9  C   UNL     1      -2.375   3.118  24.111  0.00  0.00    +0.164 C 
ATOM     11  C   UNL     1      -3.665   3.771  24.590  0.00  0.00    +0.165 C 
ATOM     12  C   UNL     1      -2.099   3.879  26.318  0.00  0.00    +0.181 C 
ENDROOT
BRANCH   9   2
ATOM      2  O   UNL     1      -2.149   3.346  22.734  0.00  0.00    -0.388 OA
ATOM     26  H   UNL     1      -2.432   2.556  22.243  0.00  0.00    +0.210 HD
ENDBRANCH   9   2
BRANCH   8   4
ATOM      4  N   UNL     1      -0.091   3.091  25.096  0.00  0.00    -0.306 NA
ATOM     24  H   UNL     1       0.131   2.908  26.074  0.00  0.00    +0.123 HD
BRANCH   4  10
ATOM      5  N   UNL     1       0.807  -0.910  23.966  0.00  0.00    -0.316 NA
ATOM     10  C   UNL     1      -0.149   1.831  24.359  0.00  0.00    +0.056 C 
ATOM     13  C   UNL     1      -0.576   0.679  25.275  0.00  0.00    +0.034 C 
ATOM     14  C   UNL     1       1.211   1.525  23.724  0.00  0.00    +0.034 C 
ATOM     15  C   UNL     1      -0.521  -0.657  24.531  0.00  0.00    +0.082 C 
ATOM     16  C   UNL     1       1.197   0.157  23.041  0.00  0.00    +0.082 C 
ATOM     25  H   UNL     1       0.795  -1.800  23.468  0.00  0.00    +0.122 HD
ENDBRANCH   4  10
ENDBRANCH   8   4
BRANCH  11  17
ATOM     17  C   UNL     1      -4.896   2.917  24.349  0.00  0.00    +0.138 C 
BRANCH  17   6
ATOM      3  O   UNL     1      -5.144   0.893  26.370  0.00  0.00    -0.270 OA
ATOM      6  N   UNL     1      -4.551   1.530  24.220  0.00  0.00    -0.309 N 
ATOM     18  C   UNL     1      -4.706   0.615  25.257  0.00  0.00    +0.244 C 
ATOM     27  H   UNL     1      -4.119   1.247  23.346  0.00  0.00    +0.149 HD
BRANCH  18  19
ATOM      7  N   UNL     1      -3.468  -3.400  24.435  0.00  0.00    -0.263 NA
ATOM     19  C   UNL     1      -4.277  -0.779  24.972  0.00  0.00    +0.040 A 
ATOM     20  C   UNL     1      -3.581  -1.504  25.932  0.00  0.00    +0.033 A 
ATOM     21  C   UNL     1      -4.570  -1.362  23.745  0.00  0.00    +0.033 A 
ATOM     22  C   UNL     1      -3.201  -2.799  25.617  0.00  0.00    +0.111 A 
ATOM     23  C   UNL     1      -4.147  -2.663  23.527  0.00  0.00    +0.111 A 
ENDBRANCH  18  19
ENDBRANCH  17   6
ENDBRANCH  11  17
TORSDOF 6
ENDMDL
MODEL 4
REMARK VINA RESULT:      -3.9      1.924      4.887
REMARK  Name = 75536791
REMARK  6 active torsions:
REMARK  status: ('A' for Active; 'I' for Inactive)
REMARK    1  A    between atoms: O_2  and  C_9
REMARK    2  A    between atoms: N_4  and  C_8
REMARK    3  A    between atoms: N_4  and  C_10
REMARK    4  A    between atoms: N_6  and  C_17
REMARK    5  A    between atoms: C_11  and  C_17
REMARK    6  A    between atoms: C_18  and  C_19
REMARK                            x       y       z     vdW  Elec       q    Type
REMARK                         _______ _______ _______ _____ _____    ______ ____
ROOT
ATOM      1  O   UNL     1      -4.917   3.295  26.782  0.00  0.00    -0.371 OA
ATOM      8  C   UNL     1      -3.239   4.576  25.693  0.00  0.00    +0.111 C 
ATOM      9  C   UNL     1      -3.981   3.751  24.658  0.00  0.00    +0.164 C 
ATOM     11  C   UNL     1      -5.277   3.448  25.398  0.00  0.00    +0.165 C 
ATOM     12  C   UNL     1      -3.604   3.847  26.977  0.00  0.00    +0.181 C 
ENDROOT
BRANCH   9   2
ATOM      2  O   UNL     1      -4.214   4.461  23.458  0.00  0.00    -0.388 OA
ATOM     26  H   UNL     1      -3.658   4.073  22.760  0.00  0.00    +0.210 HD
ENDBRANCH   9   2
BRANCH   8   4
ATOM      4  N   UNL     1      -1.805   4.643  25.468  0.00  0.00    -0.306 NA
ATOM     24  H   UNL     1      -1.339   5.030  26.288  0.00  0.00    +0.123 HD
BRANCH   4  10
ATOM      5  N   UNL     1       1.008   1.630  24.416  0.00  0.00    -0.316 NA
ATOM     10  C   UNL     1      -1.264   3.318  25.173  0.00  0.00    +0.056 C 
ATOM     13  C   UNL     1      -0.159   2.942  26.167  0.00  0.00    +0.034 C 
ATOM     14  C   UNL     1      -0.722   3.273  23.740  0.00  0.00    +0.034 C 
ATOM     15  C   UNL     1       0.486   1.609  25.785  0.00  0.00    +0.082 C 
ATOM     16  C   UNL     1      -0.055   1.927  23.453  0.00  0.00    +0.082 C 
ATOM     25  H   UNL     1       1.414   0.720  24.198  0.00  0.00    +0.122 HD
ENDBRANCH   4  10
ENDBRANCH   8   4
BRANCH  11  17
ATOM     17  C   UNL     1      -5.969   2.190  24.906  0.00  0.00    +0.138 C 
BRANCH  17   6
ATOM      3  O   UNL     1      -3.797   1.437  23.186  0.00  0.00    -0.270 OA
ATOM      6  N   UNL     1      -5.123   1.040  25.048  0.00  0.00    -0.309 N 
ATOM     18  C   UNL     1      -4.089   0.751  24.163  0.00  0.00    +0.244 C 
ATOM     27  H   UNL     1      -5.353   0.394  25.796  0.00  0.00    +0.149 HD
BRANCH  18  19
ATOM      7  N   UNL     1      -1.875  -2.831  24.936  0.00  0.00    -0.263 NA
ATOM     19  C   UNL     1      -3.321  -0.492  24.433  0.00  0.00    +0.040 A 
ATOM     20  C   UNL     1      -2.021  -0.417  24.921  0.00  0.00    +0.033 A 
ATOM     21  C   UNL     1      -3.898  -1.734  24.196  0.00  0.00    +0.033 A 
ATOM     22  C   UNL     1      -1.346  -1.605  25.154  0.00  0.00    +0.111 A 
ATOM     23  C   UNL     1      -3.141  -2.863  24.462  0.00  0.00    +0.111 A 
ENDBRANCH  18  19
ENDBRANCH  17   6
ENDBRANCH  11  17
TORSDOF 6
ENDMDL
MODEL 5
REMARK VINA RESULT:      -3.2     15.917     18.233
REMARK  Name = 75536791
REMARK  6 active torsions:
REMARK  status: ('A' for Active; 'I' for Inactive)
REMARK    1  A    between atoms: O_2  and  C_9
REMARK    2  A    between atoms: N_4  and  C_8
REMARK    3  A    between atoms: N_4  and  C_10
REMARK    4  A    between atoms: N_6  and  C_17
REMARK    5  A    between atoms: C_11  and  C_17
REMARK    6  A    between atoms: C_18  and  C_19
REMARK                            x       y       z     vdW  Elec       q    Type
REMARK                         _______ _______ _______ _____ _____    ______ ____
ROOT
ATOM      1  O   UNL     1      -5.358  -8.780  11.430  0.00  0.00    -0.371 OA
ATOM      8  C   UNL     1      -6.593  -8.298   9.459  0.00  0.00    +0.111 C 
ATOM      9  C   UNL     1      -5.655  -9.459   9.184  0.00  0.00    +0.164 C 
ATOM     11  C   UNL     1      -5.375  -9.952  10.597  0.00  0.00    +0.165 C 
ATOM     12  C   UNL     1      -5.968  -7.696  10.708  0.00  0.00    +0.181 C 
ENDROOT
BRANCH   9   2
ATOM      2  O   UNL     1      -6.248 -10.462   8.384  0.00  0.00    -0.388 OA
ATOM     26  H   UNL     1      -5.670 -11.244   8.394  0.00  0.00    +0.210 HD
ENDBRANCH   9   2
BRANCH   8   4
ATOM      4  N   UNL     1      -6.687  -7.350   8.361  0.00  0.00    -0.306 NA
ATOM     24  H   UNL     1      -6.291  -7.755   7.514  0.00  0.00    +0.123 HD
BRANCH   4  10
ATOM      5  N   UNL     1     -10.678  -6.123   9.174  0.00  0.00    -0.316 NA
ATOM     10  C   UNL     1      -8.077  -6.967   8.124  0.00  0.00    +0.056 C 
ATOM     13  C   UNL     1      -8.340  -5.533   8.596  0.00  0.00    +0.034 C 
ATOM     14  C   UNL     1      -9.024  -7.939   8.834  0.00  0.00    +0.034 C 
ATOM     15  C   UNL     1      -9.820  -5.176   8.456  0.00  0.00    +0.082 C 
ATOM     16  C   UNL     1     -10.478  -7.489   8.685  0.00  0.00    +0.082 C 
ATOM     25  H   UNL     1     -11.654  -5.858   9.042  0.00  0.00    +0.122 HD
ENDBRANCH   4  10
ENDBRANCH   8   4
BRANCH  11  17
ATOM     17  C   UNL     1      -4.056 -10.692  10.725  0.00  0.00    +0.138 C 
BRANCH  17   6
ATOM      3  O   UNL     1      -1.694  -9.535  11.876  0.00  0.00    -0.270 OA
ATOM      6  N   UNL     1      -3.638 -10.781  12.094  0.00  0.00    -0.309 N 
ATOM     18  C   UNL     1      -2.473 -10.186  12.567  0.00  0.00    +0.244 C 
ATOM     27  H   UNL     1      -4.203 -11.362  12.706  0.00  0.00    +0.149 HD
BRANCH  18  19
ATOM      7  N   UNL     1      -1.591 -10.779  16.714  0.00  0.00    -0.263 NA
ATOM     19  C   UNL     1      -2.167 -10.393  14.006  0.00  0.00    +0.040 A 
ATOM     20  C   UNL     1      -3.199 -10.491  14.932  0.00  0.00    +0.033 A 
ATOM     21  C   UNL     1      -0.847 -10.489  14.433  0.00  0.00    +0.033 A 
ATOM     22  C   UNL     1      -2.862 -10.681  16.263  0.00  0.00    +0.111 A 
ATOM     23  C   UNL     1      -0.614 -10.681  15.784  0.00  0.00    +0.111 A 
ENDBRANCH  18  19
ENDBRANCH  17   6
ENDBRANCH  11  17
TORSDOF 6
ENDMDL
MODEL 6
REMARK VINA RESULT:      -2.9      2.061      3.358
REMARK  Name = 75536791
REMARK  6 active torsions:
REMARK  status: ('A' for Active; 'I' for Inactive)
REMARK    1  A    between atoms: O_2  and  C_9
REMARK    2  A    between atoms: N_4  and  C_8
REMARK    3  A    between atoms: N_4  and  C_10
REMARK    4  A    between atoms: N_6  and  C_17
REMARK    5  A    between atoms: C_11  and  C_17
REMARK    6  A    between atoms: C_18  and  C_19
REMARK                            x       y       z     vdW  Elec       q    Type
REMARK                         _______ _______ _______ _____ _____    ______ ____
ROOT
ATOM      1  O   UNL     1      -1.623  -2.689  23.943  0.00  0.00    -0.371 OA
ATOM      8  C   UNL     1       0.056  -1.018  24.117  0.00  0.00    +0.111 C 
ATOM      9  C   UNL     1      -1.076  -0.683  25.071  0.00  0.00    +0.164 C 
ATOM     11  C   UNL     1      -1.744  -2.043  25.222  0.00  0.00    +0.165 C 
ATOM     12  C   UNL     1      -0.625  -1.996  23.173  0.00  0.00    +0.181 C 
ENDROOT
BRANCH   9   2
ATOM      2  O   UNL     1      -0.616  -0.182  26.310  0.00  0.00    -0.388 OA
ATOM     26  H   UNL     1      -0.562  -0.923  26.939  0.00  0.00    +0.210 HD
ENDBRANCH   9   2
BRANCH   8   4
ATOM      4  N   UNL     1       0.604   0.141  23.432  0.00  0.00    -0.306 NA
ATOM     24  H   UNL     1       0.579   0.955  24.045  0.00  0.00    +0.123 HD
BRANCH   4  10
ATOM      5  N   UNL     1       4.854  -0.017  23.553  0.00  0.00    -0.316 NA
ATOM     10  C   UNL     1       1.977  -0.111  23.002  0.00  0.00    +0.056 C 
ATOM     13  C   UNL     1       2.665  -1.122  23.926  0.00  0.00    +0.034 C 
ATOM     14  C   UNL     1       2.772   1.198  22.969  0.00  0.00    +0.034 C 
ATOM     15  C   UNL     1       4.136  -1.295  23.545  0.00  0.00    +0.082 C 
ATOM     16  C   UNL     1       4.239   0.936  22.626  0.00  0.00    +0.082 C 
ATOM     25  H   UNL     1       5.823  -0.175  23.280  0.00  0.00    +0.122 HD
ENDBRANCH   4  10
ENDBRANCH   8   4
BRANCH  11  17
ATOM     17  C   UNL     1      -3.208  -1.952  25.614  0.00  0.00    +0.138 C 
BRANCH  17   6
ATOM      3  O   UNL     1      -4.086  -0.301  23.435  0.00  0.00    -0.270 OA
ATOM      6  N   UNL     1      -3.642  -0.587  25.694  0.00  0.00    -0.309 N 
ATOM     18  C   UNL     1      -4.053   0.140  24.582  0.00  0.00    +0.244 C 
ATOM     27  H   UNL     1      -3.575  -0.141  26.603  0.00  0.00    +0.149 HD
BRANCH  18  19
ATOM      7  N   UNL     1      -5.193   4.205  25.289  0.00  0.00    -0.263 NA
ATOM     19  C   UNL     1      -4.448   1.551  24.829  0.00  0.00    +0.040 A 
ATOM     20  C   UNL     1      -5.604   1.837  25.546  0.00  0.00    +0.033 A 
ATOM     21  C   UNL     1      -3.664   2.591  24.342  0.00  0.00    +0.033 A 
ATOM     22  C   UNL     1      -5.931   3.168  25.747  0.00  0.00    +0.111 A 
ATOM     23  C   UNL     1      -4.076   3.888  24.597  0.00  0.00    +0.111 A 
ENDBRANCH  18  19
ENDBRANCH  17   6
ENDBRANCH  11  17
TORSDOF 6
ENDMDL
MODEL 7
REMARK VINA RESULT:      -2.6      1.751      5.004
REMARK  Name = 75536791
REMARK  6 active torsions:
REMARK  status: ('A' for Active; 'I' for Inactive)
REMARK    1  A    between atoms: O_2  and  C_9
REMARK    2  A    between atoms: N_4  and  C_8
REMARK    3  A    between atoms: N_4  and  C_10
REMARK    4  A    between atoms: N_6  and  C_17
REMARK    5  A    between atoms: C_11  and  C_17
REMARK    6  A    between atoms: C_18  and  C_19
REMARK                            x       y       z     vdW  Elec       q    Type
REMARK                         _______ _______ _______ _____ _____    ______ ____
ROOT
ATOM      1  O   UNL     1      -6.137   1.892  26.067  0.00  0.00    -0.371 OA
ATOM      8  C   UNL     1      -4.864   3.794  25.432  0.00  0.00    +0.111 C 
ATOM      9  C   UNL     1      -4.525   2.639  24.507  0.00  0.00    +0.164 C 
ATOM     11  C   UNL     1      -5.744   1.746  24.692  0.00  0.00    +0.165 C 
ATOM     12  C   UNL     1      -5.499   3.063  26.605  0.00  0.00    +0.181 C 
ENDROOT
BRANCH   9   2
ATOM      2  O   UNL     1      -4.368   3.045  23.162  0.00  0.00    -0.388 OA
ATOM     26  H   UNL     1      -3.442   3.313  23.029  0.00  0.00    +0.210 HD
ENDBRANCH   9   2
BRANCH   8   4
ATOM      4  N   UNL     1      -3.712   4.591  25.818  0.00  0.00    -0.306 NA
ATOM     24  H   UNL     1      -3.705   4.730  26.828  0.00  0.00    +0.123 HD
BRANCH   4  10
ATOM      5  N   UNL     1       0.420   3.586  25.717  0.00  0.00    -0.316 NA
ATOM     10  C   UNL     1      -2.470   3.946  25.400  0.00  0.00    +0.056 C 
ATOM     13  C   UNL     1      -1.871   3.116  26.540  0.00  0.00    +0.034 C 
ATOM     14  C   UNL     1      -1.460   4.995  24.924  0.00  0.00    +0.034 C 
ATOM     15  C   UNL     1      -0.513   2.538  26.139  0.00  0.00    +0.082 C 
ATOM     16  C   UNL     1      -0.119   4.345  24.585  0.00  0.00    +0.082 C 
ATOM     25  H   UNL     1       1.305   3.158  25.444  0.00  0.00    +0.122 HD
ENDBRANCH   4  10
ENDBRANCH   8   4
BRANCH  11  17
ATOM     17  C   UNL     1      -5.469   0.285  24.389  0.00  0.00    +0.138 C 
BRANCH  17   6
ATOM      3  O   UNL     1      -3.609  -0.987  26.169  0.00  0.00    -0.270 OA
ATOM      6  N   UNL     1      -4.073   0.056  24.149  0.00  0.00    -0.309 N 
ATOM     18  C   UNL     1      -3.242  -0.572  25.072  0.00  0.00    +0.244 C 
ATOM     27  H   UNL     1      -3.691   0.436  23.289  0.00  0.00    +0.149 HD
BRANCH  18  19
ATOM      7  N   UNL     1       0.870  -0.973  23.950  0.00  0.00    -0.263 NA
ATOM     19  C   UNL     1      -1.815  -0.710  24.684  0.00  0.00    +0.040 A 
ATOM     20  C   UNL     1      -1.234   0.213  23.822  0.00  0.00    +0.033 A 
ATOM     21  C   UNL     1      -1.055  -1.764  25.179  0.00  0.00    +0.033 A 
ATOM     22  C   UNL     1       0.100   0.039  23.488  0.00  0.00    +0.111 A 
ATOM     23  C   UNL     1       0.270  -1.850  24.786  0.00  0.00    +0.111 A 
ENDBRANCH  18  19
ENDBRANCH  17   6
ENDBRANCH  11  17
TORSDOF 6
ENDMDL
MODEL 8
REMARK VINA RESULT:      -2.5      2.299      6.407
REMARK  Name = 75536791
REMARK  6 active torsions:
REMARK  status: ('A' for Active; 'I' for Inactive)
REMARK    1  A    between atoms: O_2  and  C_9
REMARK    2  A    between atoms: N_4  and  C_8
REMARK    3  A    between atoms: N_4  and  C_10
REMARK    4  A    between atoms: N_6  and  C_17
REMARK    5  A    between atoms: C_11  and  C_17
REMARK    6  A    between atoms: C_18  and  C_19
REMARK                            x       y       z     vdW  Elec       q    Type
REMARK                         _______ _______ _______ _____ _____    ______ ____
ROOT
ATOM      1  O   UNL     1      -3.564   4.326  25.159  0.00  0.00    -0.371 OA
ATOM      8  C   UNL     1      -4.131   2.029  25.368  0.00  0.00    +0.111 C 
ATOM      9  C   UNL     1      -2.648   2.147  25.069  0.00  0.00    +0.164 C 
ATOM     11  C   UNL     1      -2.377   3.585  25.491  0.00  0.00    +0.165 C 
ATOM     12  C   UNL     1      -4.636   3.395  24.931  0.00  0.00    +0.181 C 
ENDROOT
BRANCH   9   2
ATOM      2  O   UNL     1      -1.867   1.227  25.805  0.00  0.00    -0.388 OA
ATOM     26  H   UNL     1      -2.277   1.109  26.679  0.00  0.00    +0.210 HD
ENDBRANCH   9   2
BRANCH   8   4
ATOM      4  N   UNL     1      -4.783   0.935  24.668  0.00  0.00    -0.306 NA
ATOM     24  H   UNL     1      -5.017   1.217  23.717  0.00  0.00    +0.123 HD
BRANCH   4  10
ATOM      5  N   UNL     1      -3.576  -3.130  25.014  0.00  0.00    -0.316 NA
ATOM     10  C   UNL     1      -3.922  -0.245  24.634  0.00  0.00    +0.056 C 
ATOM     13  C   UNL     1      -4.435  -1.270  23.617  0.00  0.00    +0.034 C 
ATOM     14  C   UNL     1      -3.838  -0.881  26.026  0.00  0.00    +0.034 C 
ATOM     15  C   UNL     1      -3.603  -2.552  23.668  0.00  0.00    +0.082 C 
ATOM     16  C   UNL     1      -3.029  -2.178  25.984  0.00  0.00    +0.082 C 
ATOM     25  H   UNL     1      -3.001  -3.972  25.007  0.00  0.00    +0.122 HD
ENDBRANCH   4  10
ENDBRANCH   8   4
BRANCH  11  17
ATOM     17  C   UNL     1      -1.177   4.199  24.793  0.00  0.00    +0.138 C 
BRANCH  17   6
ATOM      3  O   UNL     1       0.743   2.337  25.838  0.00  0.00    -0.270 OA
ATOM      6  N   UNL     1      -0.446   3.214  24.049  0.00  0.00    -0.309 N 
ATOM     18  C   UNL     1       0.469   2.349  24.640  0.00  0.00    +0.244 C 
ATOM     27  H   UNL     1      -0.575   3.215  23.042  0.00  0.00    +0.149 HD
BRANCH  18  19
ATOM      7  N   UNL     1       2.472  -0.376  22.015  0.00  0.00    -0.263 NA
ATOM     19  C   UNL     1       1.164   1.404  23.728  0.00  0.00    +0.040 A 
ATOM     20  C   UNL     1       0.467   0.344  23.159  0.00  0.00    +0.033 A 
ATOM     21  C   UNL     1       2.513   1.575  23.441  0.00  0.00    +0.033 A 
ATOM     22  C   UNL     1       1.160  -0.511  22.318  0.00  0.00    +0.111 A 
ATOM     23  C   UNL     1       3.116   0.666  22.587  0.00  0.00    +0.111 A 
ENDBRANCH  18  19
ENDBRANCH  17   6
ENDBRANCH  11  17
TORSDOF 6
ENDMDL
MODEL 9
REMARK VINA RESULT:      -2.1      3.096      6.925
REMARK  Name = 75536791
REMARK  6 active torsions:
REMARK  status: ('A' for Active; 'I' for Inactive)
REMARK    1  A    between atoms: O_2  and  C_9
REMARK    2  A    between atoms: N_4  and  C_8
REMARK    3  A    between atoms: N_4  and  C_10
REMARK    4  A    between atoms: N_6  and  C_17
REMARK    5  A    between atoms: C_11  and  C_17
REMARK    6  A    between atoms: C_18  and  C_19
REMARK                            x       y       z     vdW  Elec       q    Type
REMARK                         _______ _______ _______ _____ _____    ______ ____
ROOT
ATOM      1  O   UNL     1      -1.867   1.469  22.407  0.00  0.00    -0.371 OA
ATOM      8  C   UNL     1      -2.026   3.175  24.052  0.00  0.00    +0.111 C 
ATOM      9  C   UNL     1      -1.102   2.083  24.559  0.00  0.00    +0.164 C 
ATOM     11  C   UNL     1      -0.708   1.403  23.255  0.00  0.00    +0.165 C 
ATOM     12  C   UNL     1      -2.773   2.447  22.945  0.00  0.00    +0.181 C 
ENDROOT
BRANCH   9   2
ATOM      2  O   UNL     1       0.021   2.594  25.247  0.00  0.00    -0.388 OA
ATOM     26  H   UNL     1      -0.154   2.539  26.202  0.00  0.00    +0.210 HD
ENDBRANCH   9   2
BRANCH   8   4
ATOM      4  N   UNL     1      -2.910   3.713  25.072  0.00  0.00    -0.306 NA
ATOM     24  H   UNL     1      -2.966   4.727  24.989  0.00  0.00    +0.123 HD
BRANCH   4  10
ATOM      5  N   UNL     1      -6.540   1.808  26.210  0.00  0.00    -0.316 NA
ATOM     10  C   UNL     1      -4.247   3.135  24.958  0.00  0.00    +0.056 C 
ATOM     13  C   UNL     1      -5.250   3.892  25.836  0.00  0.00    +0.034 C 
ATOM     14  C   UNL     1      -4.220   1.653  25.347  0.00  0.00    +0.034 C 
ATOM     15  C   UNL     1      -6.620   3.214  25.807  0.00  0.00    +0.082 C 
ATOM     16  C   UNL     1      -5.630   1.062  25.337  0.00  0.00    +0.082 C 
ATOM     25  H   UNL     1      -7.469   1.391  26.163  0.00  0.00    +0.122 HD
ENDBRANCH   4  10
ENDBRANCH   8   4
BRANCH  11  17
ATOM     17  C   UNL     1      -0.287  -0.044  23.437  0.00  0.00    +0.138 C 
BRANCH  17   6
ATOM      3  O   UNL     1       1.825  -0.094  21.492  0.00  0.00    -0.270 OA
ATOM      6  N   UNL     1       1.119  -0.149  23.701  0.00  0.00    -0.309 N 
ATOM     18  C   UNL     1       2.077  -0.165  22.692  0.00  0.00    +0.244 C 
ATOM     27  H   UNL     1       1.392  -0.280  24.670  0.00  0.00    +0.149 HD
BRANCH  18  19
ATOM      7  N   UNL     1       6.147  -0.566  23.957  0.00  0.00    -0.263 NA
ATOM     19  C   UNL     1       3.490  -0.305  23.130  0.00  0.00    +0.040 A 
ATOM     20  C   UNL     1       3.925  -1.489  23.715  0.00  0.00    +0.033 A 
ATOM     21  C   UNL     1       4.382   0.748  22.959  0.00  0.00    +0.033 A 
ATOM     22  C   UNL     1       5.252  -1.569  24.108  0.00  0.00    +0.111 A 
ATOM     23  C   UNL     1       5.687   0.569  23.385  0.00  0.00    +0.111 A 
ENDBRANCH  18  19
ENDBRANCH  17   6
ENDBRANCH  11  17
TORSDOF 6
ENDMDL
