MODEL 1
REMARK VINA RESULT:      -4.7      0.000      0.000
REMARK  Name = 75368550
REMARK  3 active torsions:
REMARK  status: ('A' for Active; 'I' for Inactive)
REMARK    1  A    between atoms: N_3  and  C_11
REMARK    2  A    between atoms: N_5  and  C_19
REMARK    3  A    between atoms: C_11  and  C_13
REMARK                            x       y       z     vdW  Elec       q    Type
REMARK                         _______ _______ _______ _____ _____    ______ ____
ROOT
ATOM      1  O   UNL     1      -6.635   1.592  24.323  0.00  0.00    -0.253 OA
ATOM      2  N   UNL     1      -4.672   2.850  24.646  0.00  0.00    -0.279 N 
ATOM      3  N   UNL     1      -1.944   3.527  24.593  0.00  0.00    -0.295 NA
ATOM      4  N   UNL     1      -6.151   2.705  26.332  0.00  0.00    -0.297 N 
ATOM      6  C   UNL     1      -4.149   3.733  25.667  0.00  0.00    +0.109 C 
ATOM      7  C   UNL     1      -2.660   3.468  25.885  0.00  0.00    +0.109 C 
ATOM      8  C   UNL     1      -3.964   2.719  23.391  0.00  0.00    +0.125 C 
ATOM      9  C   UNL     1      -2.469   2.517  23.654  0.00  0.00    +0.104 C 
ATOM     10  C   UNL     1      -5.036   3.447  26.877  0.00  0.00    +0.129 C 
ATOM     12  C   UNL     1      -5.906   2.298  25.007  0.00  0.00    +0.303 C 
ATOM     22  H   UNL     1      -6.973   2.435  26.863  0.00  0.00    +0.150 HD
ENDROOT
BRANCH   3  11
ATOM     11  C   UNL     1      -0.508   3.335  24.798  0.00  0.00    +0.121 C 
BRANCH  11  13
ATOM      5  N   UNL     1       1.075   0.347  23.349  0.00  0.00    -0.349 N 
ATOM     13  C   UNL     1      -0.057   1.969  24.357  0.00  0.00    -0.008 A 
ATOM     14  C   UNL     1      -0.621   0.723  24.750  0.00  0.00    +0.004 A 
ATOM     15  C   UNL     1       0.983   1.705  23.496  0.00  0.00    +0.091 A 
ATOM     16  C   UNL     1       0.107  -0.279  24.103  0.00  0.00    +0.049 A 
ATOM     17  C   UNL     1      -1.684   0.349  25.595  0.00  0.00    +0.010 A 
ATOM     18  C   UNL     1      -0.177  -1.640  24.260  0.00  0.00    +0.026 A 
ATOM     19  C   UNL     1       2.052  -0.320  22.517  0.00  0.00    +0.149 C 
ATOM     20  C   UNL     1      -1.979  -1.009  25.762  0.00  0.00    +0.001 A 
ATOM     21  C   UNL     1      -1.236  -1.986  25.104  0.00  0.00    +0.002 A 
ENDBRANCH  11  13
ENDBRANCH   3  11
TORSDOF 2
ENDMDL
MODEL 2
REMARK VINA RESULT:      -4.2     17.495     19.567
REMARK  Name = 75368550
REMARK  3 active torsions:
REMARK  status: ('A' for Active; 'I' for Inactive)
REMARK    1  A    between atoms: N_3  and  C_11
REMARK    2  A    between atoms: N_5  and  C_19
REMARK    3  A    between atoms: C_11  and  C_13
REMARK                            x       y       z     vdW  Elec       q    Type
REMARK                         _______ _______ _______ _____ _____    ______ ____
ROOT
ATOM      1  O   UNL     1       8.386  -7.802  32.345  0.00  0.00    -0.253 OA
ATOM      2  N   UNL     1      10.642  -8.417  32.079  0.00  0.00    -0.279 N 
ATOM      3  N   UNL     1      13.220  -8.544  30.963  0.00  0.00    -0.295 NA
ATOM      4  N   UNL     1       9.139 -10.013  32.570  0.00  0.00    -0.297 N 
ATOM      6  C   UNL     1      11.432  -9.615  32.272  0.00  0.00    +0.109 C 
ATOM      7  C   UNL     1      12.430  -9.782  31.128  0.00  0.00    +0.109 C 
ATOM      8  C   UNL     1      11.308  -7.171  31.765  0.00  0.00    +0.125 C 
ATOM      9  C   UNL     1      12.342  -7.396  30.658  0.00  0.00    +0.104 C 
ATOM     10  C   UNL     1      10.385 -10.721  32.378  0.00  0.00    +0.129 C 
ATOM     12  C   UNL     1       9.284  -8.633  32.335  0.00  0.00    +0.303 C 
ATOM     22  H   UNL     1       8.250 -10.462  32.766  0.00  0.00    +0.150 HD
ENDROOT
BRANCH   3  11
ATOM     11  C   UNL     1      14.221  -8.714  29.909  0.00  0.00    +0.121 C 
BRANCH  11  13
ATOM      5  N   UNL     1      16.635  -6.021  30.586  0.00  0.00    -0.349 N 
ATOM     13  C   UNL     1      15.223  -7.591  29.901  0.00  0.00    -0.008 A 
ATOM     14  C   UNL     1      15.775  -6.957  28.753  0.00  0.00    +0.004 A 
ATOM     15  C   UNL     1      15.770  -6.993  31.012  0.00  0.00    +0.091 A 
ATOM     16  C   UNL     1      16.657  -5.975  29.210  0.00  0.00    +0.049 A 
ATOM     17  C   UNL     1      15.608  -7.124  27.363  0.00  0.00    +0.010 A 
ATOM     18  C   UNL     1      17.383  -5.150  28.345  0.00  0.00    +0.026 A 
ATOM     19  C   UNL     1      17.405  -5.171  31.467  0.00  0.00    +0.149 C 
ATOM     20  C   UNL     1      16.328  -6.305  26.486  0.00  0.00    +0.001 A 
ATOM     21  C   UNL     1      17.201  -5.334  26.971  0.00  0.00    +0.002 A 
ENDBRANCH  11  13
ENDBRANCH   3  11
TORSDOF 2
ENDMDL
MODEL 3
REMARK VINA RESULT:      -3.8      1.839      2.460
REMARK  Name = 75368550
REMARK  3 active torsions:
REMARK  status: ('A' for Active; 'I' for Inactive)
REMARK    1  A    between atoms: N_3  and  C_11
REMARK    2  A    between atoms: N_5  and  C_19
REMARK    3  A    between atoms: C_11  and  C_13
REMARK                            x       y       z     vdW  Elec       q    Type
REMARK                         _______ _______ _______ _____ _____    ______ ____
ROOT
ATOM      1  O   UNL     1      -5.945   3.919  25.649  0.00  0.00    -0.253 OA
ATOM      2  N   UNL     1      -3.767   3.625  24.805  0.00  0.00    -0.279 N 
ATOM      3  N   UNL     1      -1.635   2.486  23.370  0.00  0.00    -0.295 NA
ATOM      4  N   UNL     1      -4.023   4.105  26.985  0.00  0.00    -0.297 N 
ATOM      6  C   UNL     1      -2.418   3.794  25.302  0.00  0.00    +0.109 C 
ATOM      7  C   UNL     1      -1.534   2.638  24.836  0.00  0.00    +0.109 C 
ATOM      8  C   UNL     1      -3.975   3.324  23.404  0.00  0.00    +0.125 C 
ATOM      9  C   UNL     1      -3.027   2.205  22.965  0.00  0.00    +0.104 C 
ATOM     10  C   UNL     1      -2.604   3.892  26.814  0.00  0.00    +0.129 C 
ATOM     12  C   UNL     1      -4.729   3.889  25.786  0.00  0.00    +0.303 C 
ATOM     22  H   UNL     1      -4.470   4.302  27.875  0.00  0.00    +0.150 HD
ENDROOT
BRANCH   3  11
ATOM     11  C   UNL     1      -0.745   1.421  22.906  0.00  0.00    +0.121 C 
BRANCH  11  13
ATOM      5  N   UNL     1      -0.449  -1.587  25.004  0.00  0.00    -0.349 N 
ATOM     13  C   UNL     1      -0.905   0.163  23.718  0.00  0.00    -0.008 A 
ATOM     14  C   UNL     1      -2.113  -0.560  23.929  0.00  0.00    +0.004 A 
ATOM     15  C   UNL     1       0.099  -0.493  24.390  0.00  0.00    +0.091 A 
ATOM     16  C   UNL     1      -1.799  -1.654  24.739  0.00  0.00    +0.049 A 
ATOM     17  C   UNL     1      -3.447  -0.389  23.508  0.00  0.00    +0.010 A 
ATOM     18  C   UNL     1      -2.756  -2.588  25.150  0.00  0.00    +0.026 A 
ATOM     19  C   UNL     1       0.295  -2.530  25.811  0.00  0.00    +0.149 C 
ATOM     20  C   UNL     1      -4.414  -1.315  23.911  0.00  0.00    +0.001 A 
ATOM     21  C   UNL     1      -4.072  -2.397  24.719  0.00  0.00    +0.002 A 
ENDBRANCH  11  13
ENDBRANCH   3  11
TORSDOF 2
ENDMDL
MODEL 4
REMARK VINA RESULT:      -3.3     16.087     18.690
REMARK  Name = 75368550
REMARK  3 active torsions:
REMARK  status: ('A' for Active; 'I' for Inactive)
REMARK    1  A    between atoms: N_3  and  C_11
REMARK    2  A    between atoms: N_5  and  C_19
REMARK    3  A    between atoms: C_11  and  C_13
REMARK                            x       y       z     vdW  Elec       q    Type
REMARK                         _______ _______ _______ _____ _____    ______ ____
ROOT
ATOM      1  O   UNL     1       6.969  -8.002  30.604  0.00  0.00    -0.253 OA
ATOM      2  N   UNL     1       8.791  -8.557  31.987  0.00  0.00    -0.279 N 
ATOM      3  N   UNL     1      11.451  -8.773  32.873  0.00  0.00    -0.295 NA
ATOM      4  N   UNL     1       7.198 -10.101  31.630  0.00  0.00    -0.297 N 
ATOM      6  C   UNL     1       9.156  -9.664  32.846  0.00  0.00    +0.109 C 
ATOM      7  C   UNL     1      10.639  -9.994  32.683  0.00  0.00    +0.109 C 
ATOM      8  C   UNL     1       9.607  -7.362  31.985  0.00  0.00    +0.125 C 
ATOM      9  C   UNL     1      11.087  -7.740  31.883  0.00  0.00    +0.104 C 
ATOM     10  C   UNL     1       8.200 -10.777  32.422  0.00  0.00    +0.129 C 
ATOM     12  C   UNL     1       7.581  -8.782  31.322  0.00  0.00    +0.303 C 
ATOM     22  H   UNL     1       6.360 -10.544  31.267  0.00  0.00    +0.150 HD
ENDROOT
BRANCH   3  11
ATOM     11  C   UNL     1      12.876  -9.090  32.780  0.00  0.00    +0.121 C 
BRANCH  11  13
ATOM      5  N   UNL     1      14.496  -6.315  30.987  0.00  0.00    -0.349 N 
ATOM     13  C   UNL     1      13.598  -8.153  31.849  0.00  0.00    -0.008 A 
ATOM     14  C   UNL     1      14.193  -8.491  30.601  0.00  0.00    +0.004 A 
ATOM     15  C   UNL     1      13.801  -6.809  32.058  0.00  0.00    +0.091 A 
ATOM     16  C   UNL     1      14.749  -7.320  30.081  0.00  0.00    +0.049 A 
ATOM     17  C   UNL     1      14.312  -9.684  29.861  0.00  0.00    +0.010 A 
ATOM     18  C   UNL     1      15.420  -7.283  28.854  0.00  0.00    +0.026 A 
ATOM     19  C   UNL     1      14.899  -4.933  30.843  0.00  0.00    +0.149 C 
ATOM     20  C   UNL     1      14.981  -9.662  28.632  0.00  0.00    +0.001 A 
ATOM     21  C   UNL     1      15.526  -8.479  28.138  0.00  0.00    +0.002 A 
ENDBRANCH  11  13
ENDBRANCH   3  11
TORSDOF 2
ENDMDL
MODEL 5
REMARK VINA RESULT:      -3.0      2.779      6.755
REMARK  Name = 75368550
REMARK  3 active torsions:
REMARK  status: ('A' for Active; 'I' for Inactive)
REMARK    1  A    between atoms: N_3  and  C_11
REMARK    2  A    between atoms: N_5  and  C_19
REMARK    3  A    between atoms: C_11  and  C_13
REMARK                            x       y       z     vdW  Elec       q    Type
REMARK                         _______ _______ _______ _____ _____    ______ ____
ROOT
ATOM      1  O   UNL     1       4.089   1.364  23.235  0.00  0.00    -0.253 OA
ATOM      2  N   UNL     1       1.772   0.958  23.146  0.00  0.00    -0.279 N 
ATOM      3  N   UNL     1      -0.856   0.510  24.041  0.00  0.00    -0.295 NA
ATOM      4  N   UNL     1       3.129  -0.240  21.815  0.00  0.00    -0.297 N 
ATOM      6  C   UNL     1       0.876   0.171  22.325  0.00  0.00    +0.109 C 
ATOM      7  C   UNL     1      -0.188  -0.499  23.194  0.00  0.00    +0.109 C 
ATOM      8  C   UNL     1       1.220   1.876  24.120  0.00  0.00    +0.125 C 
ATOM      9  C   UNL     1       0.117   1.183  24.925  0.00  0.00    +0.104 C 
ATOM     10  C   UNL     1       1.811  -0.791  21.596  0.00  0.00    +0.129 C 
ATOM     12  C   UNL     1       3.112   0.775  22.790  0.00  0.00    +0.303 C 
ATOM     22  H   UNL     1       3.977  -0.595  21.384  0.00  0.00    +0.150 HD
ENDROOT
BRANCH   3  11
ATOM     11  C   UNL     1      -1.918  -0.112  24.833  0.00  0.00    +0.121 C 
BRANCH  11  13
ATOM      5  N   UNL     1      -5.237   1.471  24.954  0.00  0.00    -0.349 N 
ATOM     13  C   UNL     1      -3.129   0.775  24.941  0.00  0.00    -0.008 A 
ATOM     14  C   UNL     1      -3.136   2.168  25.231  0.00  0.00    +0.004 A 
ATOM     15  C   UNL     1      -4.435   0.376  24.776  0.00  0.00    +0.091 A 
ATOM     16  C   UNL     1      -4.470   2.580  25.233  0.00  0.00    +0.049 A 
ATOM     17  C   UNL     1      -2.131   3.122  25.492  0.00  0.00    +0.010 A 
ATOM     18  C   UNL     1      -4.852   3.903  25.484  0.00  0.00    +0.026 A 
ATOM     19  C   UNL     1      -6.680   1.449  24.860  0.00  0.00    +0.149 C 
ATOM     20  C   UNL     1      -2.499   4.448  25.745  0.00  0.00    +0.001 A 
ATOM     21  C   UNL     1      -3.838   4.830  25.740  0.00  0.00    +0.002 A 
ENDBRANCH  11  13
ENDBRANCH   3  11
TORSDOF 2
ENDMDL
MODEL 6
REMARK VINA RESULT:      -3.0      2.532      4.262
REMARK  Name = 75368550
REMARK  3 active torsions:
REMARK  status: ('A' for Active; 'I' for Inactive)
REMARK    1  A    between atoms: N_3  and  C_11
REMARK    2  A    between atoms: N_5  and  C_19
REMARK    3  A    between atoms: C_11  and  C_13
REMARK                            x       y       z     vdW  Elec       q    Type
REMARK                         _______ _______ _______ _____ _____    ______ ____
ROOT
ATOM      1  O   UNL     1      -1.708   6.240  25.375  0.00  0.00    -0.253 OA
ATOM      2  N   UNL     1      -2.648   4.191  24.698  0.00  0.00    -0.279 N 
ATOM      3  N   UNL     1      -4.285   1.905  24.743  0.00  0.00    -0.295 NA
ATOM      4  N   UNL     1      -0.417   4.437  24.606  0.00  0.00    -0.297 N 
ATOM      6  C   UNL     1      -2.172   2.975  24.073  0.00  0.00    +0.109 C 
ATOM      7  C   UNL     1      -2.815   1.755  24.730  0.00  0.00    +0.109 C 
ATOM      8  C   UNL     1      -4.070   4.377  24.896  0.00  0.00    +0.125 C 
ATOM      9  C   UNL     1      -4.684   3.110  25.497  0.00  0.00    +0.104 C 
ATOM     10  C   UNL     1      -0.655   3.063  24.226  0.00  0.00    +0.129 C 
ATOM     12  C   UNL     1      -1.612   5.099  24.943  0.00  0.00    +0.303 C 
ATOM     22  H   UNL     1       0.505   4.853  24.701  0.00  0.00    +0.150 HD
ENDROOT
BRANCH   3  11
ATOM     11  C   UNL     1      -4.914   0.715  25.315  0.00  0.00    +0.121 C 
BRANCH  11  13
ATOM      5  N   UNL     1      -3.863  -2.525  23.923  0.00  0.00    -0.349 N 
ATOM     13  C   UNL     1      -4.232  -0.550  24.867  0.00  0.00    -0.008 A 
ATOM     14  C   UNL     1      -2.884  -0.924  25.130  0.00  0.00    +0.004 A 
ATOM     15  C   UNL     1      -4.807  -1.554  24.123  0.00  0.00    +0.091 A 
ATOM     16  C   UNL     1      -2.678  -2.168  24.528  0.00  0.00    +0.049 A 
ATOM     17  C   UNL     1      -1.816  -0.324  25.827  0.00  0.00    +0.010 A 
ATOM     18  C   UNL     1      -1.454  -2.842  24.587  0.00  0.00    +0.026 A 
ATOM     19  C   UNL     1      -4.092  -3.746  23.181  0.00  0.00    +0.149 C 
ATOM     20  C   UNL     1      -0.586  -0.987  25.893  0.00  0.00    +0.001 A 
ATOM     21  C   UNL     1      -0.410  -2.227  25.283  0.00  0.00    +0.002 A 
ENDBRANCH  11  13
ENDBRANCH   3  11
TORSDOF 2
ENDMDL
MODEL 7
REMARK VINA RESULT:      -2.9     16.680     19.048
REMARK  Name = 75368550
REMARK  3 active torsions:
REMARK  status: ('A' for Active; 'I' for Inactive)
REMARK    1  A    between atoms: N_3  and  C_11
REMARK    2  A    between atoms: N_5  and  C_19
REMARK    3  A    between atoms: C_11  and  C_13
REMARK                            x       y       z     vdW  Elec       q    Type
REMARK                         _______ _______ _______ _____ _____    ______ ____
ROOT
ATOM      1  O   UNL     1       7.526  -8.082  31.010  0.00  0.00    -0.253 OA
ATOM      2  N   UNL     1       9.569  -8.474  32.113  0.00  0.00    -0.279 N 
ATOM      3  N   UNL     1      12.258  -8.142  32.863  0.00  0.00    -0.295 NA
ATOM      4  N   UNL     1       8.456 -10.224  31.249  0.00  0.00    -0.297 N 
ATOM      6  C   UNL     1      10.326  -9.632  32.535  0.00  0.00    +0.109 C 
ATOM      7  C   UNL     1      11.815  -9.419  32.265  0.00  0.00    +0.109 C 
ATOM      8  C   UNL     1      10.002  -7.155  32.521  0.00  0.00    +0.125 C 
ATOM      9  C   UNL     1      11.509  -7.006  32.290  0.00  0.00    +0.104 C 
ATOM     10  C   UNL     1       9.690 -10.781  31.756  0.00  0.00    +0.129 C 
ATOM     12  C   UNL     1       8.409  -8.827  31.414  0.00  0.00    +0.303 C 
ATOM     22  H   UNL     1       7.746 -10.758  30.757  0.00  0.00    +0.150 HD
ENDROOT
BRANCH   3  11
ATOM     11  C   UNL     1      13.695  -7.957  32.662  0.00  0.00    +0.121 C 
BRANCH  11  13
ATOM      5  N   UNL     1      14.511  -9.625  29.485  0.00  0.00    -0.349 N 
ATOM     13  C   UNL     1      14.128  -8.382  31.284  0.00  0.00    -0.008 A 
ATOM     14  C   UNL     1      14.734  -7.558  30.295  0.00  0.00    +0.004 A 
ATOM     15  C   UNL     1      14.005  -9.647  30.757  0.00  0.00    +0.091 A 
ATOM     16  C   UNL     1      14.965  -8.362  29.176  0.00  0.00    +0.049 A 
ATOM     17  C   UNL     1      15.111  -6.201  30.243  0.00  0.00    +0.010 A 
ATOM     18  C   UNL     1      15.555  -7.875  28.005  0.00  0.00    +0.026 A 
ATOM     19  C   UNL     1      14.558 -10.773  28.605  0.00  0.00    +0.149 C 
ATOM     20  C   UNL     1      15.701  -5.700  29.078  0.00  0.00    +0.001 A 
ATOM     21  C   UNL     1      15.920  -6.526  27.978  0.00  0.00    +0.002 A 
ENDBRANCH  11  13
ENDBRANCH   3  11
TORSDOF 2
ENDMDL
MODEL 8
REMARK VINA RESULT:      -2.5      2.472      6.133
REMARK  Name = 75368550
REMARK  3 active torsions:
REMARK  status: ('A' for Active; 'I' for Inactive)
REMARK    1  A    between atoms: N_3  and  C_11
REMARK    2  A    between atoms: N_5  and  C_19
REMARK    3  A    between atoms: C_11  and  C_13
REMARK                            x       y       z     vdW  Elec       q    Type
REMARK                         _______ _______ _______ _____ _____    ______ ____
ROOT
ATOM      1  O   UNL     1       1.569  -0.616  22.219  0.00  0.00    -0.253 OA
ATOM      2  N   UNL     1       0.011  -0.533  23.982  0.00  0.00    -0.279 N 
ATOM      3  N   UNL     1      -2.435  -0.788  25.343  0.00  0.00    -0.295 NA
ATOM      4  N   UNL     1       1.379   1.222  23.667  0.00  0.00    -0.297 N 
ATOM      6  C   UNL     1      -0.267   0.350  25.094  0.00  0.00    +0.109 C 
ATOM      7  C   UNL     1      -1.775   0.532  25.262  0.00  0.00    +0.109 C 
ATOM      8  C   UNL     1      -0.693  -1.794  23.883  0.00  0.00    +0.125 C 
ATOM      9  C   UNL     1      -2.190  -1.575  24.119  0.00  0.00    +0.104 C 
ATOM     10  C   UNL     1       0.498   1.623  24.740  0.00  0.00    +0.129 C 
ATOM     12  C   UNL     1       1.048  -0.055  23.174  0.00  0.00    +0.303 C 
ATOM     22  H   UNL     1       2.093   1.817  23.259  0.00  0.00    +0.150 HD
ENDROOT
BRANCH   3  11
ATOM     11  C   UNL     1      -3.872  -0.625  25.565  0.00  0.00    +0.121 C 
BRANCH  11  13
ATOM      5  N   UNL     1      -5.386   2.722  25.348  0.00  0.00    -0.349 N 
ATOM     13  C   UNL     1      -4.336   0.769  25.237  0.00  0.00    -0.008 A 
ATOM     14  C   UNL     1      -3.936   1.553  24.119  0.00  0.00    +0.004 A 
ATOM     15  C   UNL     1      -5.227   1.514  25.973  0.00  0.00    +0.091 A 
ATOM     16  C   UNL     1      -4.609   2.774  24.212  0.00  0.00    +0.049 A 
ATOM     17  C   UNL     1      -3.063   1.342  23.032  0.00  0.00    +0.010 A 
ATOM     18  C   UNL     1      -4.453   3.796  23.270  0.00  0.00    +0.026 A 
ATOM     19  C   UNL     1      -6.249   3.780  25.824  0.00  0.00    +0.149 C 
ATOM     20  C   UNL     1      -2.897   2.356  22.083  0.00  0.00    +0.001 A 
ATOM     21  C   UNL     1      -3.582   3.563  22.201  0.00  0.00    +0.002 A 
ENDBRANCH  11  13
ENDBRANCH   3  11
TORSDOF 2
ENDMDL
MODEL 9
REMARK VINA RESULT:      -2.5     14.980     17.717
REMARK  Name = 75368550
REMARK  3 active torsions:
REMARK  status: ('A' for Active; 'I' for Inactive)
REMARK    1  A    between atoms: N_3  and  C_11
REMARK    2  A    between atoms: N_5  and  C_19
REMARK    3  A    between atoms: C_11  and  C_13
REMARK                            x       y       z     vdW  Elec       q    Type
REMARK                         _______ _______ _______ _____ _____    ______ ____
ROOT
ATOM      1  O   UNL     1      10.035   5.622  22.338  0.00  0.00    -0.253 OA
ATOM      2  N   UNL     1      10.780   7.144  20.704  0.00  0.00    -0.279 N 
ATOM      3  N   UNL     1      12.370   8.239  18.660  0.00  0.00    -0.295 NA
ATOM      4  N   UNL     1      10.166   7.935  22.715  0.00  0.00    -0.297 N 
ATOM      6  C   UNL     1      10.853   8.583  20.568  0.00  0.00    +0.109 C 
ATOM      7  C   UNL     1      12.176   8.987  19.919  0.00  0.00    +0.109 C 
ATOM      8  C   UNL     1      11.096   6.306  19.567  0.00  0.00    +0.125 C 
ATOM      9  C   UNL     1      12.394   6.784  18.911  0.00  0.00    +0.104 C 
ATOM     10  C   UNL     1      10.655   9.089  21.995  0.00  0.00    +0.129 C 
ATOM     12  C   UNL     1      10.293   6.756  21.957  0.00  0.00    +0.303 C 
ATOM     22  H   UNL     1       9.848   7.955  23.679  0.00  0.00    +0.150 HD
ENDROOT
BRANCH   3  11
ATOM     11  C   UNL     1      13.605   8.663  18.001  0.00  0.00    +0.121 C 
BRANCH  11  13
ATOM      5  N   UNL     1      16.490   6.491  18.706  0.00  0.00    -0.349 N 
ATOM     13  C   UNL     1      14.805   7.926  18.531  0.00  0.00    -0.008 A 
ATOM     14  C   UNL     1      15.476   8.175  19.762  0.00  0.00    +0.004 A 
ATOM     15  C   UNL     1      15.452   6.886  17.906  0.00  0.00    +0.091 A 
ATOM     16  C   UNL     1      16.529   7.261  19.848  0.00  0.00    +0.049 A 
ATOM     17  C   UNL     1      15.288   9.093  20.815  0.00  0.00    +0.010 A 
ATOM     18  C   UNL     1      17.405   7.219  20.937  0.00  0.00    +0.026 A 
ATOM     19  C   UNL     1      17.405   5.418  18.386  0.00  0.00    +0.149 C 
ATOM     20  C   UNL     1      16.158   9.062  21.910  0.00  0.00    +0.001 A 
ATOM     21  C   UNL     1      17.199   8.139  21.969  0.00  0.00    +0.002 A 
ENDBRANCH  11  13
ENDBRANCH   3  11
TORSDOF 2
ENDMDL
MODEL 10
REMARK VINA RESULT:      -2.3      1.439      2.959
REMARK  Name = 75368550
REMARK  3 active torsions:
REMARK  status: ('A' for Active; 'I' for Inactive)
REMARK    1  A    between atoms: N_3  and  C_11
REMARK    2  A    between atoms: N_5  and  C_19
REMARK    3  A    between atoms: C_11  and  C_13
REMARK                            x       y       z     vdW  Elec       q    Type
REMARK                         _______ _______ _______ _____ _____    ______ ____
ROOT
ATOM      1  O   UNL     1      -6.345   4.808  25.829  0.00  0.00    -0.253 OA
ATOM      2  N   UNL     1      -4.316   3.619  25.737  0.00  0.00    -0.279 N 
ATOM      3  N   UNL     1      -1.614   3.066  25.189  0.00  0.00    -0.295 NA
ATOM      4  N   UNL     1      -6.212   2.564  25.154  0.00  0.00    -0.297 N 
ATOM      6  C   UNL     1      -3.914   2.248  25.505  0.00  0.00    +0.109 C 
ATOM      7  C   UNL     1      -2.670   2.203  24.619  0.00  0.00    +0.109 C 
ATOM      8  C   UNL     1      -3.326   4.587  26.157  0.00  0.00    +0.125 C 
ATOM      9  C   UNL     1      -2.074   4.466  25.284  0.00  0.00    +0.104 C 
ATOM     10  C   UNL     1      -5.159   1.607  24.896  0.00  0.00    +0.129 C 
ATOM     12  C   UNL     1      -5.698   3.793  25.607  0.00  0.00    +0.303 C 
ATOM     22  H   UNL     1      -7.194   2.402  24.954  0.00  0.00    +0.150 HD
ENDROOT
BRANCH   3  11
ATOM     11  C   UNL     1      -0.397   2.983  24.381  0.00  0.00    +0.121 C 
BRANCH  11  13
ATOM      5  N   UNL     1      -0.019  -0.660  24.033  0.00  0.00    -0.349 N 
ATOM     13  C   UNL     1       0.018   1.557  24.138  0.00  0.00    -0.008 A 
ATOM     14  C   UNL     1       1.265   1.116  23.612  0.00  0.00    +0.004 A 
ATOM     15  C   UNL     1      -0.749   0.442  24.387  0.00  0.00    +0.091 A 
ATOM     16  C   UNL     1       1.216  -0.279  23.557  0.00  0.00    +0.049 A 
ATOM     17  C   UNL     1       2.434   1.771  23.177  0.00  0.00    +0.010 A 
ATOM     18  C   UNL     1       2.282  -1.054  23.087  0.00  0.00    +0.026 A 
ATOM     19  C   UNL     1      -0.490  -2.023  24.149  0.00  0.00    +0.149 C 
ATOM     20  C   UNL     1       3.508   1.008  22.704  0.00  0.00    +0.001 A 
ATOM     21  C   UNL     1       3.431  -0.382  22.660  0.00  0.00    +0.002 A 
ENDBRANCH  11  13
ENDBRANCH   3  11
TORSDOF 2
ENDMDL
