MODEL 1
REMARK VINA RESULT:       6.4      0.000      0.000
REMARK  Name = 11882084
REMARK  12 active torsions:
REMARK  status: ('A' for Active; 'I' for Inactive)
REMARK    1  A    between atoms: S_1  and  C_19
REMARK    2  A    between atoms: S_1  and  C_27
REMARK    3  A    between atoms: O_6  and  C_33
REMARK    4  A    between atoms: O_6  and  C_36
REMARK    5  A    between atoms: N_8  and  C_12
REMARK    6  A    between atoms: N_9  and  C_18
REMARK    7  A    between atoms: N_10  and  C_24
REMARK    8  A    between atoms: C_13  and  C_16
REMARK    9  A    between atoms: C_17  and  C_19
REMARK   10  A    between atoms: C_18  and  C_21
REMARK   11  A    between atoms: C_18  and  C_22
REMARK   12  A    between atoms: C_21  and  C_23
REMARK                            x       y       z     vdW  Elec       q    Type
REMARK                         _______ _______ _______ _____ _____    ______ ____
ROOT
ATOM      3  O   UNL     1      -2.764  -0.767  26.212  0.00  0.00    -0.275 OA
ATOM      7  N   UNL     1      -2.559   0.327  24.182  0.00  0.00    -0.287 N 
ATOM     12  C   UNL     1      -0.942   1.811  23.284  0.00  0.00    +0.105 C 
ATOM     13  C   UNL     1      -1.487   1.231  24.588  0.00  0.00    +0.182 C 
ATOM     14  C   UNL     1      -2.144   1.751  22.338  0.00  0.00    +0.043 C 
ATOM     15  C   UNL     1      -2.884   0.492  22.768  0.00  0.00    +0.110 C 
ATOM     17  C   UNL     1      -3.061  -0.656  25.021  0.00  0.00    +0.226 C 
ENDROOT
BRANCH  12   8
ATOM      4  O   UNL     1       1.513   1.240  24.645  0.00  0.00    -0.252 OA
ATOM      8  N   UNL     1       0.159   1.019  22.784  0.00  0.00    -0.294 N 
ATOM     10  N   UNL     1       2.211  -0.010  22.784  0.00  0.00    -0.269 N 
ATOM     20  C   UNL     1       1.328   0.788  23.518  0.00  0.00    +0.304 C 
ATOM     37  H   UNL     1       0.053   0.555  21.887  0.00  0.00    +0.151 HD
ATOM     39  H   UNL     1       1.901  -0.301  21.859  0.00  0.00    +0.156 HD
BRANCH  10  24
ATOM     24  C   UNL     1       3.492  -0.465  23.169  0.00  0.00    +0.038 A 
ATOM     28  C   UNL     1       4.597   0.380  23.051  0.00  0.00    +0.069 A 
ATOM     29  C   UNL     1       3.655  -1.759  23.663  0.00  0.00    +0.023 A 
ATOM     33  C   UNL     1       5.862  -0.070  23.430  0.00  0.00    +0.122 A 
ATOM     34  C   UNL     1       4.920  -2.207  24.042  0.00  0.00    +0.005 A 
ATOM     35  C   UNL     1       6.023  -1.363  23.925  0.00  0.00    +0.046 A 
BRANCH  33   6
ATOM      6  O   UNL     1       6.940   0.754  23.315  0.00  0.00    -0.495 OA
ATOM     36  C   UNL     1       8.226   0.139  23.284  0.00  0.00    +0.277 C 
ENDBRANCH  33   6
ENDBRANCH  10  24
ENDBRANCH  12   8
BRANCH  13  16
ATOM      2  O   UNL     1      -2.647   2.029  26.517  0.00  0.00    -0.274 OA
ATOM      9  N   UNL     1      -2.055   3.543  24.850  0.00  0.00    -0.302 N 
ATOM     16  C   UNL     1      -2.121   2.291  25.438  0.00  0.00    +0.236 C 
ATOM     38  H   UNL     1      -1.548   3.651  23.977  0.00  0.00    +0.150 HD
BRANCH   9  18
ATOM     18  C   UNL     1      -2.613   4.731  25.456  0.00  0.00    +0.163 C 
BRANCH  18  22
ATOM      5  O   UNL     1      -2.162   7.072  24.988  0.00  0.00    -0.274 OA
ATOM     11  N   UNL     1      -0.489   5.539  24.635  0.00  0.00    -0.328 N 
ATOM     22  C   UNL     1      -1.768   5.909  24.995  0.00  0.00    +0.231 C 
ATOM     40  H   UNL     1       0.183   6.230  24.321  0.00  0.00    +0.145 HD
ATOM     41  H   UNL     1      -0.169   4.576  24.668  0.00  0.00    +0.145 HD
ENDBRANCH  18  22
BRANCH  18  21
ATOM     21  C   UNL     1      -4.081   4.942  25.069  0.00  0.00    +0.067 C 
BRANCH  21  23
ATOM     23  C   UNL     1      -4.915   3.696  25.238  0.00  0.00    -0.045 A 
ATOM     25  C   UNL     1      -5.099   2.829  24.160  0.00  0.00    +0.004 A 
ATOM     26  C   UNL     1      -5.500   3.409  26.471  0.00  0.00    +0.004 A 
ATOM     30  C   UNL     1      -5.870   1.677  24.316  0.00  0.00    +0.000 A 
ATOM     31  C   UNL     1      -6.271   2.256  26.626  0.00  0.00    +0.000 A 
ATOM     32  C   UNL     1      -6.455   1.390  25.548  0.00  0.00    +0.000 A 
ENDBRANCH  21  23
ENDBRANCH  18  21
ENDBRANCH   9  18
ENDBRANCH  13  16
BRANCH  17  19
ATOM     19  C   UNL     1      -4.035  -1.616  24.387  0.00  0.00    +0.164 C 
BRANCH  19   1
ATOM      1  S   UNL     1      -3.318  -3.262  24.473  0.00  0.00    -0.155 S 
ATOM     27  C   UNL     1      -1.587  -2.831  24.171  0.00  0.00    +0.085 C 
ENDBRANCH  19   1
ENDBRANCH  17  19
TORSDOF 10
ENDMDL
MODEL 2
REMARK VINA RESULT:       7.1      2.428      3.681
REMARK  Name = 11882084
REMARK  12 active torsions:
REMARK  status: ('A' for Active; 'I' for Inactive)
REMARK    1  A    between atoms: S_1  and  C_19
REMARK    2  A    between atoms: S_1  and  C_27
REMARK    3  A    between atoms: O_6  and  C_33
REMARK    4  A    between atoms: O_6  and  C_36
REMARK    5  A    between atoms: N_8  and  C_12
REMARK    6  A    between atoms: N_9  and  C_18
REMARK    7  A    between atoms: N_10  and  C_24
REMARK    8  A    between atoms: C_13  and  C_16
REMARK    9  A    between atoms: C_17  and  C_19
REMARK   10  A    between atoms: C_18  and  C_21
REMARK   11  A    between atoms: C_18  and  C_22
REMARK   12  A    between atoms: C_21  and  C_23
REMARK                            x       y       z     vdW  Elec       q    Type
REMARK                         _______ _______ _______ _____ _____    ______ ____
ROOT
ATOM      3  O   UNL     1      -1.007   3.935  26.243  0.00  0.00    -0.275 OA
ATOM      7  N   UNL     1      -0.824   1.732  25.557  0.00  0.00    -0.287 N 
ATOM     12  C   UNL     1      -0.683   0.690  23.432  0.00  0.00    +0.105 C 
ATOM     13  C   UNL     1      -1.106   1.973  24.146  0.00  0.00    +0.182 C 
ATOM     14  C   UNL     1      -0.856  -0.388  24.505  0.00  0.00    +0.043 C 
ATOM     15  C   UNL     1      -0.503   0.328  25.801  0.00  0.00    +0.110 C 
ATOM     17  C   UNL     1      -0.727   2.759  26.483  0.00  0.00    +0.226 C 
ENDROOT
BRANCH  12   8
ATOM      4  O   UNL     1       1.525  -0.857  24.397  0.00  0.00    -0.252 OA
ATOM      8  N   UNL     1       0.688   0.772  22.987  0.00  0.00    -0.294 N 
ATOM     10  N   UNL     1       2.927   0.274  22.892  0.00  0.00    -0.269 N 
ATOM     20  C   UNL     1       1.711  -0.025  23.514  0.00  0.00    +0.304 C 
ATOM     37  H   UNL     1       0.910   1.389  22.211  0.00  0.00    +0.151 HD
ATOM     39  H   UNL     1       2.908   0.996  22.176  0.00  0.00    +0.156 HD
BRANCH  10  24
ATOM     24  C   UNL     1       4.193  -0.306  23.139  0.00  0.00    +0.038 A 
ATOM     28  C   UNL     1       5.355   0.420  22.879  0.00  0.00    +0.069 A 
ATOM     29  C   UNL     1       4.280  -1.605  23.639  0.00  0.00    +0.023 A 
ATOM     33  C   UNL     1       6.604  -0.152  23.121  0.00  0.00    +0.122 A 
ATOM     34  C   UNL     1       5.529  -2.176  23.882  0.00  0.00    +0.005 A 
ATOM     35  C   UNL     1       6.691  -1.451  23.622  0.00  0.00    +0.046 A 
BRANCH  33   6
ATOM      6  O   UNL     1       7.738   0.557  22.868  0.00  0.00    -0.495 OA
ATOM     36  C   UNL     1       8.981  -0.089  23.140  0.00  0.00    +0.277 C 
ENDBRANCH  33   6
ENDBRANCH  10  24
ENDBRANCH  12   8
BRANCH  13  16
ATOM      2  O   UNL     1      -3.136   2.381  22.956  0.00  0.00    -0.274 OA
ATOM      9  N   UNL     1      -3.207   2.199  25.276  0.00  0.00    -0.302 N 
ATOM     16  C   UNL     1      -2.585   2.200  24.038  0.00  0.00    +0.236 C 
ATOM     38  H   UNL     1      -2.657   1.986  26.103  0.00  0.00    +0.150 HD
BRANCH   9  18
ATOM     18  C   UNL     1      -4.625   2.418  25.447  0.00  0.00    +0.163 C 
BRANCH  18  22
ATOM      5  O   UNL     1      -4.334   4.273  23.904  0.00  0.00    -0.274 OA
ATOM     11  N   UNL     1      -6.023   4.390  25.456  0.00  0.00    -0.328 N 
ATOM     22  C   UNL     1      -4.942   3.782  24.852  0.00  0.00    +0.231 C 
ATOM     40  H   UNL     1      -6.350   5.298  25.146  0.00  0.00    +0.145 HD
ATOM     41  H   UNL     1      -6.532   3.962  26.223  0.00  0.00    +0.145 HD
ENDBRANCH  18  22
BRANCH  18  21
ATOM     21  C   UNL     1      -5.465   1.331  24.769  0.00  0.00    +0.067 C 
BRANCH  21  23
ATOM     23  C   UNL     1      -4.797  -0.023  24.791  0.00  0.00    -0.045 A 
ATOM     25  C   UNL     1      -4.797  -0.819  23.645  0.00  0.00    +0.004 A 
ATOM     26  C   UNL     1      -4.177  -0.476  25.955  0.00  0.00    +0.004 A 
ATOM     30  C   UNL     1      -4.179  -2.070  23.666  0.00  0.00    +0.000 A 
ATOM     31  C   UNL     1      -3.559  -1.727  25.975  0.00  0.00    +0.000 A 
ATOM     32  C   UNL     1      -3.560  -2.523  24.830  0.00  0.00    +0.000 A 
ENDBRANCH  21  23
ENDBRANCH  18  21
ENDBRANCH   9  18
ENDBRANCH  13  16
BRANCH  17  19
ATOM     19  C   UNL     1      -0.254   2.354  27.856  0.00  0.00    +0.164 C 
BRANCH  19   1
ATOM      1  S   UNL     1       1.483   2.795  27.991  0.00  0.00    -0.155 S 
ATOM     27  C   UNL     1       1.742   2.390  29.735  0.00  0.00    +0.085 C 
ENDBRANCH  19   1
ENDBRANCH  17  19
TORSDOF 10
ENDMDL
MODEL 3
REMARK VINA RESULT:       7.3      1.562      2.990
REMARK  Name = 11882084
REMARK  12 active torsions:
REMARK  status: ('A' for Active; 'I' for Inactive)
REMARK    1  A    between atoms: S_1  and  C_19
REMARK    2  A    between atoms: S_1  and  C_27
REMARK    3  A    between atoms: O_6  and  C_33
REMARK    4  A    between atoms: O_6  and  C_36
REMARK    5  A    between atoms: N_8  and  C_12
REMARK    6  A    between atoms: N_9  and  C_18
REMARK    7  A    between atoms: N_10  and  C_24
REMARK    8  A    between atoms: C_13  and  C_16
REMARK    9  A    between atoms: C_17  and  C_19
REMARK   10  A    between atoms: C_18  and  C_21
REMARK   11  A    between atoms: C_18  and  C_22
REMARK   12  A    between atoms: C_21  and  C_23
REMARK                            x       y       z     vdW  Elec       q    Type
REMARK                         _______ _______ _______ _____ _____    ______ ____
ROOT
ATOM      3  O   UNL     1      -3.276  -1.517  25.769  0.00  0.00    -0.275 OA
ATOM      7  N   UNL     1      -3.208  -0.292  23.806  0.00  0.00    -0.287 N 
ATOM     12  C   UNL     1      -1.859   1.506  23.050  0.00  0.00    +0.105 C 
ATOM     13  C   UNL     1      -2.332   0.766  24.300  0.00  0.00    +0.182 C 
ATOM     14  C   UNL     1      -3.000   1.284  22.052  0.00  0.00    +0.043 C 
ATOM     15  C   UNL     1      -3.512  -0.109  22.389  0.00  0.00    +0.110 C 
ATOM     17  C   UNL     1      -3.549  -1.395  24.573  0.00  0.00    +0.226 C 
ENDROOT
BRANCH  12   8
ATOM      4  O   UNL     1       0.466   0.876  24.599  0.00  0.00    -0.252 OA
ATOM      8  N   UNL     1      -0.618   0.955  22.558  0.00  0.00    -0.294 N 
ATOM     10  N   UNL     1       1.530   0.150  22.637  0.00  0.00    -0.269 N 
ATOM     20  C   UNL     1       0.474   0.675  23.388  0.00  0.00    +0.304 C 
ATOM     37  H   UNL     1      -0.557   0.697  21.578  0.00  0.00    +0.151 HD
ATOM     39  H   UNL     1       1.373   0.048  21.637  0.00  0.00    +0.156 HD
BRANCH  10  24
ATOM     24  C   UNL     1       2.803  -0.258  23.098  0.00  0.00    +0.038 A 
ATOM     28  C   UNL     1       3.866   0.646  23.099  0.00  0.00    +0.069 A 
ATOM     29  C   UNL     1       2.998  -1.563  23.548  0.00  0.00    +0.023 A 
ATOM     33  C   UNL     1       5.122   0.244  23.554  0.00  0.00    +0.122 A 
ATOM     34  C   UNL     1       4.254  -1.965  24.002  0.00  0.00    +0.005 A 
ATOM     35  C   UNL     1       5.316  -1.062  24.004  0.00  0.00    +0.046 A 
BRANCH  33   6
ATOM      6  O   UNL     1       6.160   1.125  23.556  0.00  0.00    -0.495 OA
ATOM     36  C   UNL     1       7.477   0.577  23.589  0.00  0.00    +0.277 C 
ENDBRANCH  33   6
ENDBRANCH  10  24
ENDBRANCH  12   8
BRANCH  13  16
ATOM      2  O   UNL     1      -3.154   1.555  26.398  0.00  0.00    -0.274 OA
ATOM      9  N   UNL     1      -3.963   2.515  24.438  0.00  0.00    -0.302 N 
ATOM     16  C   UNL     1      -3.176   1.645  25.173  0.00  0.00    +0.236 C 
ATOM     38  H   UNL     1      -3.860   2.537  23.428  0.00  0.00    +0.150 HD
BRANCH   9  18
ATOM     18  C   UNL     1      -4.883   3.452  25.042  0.00  0.00    +0.163 C 
BRANCH  18  22
ATOM      5  O   UNL     1      -6.050   2.680  27.028  0.00  0.00    -0.274 OA
ATOM     11  N   UNL     1      -6.718   1.881  24.980  0.00  0.00    -0.328 N 
ATOM     22  C   UNL     1      -5.914   2.637  25.807  0.00  0.00    +0.231 C 
ATOM     40  H   UNL     1      -7.457   1.301  25.362  0.00  0.00    +0.145 HD
ATOM     41  H   UNL     1      -6.609   1.874  23.971  0.00  0.00    +0.145 HD
ENDBRANCH  18  22
BRANCH  18  21
ATOM     21  C   UNL     1      -4.174   4.435  25.980  0.00  0.00    +0.067 C 
BRANCH  21  23
ATOM     23  C   UNL     1      -2.715   4.618  25.641  0.00  0.00    -0.045 A 
ATOM     25  C   UNL     1      -2.314   5.690  24.844  0.00  0.00    +0.004 A 
ATOM     26  C   UNL     1      -1.767   3.717  26.127  0.00  0.00    +0.004 A 
ATOM     30  C   UNL     1      -0.965   5.859  24.531  0.00  0.00    +0.000 A 
ATOM     31  C   UNL     1      -0.418   3.887  25.814  0.00  0.00    +0.000 A 
ATOM     32  C   UNL     1      -0.018   4.959  25.015  0.00  0.00    +0.000 A 
ENDBRANCH  21  23
ENDBRANCH  18  21
ENDBRANCH   9  18
ENDBRANCH  13  16
BRANCH  17  19
ATOM     19  C   UNL     1      -4.312  -2.478  23.853  0.00  0.00    +0.164 C 
BRANCH  19   1
ATOM      1  S   UNL     1      -3.195  -3.864  23.606  0.00  0.00    -0.155 S 
ATOM     27  C   UNL     1      -1.626  -3.020  23.922  0.00  0.00    +0.085 C 
ENDBRANCH  19   1
ENDBRANCH  17  19
TORSDOF 10
ENDMDL
MODEL 4
REMARK VINA RESULT:       8.3      1.714      2.531
REMARK  Name = 11882084
REMARK  12 active torsions:
REMARK  status: ('A' for Active; 'I' for Inactive)
REMARK    1  A    between atoms: S_1  and  C_19
REMARK    2  A    between atoms: S_1  and  C_27
REMARK    3  A    between atoms: O_6  and  C_33
REMARK    4  A    between atoms: O_6  and  C_36
REMARK    5  A    between atoms: N_8  and  C_12
REMARK    6  A    between atoms: N_9  and  C_18
REMARK    7  A    between atoms: N_10  and  C_24
REMARK    8  A    between atoms: C_13  and  C_16
REMARK    9  A    between atoms: C_17  and  C_19
REMARK   10  A    between atoms: C_18  and  C_21
REMARK   11  A    between atoms: C_18  and  C_22
REMARK   12  A    between atoms: C_21  and  C_23
REMARK                            x       y       z     vdW  Elec       q    Type
REMARK                         _______ _______ _______ _____ _____    ______ ____
ROOT
ATOM      3  O   UNL     1      -1.443  -0.345  26.205  0.00  0.00    -0.275 OA
ATOM      7  N   UNL     1      -0.292  -0.320  24.197  0.00  0.00    -0.287 N 
ATOM     12  C   UNL     1       1.440   1.045  23.324  0.00  0.00    +0.105 C 
ATOM     13  C   UNL     1       0.340   0.982  24.383  0.00  0.00    +0.182 C 
ATOM     14  C   UNL     1       0.915   0.133  22.211  0.00  0.00    +0.043 C 
ATOM     15  C   UNL     1       0.156  -0.954  22.959  0.00  0.00    +0.110 C 
ATOM     17  C   UNL     1      -1.082  -0.910  25.171  0.00  0.00    +0.226 C 
ENDROOT
BRANCH  12   8
ATOM      4  O   UNL     1       3.958   0.981  21.960  0.00  0.00    -0.252 OA
ATOM      8  N   UNL     1       2.695   0.561  23.851  0.00  0.00    -0.294 N 
ATOM     10  N   UNL     1       4.930   0.041  23.879  0.00  0.00    -0.269 N 
ATOM     20  C   UNL     1       3.885   0.566  23.114  0.00  0.00    +0.304 C 
ATOM     37  H   UNL     1       2.731   0.264  24.821  0.00  0.00    +0.151 HD
ATOM     39  H   UNL     1       4.699  -0.261  24.822  0.00  0.00    +0.156 HD
BRANCH  10  24
ATOM     24  C   UNL     1       6.282  -0.126  23.501  0.00  0.00    +0.038 A 
ATOM     28  C   UNL     1       7.261   0.723  24.019  0.00  0.00    +0.069 A 
ATOM     29  C   UNL     1       6.639  -1.137  22.609  0.00  0.00    +0.023 A 
ATOM     33  C   UNL     1       8.595   0.558  23.646  0.00  0.00    +0.122 A 
ATOM     34  C   UNL     1       7.973  -1.301  22.236  0.00  0.00    +0.005 A 
ATOM     35  C   UNL     1       8.951  -0.453  22.754  0.00  0.00    +0.046 A 
BRANCH  33   6
ATOM      6  O   UNL     1       9.551   1.387  24.151  0.00  0.00    -0.495 OA
ATOM     36  C   UNL     1       9.903   2.525  23.367  0.00  0.00    +0.277 C 
ENDBRANCH  33   6
ENDBRANCH  10  24
ENDBRANCH  12   8
BRANCH  13  16
ATOM      2  O   UNL     1      -1.258   2.138  23.036  0.00  0.00    -0.274 OA
ATOM      9  N   UNL     1      -0.982   2.779  25.257  0.00  0.00    -0.302 N 
ATOM     16  C   UNL     1      -0.721   2.011  24.134  0.00  0.00    +0.236 C 
ATOM     38  H   UNL     1      -0.513   2.551  26.129  0.00  0.00    +0.150 HD
BRANCH   9  18
ATOM     18  C   UNL     1      -1.948   3.854  25.273  0.00  0.00    +0.163 C 
BRANCH  18  22
ATOM      5  O   UNL     1      -0.016   5.169  24.607  0.00  0.00    -0.274 OA
ATOM     11  N   UNL     1      -1.991   6.259  25.041  0.00  0.00    -0.328 N 
ATOM     22  C   UNL     1      -1.195   5.137  24.953  0.00  0.00    +0.231 C 
ATOM     40  H   UNL     1      -1.616   7.180  24.839  0.00  0.00    +0.145 HD
ATOM     41  H   UNL     1      -2.969   6.215  25.305  0.00  0.00    +0.145 HD
ENDBRANCH  18  22
BRANCH  18  21
ATOM     21  C   UNL     1      -3.078   3.632  24.263  0.00  0.00    +0.067 C 
BRANCH  21  23
ATOM     23  C   UNL     1      -4.211   2.808  24.825  0.00  0.00    -0.045 A 
ATOM     25  C   UNL     1      -5.174   3.410  25.637  0.00  0.00    +0.004 A 
ATOM     26  C   UNL     1      -4.297   1.448  24.532  0.00  0.00    +0.004 A 
ATOM     30  C   UNL     1      -6.221   2.648  26.156  0.00  0.00    +0.000 A 
ATOM     31  C   UNL     1      -5.345   0.687  25.052  0.00  0.00    +0.000 A 
ATOM     32  C   UNL     1      -6.307   1.288  25.864  0.00  0.00    +0.000 A 
ENDBRANCH  21  23
ENDBRANCH  18  21
ENDBRANCH   9  18
ENDBRANCH  13  16
BRANCH  17  19
ATOM     19  C   UNL     1      -1.509  -2.329  24.891  0.00  0.00    +0.164 C 
BRANCH  19   1
ATOM      1  S   UNL     1      -3.228  -2.494  25.392  0.00  0.00    -0.155 S 
ATOM     27  C   UNL     1      -4.002  -2.454  23.757  0.00  0.00    +0.085 C 
ENDBRANCH  19   1
ENDBRANCH  17  19
TORSDOF 10
ENDMDL
MODEL 5
REMARK VINA RESULT:       8.5      1.760      3.212
REMARK  Name = 11882084
REMARK  12 active torsions:
REMARK  status: ('A' for Active; 'I' for Inactive)
REMARK    1  A    between atoms: S_1  and  C_19
REMARK    2  A    between atoms: S_1  and  C_27
REMARK    3  A    between atoms: O_6  and  C_33
REMARK    4  A    between atoms: O_6  and  C_36
REMARK    5  A    between atoms: N_8  and  C_12
REMARK    6  A    between atoms: N_9  and  C_18
REMARK    7  A    between atoms: N_10  and  C_24
REMARK    8  A    between atoms: C_13  and  C_16
REMARK    9  A    between atoms: C_17  and  C_19
REMARK   10  A    between atoms: C_18  and  C_21
REMARK   11  A    between atoms: C_18  and  C_22
REMARK   12  A    between atoms: C_21  and  C_23
REMARK                            x       y       z     vdW  Elec       q    Type
REMARK                         _______ _______ _______ _____ _____    ______ ____
ROOT
ATOM      3  O   UNL     1      -2.567  -0.515  26.123  0.00  0.00    -0.275 OA
ATOM      7  N   UNL     1      -1.448  -0.421  24.099  0.00  0.00    -0.287 N 
ATOM     12  C   UNL     1      -0.213   1.275  22.994  0.00  0.00    +0.105 C 
ATOM     13  C   UNL     1      -1.256   1.026  24.082  0.00  0.00    +0.182 C 
ATOM     14  C   UNL     1      -0.410   0.097  22.036  0.00  0.00    +0.043 C 
ATOM     15  C   UNL     1      -0.805  -1.054  22.950  0.00  0.00    +0.110 C 
ATOM     17  C   UNL     1      -2.032  -1.082  25.169  0.00  0.00    +0.226 C 
ENDROOT
BRANCH  12   8
ATOM      4  O   UNL     1       1.947  -0.465  22.282  0.00  0.00    -0.252 OA
ATOM      8  N   UNL     1       1.121   1.285  23.547  0.00  0.00    -0.294 N 
ATOM     10  N   UNL     1       3.304   0.641  23.845  0.00  0.00    -0.269 N 
ATOM     20  C   UNL     1       2.123   0.396  23.140  0.00  0.00    +0.304 C 
ATOM     37  H   UNL     1       1.364   2.011  24.213  0.00  0.00    +0.151 HD
ATOM     39  H   UNL     1       3.280   1.396  24.527  0.00  0.00    +0.156 HD
BRANCH  10  24
ATOM     24  C   UNL     1       4.540  -0.035  23.730  0.00  0.00    +0.038 A 
ATOM     28  C   UNL     1       5.713   0.689  23.512  0.00  0.00    +0.069 A 
ATOM     29  C   UNL     1       4.588  -1.425  23.830  0.00  0.00    +0.023 A 
ATOM     33  C   UNL     1       6.933   0.021  23.398  0.00  0.00    +0.122 A 
ATOM     34  C   UNL     1       5.807  -2.092  23.715  0.00  0.00    +0.005 A 
ATOM     35  C   UNL     1       6.979  -1.369  23.498  0.00  0.00    +0.046 A 
BRANCH  33   6
ATOM      6  O   UNL     1       8.078   0.727  23.186  0.00  0.00    -0.495 OA
ATOM     36  C   UNL     1       9.301  -0.008  23.178  0.00  0.00    +0.277 C 
ENDBRANCH  33   6
ENDBRANCH  10  24
ENDBRANCH  12   8
BRANCH  13  16
ATOM      2  O   UNL     1      -2.844   1.978  22.574  0.00  0.00    -0.274 OA
ATOM      9  N   UNL     1      -3.418   1.750  24.818  0.00  0.00    -0.302 N 
ATOM     16  C   UNL     1      -2.581   1.628  23.721  0.00  0.00    +0.236 C 
ATOM     38  H   UNL     1      -3.114   1.378  25.713  0.00  0.00    +0.150 HD
BRANCH   9  18
ATOM     18  C   UNL     1      -4.744   2.321  24.741  0.00  0.00    +0.163 C 
BRANCH  18  22
ATOM      5  O   UNL     1      -5.619   0.423  25.980  0.00  0.00    -0.274 OA
ATOM     11  N   UNL     1      -6.274   2.536  26.599  0.00  0.00    -0.328 N 
ATOM     22  C   UNL     1      -5.588   1.639  25.808  0.00  0.00    +0.231 C 
ATOM     40  H   UNL     1      -6.865   2.214  27.358  0.00  0.00    +0.145 HD
ATOM     41  H   UNL     1      -6.220   3.539  26.460  0.00  0.00    +0.145 HD
ENDBRANCH  18  22
BRANCH  18  21
ATOM     21  C   UNL     1      -4.733   3.838  24.957  0.00  0.00    +0.067 C 
BRANCH  21  23
ATOM     23  C   UNL     1      -3.340   4.418  24.961  0.00  0.00    -0.045 A 
ATOM     25  C   UNL     1      -3.029   5.492  24.127  0.00  0.00    +0.004 A 
ATOM     26  C   UNL     1      -2.364   3.883  25.801  0.00  0.00    +0.004 A 
ATOM     30  C   UNL     1      -1.741   6.029  24.131  0.00  0.00    +0.000 A 
ATOM     31  C   UNL     1      -1.076   4.419  25.805  0.00  0.00    +0.000 A 
ATOM     32  C   UNL     1      -0.765   5.493  24.970  0.00  0.00    +0.000 A 
ENDBRANCH  21  23
ENDBRANCH  18  21
ENDBRANCH   9  18
ENDBRANCH  13  16
BRANCH  17  19
ATOM     19  C   UNL     1      -1.991  -2.588  25.103  0.00  0.00    +0.164 C 
BRANCH  19   1
ATOM      1  S   UNL     1      -3.659  -3.168  24.767  0.00  0.00    -0.155 S 
ATOM     27  C   UNL     1      -4.220  -1.812  23.708  0.00  0.00    +0.085 C 
ENDBRANCH  19   1
ENDBRANCH  17  19
TORSDOF 10
ENDMDL
MODEL 6
REMARK VINA RESULT:       8.5      3.711      6.126
REMARK  Name = 11882084
REMARK  12 active torsions:
REMARK  status: ('A' for Active; 'I' for Inactive)
REMARK    1  A    between atoms: S_1  and  C_19
REMARK    2  A    between atoms: S_1  and  C_27
REMARK    3  A    between atoms: O_6  and  C_33
REMARK    4  A    between atoms: O_6  and  C_36
REMARK    5  A    between atoms: N_8  and  C_12
REMARK    6  A    between atoms: N_9  and  C_18
REMARK    7  A    between atoms: N_10  and  C_24
REMARK    8  A    between atoms: C_13  and  C_16
REMARK    9  A    between atoms: C_17  and  C_19
REMARK   10  A    between atoms: C_18  and  C_21
REMARK   11  A    between atoms: C_18  and  C_22
REMARK   12  A    between atoms: C_21  and  C_23
REMARK                            x       y       z     vdW  Elec       q    Type
REMARK                         _______ _______ _______ _____ _____    ______ ____
ROOT
ATOM      3  O   UNL     1       0.512  -1.016  23.786  0.00  0.00    -0.275 OA
ATOM      7  N   UNL     1       0.249   1.259  23.447  0.00  0.00    -0.287 N 
ATOM     12  C   UNL     1      -1.027   2.934  24.537  0.00  0.00    +0.105 C 
ATOM     13  C   UNL     1      -0.903   1.426  24.328  0.00  0.00    +0.182 C 
ATOM     14  C   UNL     1      -0.420   3.521  23.260  0.00  0.00    +0.043 C 
ATOM     15  C   UNL     1       0.685   2.540  22.897  0.00  0.00    +0.110 C 
ATOM     17  C   UNL     1       0.909   0.048  23.307  0.00  0.00    +0.226 C 
ENDROOT
BRANCH  12   8
ATOM      4  O   UNL     1      -0.079   1.263  26.661  0.00  0.00    -0.252 OA
ATOM      8  N   UNL     1      -0.296   3.358  25.708  0.00  0.00    -0.294 N 
ATOM     10  N   UNL     1       0.813   3.164  27.709  0.00  0.00    -0.269 N 
ATOM     20  C   UNL     1       0.133   2.471  26.703  0.00  0.00    +0.304 C 
ATOM     37  H   UNL     1      -0.022   4.333  25.782  0.00  0.00    +0.151 HD
ATOM     39  H   UNL     1       0.901   4.170  27.590  0.00  0.00    +0.156 HD
BRANCH  10  24
ATOM     24  C   UNL     1       1.398   2.635  28.882  0.00  0.00    +0.038 A 
ATOM     28  C   UNL     1       0.647   2.543  30.055  0.00  0.00    +0.069 A 
ATOM     29  C   UNL     1       2.726   2.208  28.870  0.00  0.00    +0.023 A 
ATOM     33  C   UNL     1       1.225   2.022  31.213  0.00  0.00    +0.122 A 
ATOM     34  C   UNL     1       3.302   1.688  30.028  0.00  0.00    +0.005 A 
ATOM     35  C   UNL     1       2.552   1.596  31.199  0.00  0.00    +0.046 A 
BRANCH  33   6
ATOM      6  O   UNL     1       0.492   1.932  32.357  0.00  0.00    -0.495 OA
ATOM     36  C   UNL     1      -0.066   3.142  32.867  0.00  0.00    +0.277 C 
ENDBRANCH  33   6
ENDBRANCH  10  24
ENDBRANCH  12   8
BRANCH  13  16
ATOM      2  O   UNL     1      -2.309   1.153  22.418  0.00  0.00    -0.274 OA
ATOM      9  N   UNL     1      -2.871   0.061  24.395  0.00  0.00    -0.302 N 
ATOM     16  C   UNL     1      -2.087   0.873  23.593  0.00  0.00    +0.236 C 
ATOM     38  H   UNL     1      -2.561  -0.142  25.341  0.00  0.00    +0.150 HD
BRANCH   9  18
ATOM     18  C   UNL     1      -4.082  -0.576  23.931  0.00  0.00    +0.163 C 
BRANCH  18  22
ATOM      5  O   UNL     1      -4.399  -2.948  23.509  0.00  0.00    -0.274 OA
ATOM     11  N   UNL     1      -3.226  -2.312  25.379  0.00  0.00    -0.328 N 
ATOM     22  C   UNL     1      -3.951  -2.062  24.232  0.00  0.00    +0.231 C 
ATOM     40  H   UNL     1      -3.052  -3.262  25.687  0.00  0.00    +0.145 HD
ATOM     41  H   UNL     1      -2.842  -1.569  25.954  0.00  0.00    +0.145 HD
ENDBRANCH  18  22
BRANCH  18  21
ATOM     21  C   UNL     1      -5.333  -0.003  24.606  0.00  0.00    +0.067 C 
BRANCH  21  23
ATOM     23  C   UNL     1      -5.226   1.479  24.872  0.00  0.00    -0.045 A 
ATOM     25  C   UNL     1      -5.738   2.014  26.055  0.00  0.00    +0.004 A 
ATOM     26  C   UNL     1      -4.614   2.314  23.937  0.00  0.00    +0.004 A 
ATOM     30  C   UNL     1      -5.638   3.384  26.301  0.00  0.00    +0.000 A 
ATOM     31  C   UNL     1      -4.515   3.684  24.183  0.00  0.00    +0.000 A 
ATOM     32  C   UNL     1      -5.028   4.218  25.366  0.00  0.00    +0.000 A 
ENDBRANCH  21  23
ENDBRANCH  18  21
ENDBRANCH   9  18
ENDBRANCH  13  16
BRANCH  17  19
ATOM     19  C   UNL     1       2.182   0.091  22.500  0.00  0.00    +0.164 C 
BRANCH  19   1
ATOM      1  S   UNL     1       3.476  -0.690  23.474  0.00  0.00    -0.155 S 
ATOM     27  C   UNL     1       4.822   0.470  23.133  0.00  0.00    +0.085 C 
ENDBRANCH  19   1
ENDBRANCH  17  19
TORSDOF 10
ENDMDL
MODEL 7
REMARK VINA RESULT:       9.1      2.308      4.386
REMARK  Name = 11882084
REMARK  12 active torsions:
REMARK  status: ('A' for Active; 'I' for Inactive)
REMARK    1  A    between atoms: S_1  and  C_19
REMARK    2  A    between atoms: S_1  and  C_27
REMARK    3  A    between atoms: O_6  and  C_33
REMARK    4  A    between atoms: O_6  and  C_36
REMARK    5  A    between atoms: N_8  and  C_12
REMARK    6  A    between atoms: N_9  and  C_18
REMARK    7  A    between atoms: N_10  and  C_24
REMARK    8  A    between atoms: C_13  and  C_16
REMARK    9  A    between atoms: C_17  and  C_19
REMARK   10  A    between atoms: C_18  and  C_21
REMARK   11  A    between atoms: C_18  and  C_22
REMARK   12  A    between atoms: C_21  and  C_23
REMARK                            x       y       z     vdW  Elec       q    Type
REMARK                         _______ _______ _______ _____ _____    ______ ____
ROOT
ATOM      3  O   UNL     1      -2.626   4.641  23.337  0.00  0.00    -0.275 OA
ATOM      7  N   UNL     1      -1.659   3.016  24.673  0.00  0.00    -0.287 N 
ATOM     12  C   UNL     1      -0.867   0.820  24.258  0.00  0.00    +0.105 C 
ATOM     13  C   UNL     1      -1.776   1.922  23.715  0.00  0.00    +0.182 C 
ATOM     14  C   UNL     1      -0.862   1.074  25.768  0.00  0.00    +0.043 C 
ATOM     15  C   UNL     1      -0.959   2.589  25.882  0.00  0.00    +0.110 C 
ATOM     17  C   UNL     1      -2.034   4.316  24.368  0.00  0.00    +0.226 C 
ENDROOT
BRANCH  12   8
ATOM      4  O   UNL     1       1.338  -0.939  24.755  0.00  0.00    -0.252 OA
ATOM      8  N   UNL     1       0.463   0.925  23.704  0.00  0.00    -0.294 N 
ATOM     10  N   UNL     1       2.657   0.370  23.321  0.00  0.00    -0.269 N 
ATOM     20  C   UNL     1       1.487   0.018  24.000  0.00  0.00    +0.304 C 
ATOM     37  H   UNL     1       0.646   1.651  23.018  0.00  0.00    +0.151 HD
ATOM     39  H   UNL     1       2.611   1.198  22.732  0.00  0.00    +0.156 HD
BRANCH  10  24
ATOM     24  C   UNL     1       3.909  -0.286  23.353  0.00  0.00    +0.038 A 
ATOM     28  C   UNL     1       5.079   0.433  23.105  0.00  0.00    +0.069 A 
ATOM     29  C   UNL     1       3.976  -1.651  23.629  0.00  0.00    +0.023 A 
ATOM     33  C   UNL     1       6.315  -0.214  23.135  0.00  0.00    +0.122 A 
ATOM     34  C   UNL     1       5.211  -2.298  23.659  0.00  0.00    +0.005 A 
ATOM     35  C   UNL     1       6.380  -1.580  23.412  0.00  0.00    +0.046 A 
BRANCH  33   6
ATOM      6  O   UNL     1       7.457   0.487  22.894  0.00  0.00    -0.495 OA
ATOM     36  C   UNL     1       8.692  -0.207  23.061  0.00  0.00    +0.277 C 
ENDBRANCH  33   6
ENDBRANCH  10  24
ENDBRANCH  12   8
BRANCH  13  16
ATOM      2  O   UNL     1      -3.828   1.269  22.682  0.00  0.00    -0.274 OA
ATOM      9  N   UNL     1      -3.736   1.434  25.003  0.00  0.00    -0.302 N 
ATOM     16  C   UNL     1      -3.215   1.500  23.721  0.00  0.00    +0.236 C 
ATOM     38  H   UNL     1      -3.120   1.597  25.794  0.00  0.00    +0.150 HD
BRANCH   9  18
ATOM     18  C   UNL     1      -5.108   1.073  25.280  0.00  0.00    +0.163 C 
BRANCH  18  22
ATOM      5  O   UNL     1      -5.571   3.404  24.774  0.00  0.00    -0.274 OA
ATOM     11  N   UNL     1      -7.253   1.864  24.495  0.00  0.00    -0.328 N 
ATOM     22  C   UNL     1      -5.975   2.246  24.848  0.00  0.00    +0.231 C 
ATOM     40  H   UNL     1      -7.930   2.547  24.175  0.00  0.00    +0.145 HD
ATOM     41  H   UNL     1      -7.566   0.900  24.539  0.00  0.00    +0.145 HD
ENDBRANCH  18  22
BRANCH  18  21
ATOM     21  C   UNL     1      -5.531  -0.204  24.546  0.00  0.00    +0.067 C 
BRANCH  21  23
ATOM     23  C   UNL     1      -4.467  -1.274  24.575  0.00  0.00    -0.045 A 
ATOM     25  C   UNL     1      -4.367  -2.186  23.523  0.00  0.00    +0.004 A 
ATOM     26  C   UNL     1      -3.582  -1.350  25.650  0.00  0.00    +0.004 A 
ATOM     30  C   UNL     1      -3.383  -3.175  23.550  0.00  0.00    +0.000 A 
ATOM     31  C   UNL     1      -2.598  -2.339  25.676  0.00  0.00    +0.000 A 
ATOM     32  C   UNL     1      -2.500  -3.251  24.625  0.00  0.00    +0.000 A 
ENDBRANCH  21  23
ENDBRANCH  18  21
ENDBRANCH   9  18
ENDBRANCH  13  16
BRANCH  17  19
ATOM     19  C   UNL     1      -1.682   5.353  25.404  0.00  0.00    +0.164 C 
BRANCH  19   1
ATOM      1  S   UNL     1      -3.180   5.750  26.315  0.00  0.00    -0.155 S 
ATOM     27  C   UNL     1      -3.442   4.156  27.131  0.00  0.00    +0.085 C 
ENDBRANCH  19   1
ENDBRANCH  17  19
TORSDOF 10
ENDMDL
MODEL 8
REMARK VINA RESULT:       9.8      2.287      4.104
REMARK  Name = 11882084
REMARK  12 active torsions:
REMARK  status: ('A' for Active; 'I' for Inactive)
REMARK    1  A    between atoms: S_1  and  C_19
REMARK    2  A    between atoms: S_1  and  C_27
REMARK    3  A    between atoms: O_6  and  C_33
REMARK    4  A    between atoms: O_6  and  C_36
REMARK    5  A    between atoms: N_8  and  C_12
REMARK    6  A    between atoms: N_9  and  C_18
REMARK    7  A    between atoms: N_10  and  C_24
REMARK    8  A    between atoms: C_13  and  C_16
REMARK    9  A    between atoms: C_17  and  C_19
REMARK   10  A    between atoms: C_18  and  C_21
REMARK   11  A    between atoms: C_18  and  C_22
REMARK   12  A    between atoms: C_21  and  C_23
REMARK                            x       y       z     vdW  Elec       q    Type
REMARK                         _______ _______ _______ _____ _____    ______ ____
ROOT
ATOM      3  O   UNL     1      -1.903   2.711  24.653  0.00  0.00    -0.275 OA
ATOM      7  N   UNL     1      -1.744   0.557  25.487  0.00  0.00    -0.287 N 
ATOM     12  C   UNL     1      -1.662  -1.584  24.471  0.00  0.00    +0.105 C 
ATOM     13  C   UNL     1      -2.063  -0.128  24.238  0.00  0.00    +0.182 C 
ATOM     14  C   UNL     1      -1.809  -1.756  25.986  0.00  0.00    +0.043 C 
ATOM     15  C   UNL     1      -1.418  -0.395  26.546  0.00  0.00    +0.110 C 
ATOM     17  C   UNL     1      -1.619   1.936  25.568  0.00  0.00    +0.226 C 
ENDROOT
BRANCH  12   8
ATOM      4  O   UNL     1       0.395   0.380  24.133  0.00  0.00    -0.252 OA
ATOM      8  N   UNL     1      -0.303  -1.823  24.045  0.00  0.00    -0.294 N 
ATOM     10  N   UNL     1       1.867  -1.328  23.482  0.00  0.00    -0.269 N 
ATOM     20  C   UNL     1       0.644  -0.801  23.906  0.00  0.00    +0.304 C 
ATOM     37  H   UNL     1      -0.001  -2.782  23.904  0.00  0.00    +0.151 HD
ATOM     39  H   UNL     1       1.904  -2.335  23.338  0.00  0.00    +0.156 HD
BRANCH  10  24
ATOM     24  C   UNL     1       3.070  -0.631  23.225  0.00  0.00    +0.038 A 
ATOM     28  C   UNL     1       4.283  -1.140  23.689  0.00  0.00    +0.069 A 
ATOM     29  C   UNL     1       3.044   0.566  22.510  0.00  0.00    +0.023 A 
ATOM     33  C   UNL     1       5.470  -0.452  23.435  0.00  0.00    +0.122 A 
ATOM     34  C   UNL     1       4.231   1.253  22.257  0.00  0.00    +0.005 A 
ATOM     35  C   UNL     1       5.444   0.745  22.720  0.00  0.00    +0.046 A 
BRANCH  33   6
ATOM      6  O   UNL     1       6.655  -0.949  23.888  0.00  0.00    -0.495 OA
ATOM     36  C   UNL     1       7.817  -0.665  23.111  0.00  0.00    +0.277 C 
ENDBRANCH  33   6
ENDBRANCH  10  24
ENDBRANCH  12   8
BRANCH  13  16
ATOM      2  O   UNL     1      -4.176  -0.757  23.319  0.00  0.00    -0.274 OA
ATOM      9  N   UNL     1      -4.067   1.085  24.740  0.00  0.00    -0.302 N 
ATOM     16  C   UNL     1      -3.543   0.009  24.042  0.00  0.00    +0.236 C 
ATOM     38  H   UNL     1      -3.457   1.620  25.349  0.00  0.00    +0.150 HD
BRANCH   9  18
ATOM     18  C   UNL     1      -5.466   1.447  24.700  0.00  0.00    +0.163 C 
BRANCH  18  22
ATOM      5  O   UNL     1      -5.615   0.344  26.860  0.00  0.00    -0.274 OA
ATOM     11  N   UNL     1      -7.021   2.109  26.427  0.00  0.00    -0.328 N 
ATOM     22  C   UNL     1      -6.029   1.211  26.093  0.00  0.00    +0.231 C 
ATOM     40  H   UNL     1      -7.473   2.071  27.334  0.00  0.00    +0.145 HD
ATOM     41  H   UNL     1      -7.337   2.835  25.792  0.00  0.00    +0.145 HD
ENDBRANCH  18  22
BRANCH  18  21
ATOM     21  C   UNL     1      -5.674   2.906  24.279  0.00  0.00    +0.067 C 
BRANCH  21  23
ATOM     23  C   UNL     1      -4.563   3.814  24.748  0.00  0.00    -0.045 A 
ATOM     25  C   UNL     1      -4.361   4.020  26.114  0.00  0.00    +0.004 A 
ATOM     26  C   UNL     1      -3.737   4.444  23.818  0.00  0.00    +0.004 A 
ATOM     30  C   UNL     1      -3.334   4.859  26.547  0.00  0.00    +0.000 A 
ATOM     31  C   UNL     1      -2.709   5.282  24.252  0.00  0.00    +0.000 A 
ATOM     32  C   UNL     1      -2.509   5.489  25.617  0.00  0.00    +0.000 A 
ENDBRANCH  21  23
ENDBRANCH  18  21
ENDBRANCH   9  18
ENDBRANCH  13  16
BRANCH  17  19
ATOM     19  C   UNL     1      -1.110   2.466  26.884  0.00  0.00    +0.164 C 
BRANCH  19   1
ATOM      1  S   UNL     1       0.662   2.723  26.724  0.00  0.00    -0.155 S 
ATOM     27  C   UNL     1       1.140   2.462  28.450  0.00  0.00    +0.085 C 
ENDBRANCH  19   1
ENDBRANCH  17  19
TORSDOF 10
ENDMDL
MODEL 9
REMARK VINA RESULT:       9.9      3.750      5.782
REMARK  Name = 11882084
REMARK  12 active torsions:
REMARK  status: ('A' for Active; 'I' for Inactive)
REMARK    1  A    between atoms: S_1  and  C_19
REMARK    2  A    between atoms: S_1  and  C_27
REMARK    3  A    between atoms: O_6  and  C_33
REMARK    4  A    between atoms: O_6  and  C_36
REMARK    5  A    between atoms: N_8  and  C_12
REMARK    6  A    between atoms: N_9  and  C_18
REMARK    7  A    between atoms: N_10  and  C_24
REMARK    8  A    between atoms: C_13  and  C_16
REMARK    9  A    between atoms: C_17  and  C_19
REMARK   10  A    between atoms: C_18  and  C_21
REMARK   11  A    between atoms: C_18  and  C_22
REMARK   12  A    between atoms: C_21  and  C_23
REMARK                            x       y       z     vdW  Elec       q    Type
REMARK                         _______ _______ _______ _____ _____    ______ ____
ROOT
ATOM      3  O   UNL     1      -0.738  -0.798  24.067  0.00  0.00    -0.275 OA
ATOM      7  N   UNL     1      -0.739   1.479  23.648  0.00  0.00    -0.287 N 
ATOM     12  C   UNL     1      -1.465   3.366  24.888  0.00  0.00    +0.105 C 
ATOM     13  C   UNL     1      -1.614   1.851  24.756  0.00  0.00    +0.182 C 
ATOM     14  C   UNL     1      -1.096   3.812  23.470  0.00  0.00    +0.043 C 
ATOM     15  C   UNL     1      -0.262   2.659  22.930  0.00  0.00    +0.110 C 
ATOM     17  C   UNL     1      -0.314   0.176  23.442  0.00  0.00    +0.226 C 
ENDROOT
BRANCH  12   8
ATOM      4  O   UNL     1      -0.345   1.651  26.889  0.00  0.00    -0.252 OA
ATOM      8  N   UNL     1      -0.425   3.705  25.831  0.00  0.00    -0.294 N 
ATOM     10  N   UNL     1       1.065   3.406  27.551  0.00  0.00    -0.269 N 
ATOM     20  C   UNL     1       0.068   2.802  26.780  0.00  0.00    +0.304 C 
ATOM     37  H   UNL     1       0.015   4.617  25.760  0.00  0.00    +0.151 HD
ATOM     39  H   UNL     1       1.289   4.374  27.331  0.00  0.00    +0.156 HD
BRANCH  10  24
ATOM     24  C   UNL     1       1.808   2.836  28.610  0.00  0.00    +0.038 A 
ATOM     28  C   UNL     1       1.176   2.513  29.811  0.00  0.00    +0.069 A 
ATOM     29  C   UNL     1       3.174   2.597  28.456  0.00  0.00    +0.023 A 
ATOM     33  C   UNL     1       1.909   1.950  30.856  0.00  0.00    +0.122 A 
ATOM     34  C   UNL     1       3.906   2.034  29.501  0.00  0.00    +0.005 A 
ATOM     35  C   UNL     1       3.274   1.712  30.701  0.00  0.00    +0.046 A 
BRANCH  33   6
ATOM      6  O   UNL     1       1.292   1.636  32.029  0.00  0.00    -0.495 OA
ATOM     36  C   UNL     1       0.194   2.457  32.425  0.00  0.00    +0.277 C 
ENDBRANCH  33   6
ENDBRANCH  10  24
ENDBRANCH  12   8
BRANCH  13  16
ATOM      2  O   UNL     1      -3.325   1.348  23.167  0.00  0.00    -0.274 OA
ATOM      9  N   UNL     1      -3.846   1.306  25.436  0.00  0.00    -0.302 N 
ATOM     16  C   UNL     1      -3.006   1.470  24.347  0.00  0.00    +0.236 C 
ATOM     38  H   UNL     1      -3.459   1.381  26.372  0.00  0.00    +0.150 HD
BRANCH   9  18
ATOM     18  C   UNL     1      -5.244   0.960  25.311  0.00  0.00    +0.163 C 
BRANCH  18  22
ATOM      5  O   UNL     1      -5.481   3.349  24.939  0.00  0.00    -0.274 OA
ATOM     11  N   UNL     1      -7.273   1.985  24.492  0.00  0.00    -0.328 N 
ATOM     22  C   UNL     1      -5.986   2.229  24.921  0.00  0.00    +0.231 C 
ATOM     40  H   UNL     1      -7.874   2.744  24.190  0.00  0.00    +0.145 HD
ATOM     41  H   UNL     1      -7.670   1.051  24.461  0.00  0.00    +0.145 HD
ENDBRANCH  18  22
BRANCH  18  21
ATOM     21  C   UNL     1      -5.477  -0.138  24.267  0.00  0.00    +0.067 C 
BRANCH  21  23
ATOM     23  C   UNL     1      -4.538  -1.309  24.430  0.00  0.00    -0.045 A 
ATOM     25  C   UNL     1      -4.414  -2.250  23.408  0.00  0.00    +0.004 A 
ATOM     26  C   UNL     1      -3.794  -1.448  25.601  0.00  0.00    +0.004 A 
ATOM     30  C   UNL     1      -3.546  -3.332  23.559  0.00  0.00    +0.000 A 
ATOM     31  C   UNL     1      -2.926  -2.531  25.752  0.00  0.00    +0.000 A 
ATOM     32  C   UNL     1      -2.803  -3.472  24.730  0.00  0.00    +0.000 A 
ENDBRANCH  21  23
ENDBRANCH  18  21
ENDBRANCH   9  18
ENDBRANCH  13  16
BRANCH  17  19
ATOM     19  C   UNL     1       0.726  -0.005  22.365  0.00  0.00    +0.164 C 
BRANCH  19   1
ATOM      1  S   UNL     1       2.265  -0.483  23.163  0.00  0.00    -0.155 S 
ATOM     27  C   UNL     1       3.319   0.862  22.569  0.00  0.00    +0.085 C 
ENDBRANCH  19   1
ENDBRANCH  17  19
TORSDOF 10
ENDMDL
