MODEL 1
REMARK VINA RESULT:      17.9      0.000      0.000
REMARK  Name = 11866256
REMARK  5 active torsions:
REMARK  status: ('A' for Active; 'I' for Inactive)
REMARK    1  A    between atoms: S_4  and  N_10
REMARK    2  A    between atoms: S_4  and  C_27
REMARK    3  A    between atoms: C_12  and  C_20
REMARK    4  A    between atoms: C_17  and  C_24
REMARK    5  A    between atoms: C_19  and  C_25
REMARK                            x       y       z     vdW  Elec       q    Type
REMARK                         _______ _______ _______ _____ _____    ______ ____
ROOT
ATOM      3  S   UNL     1      -3.141  -0.843  25.983  0.00  0.00    -0.056 S 
ATOM      5  O   UNL     1       2.747   1.772  23.493  0.00  0.00    -0.461 OA
ATOM      6  O   UNL     1       4.838   2.559  22.949  0.00  0.00    -0.251 OA
ATOM      9  N   UNL     1      -2.540   1.556  25.226  0.00  0.00    -0.228 NA
ATOM     10  N   UNL     1      -4.725   1.419  26.266  0.00  0.00    -0.194 N 
ATOM     11  C   UNL     1       0.896   0.211  24.189  0.00  0.00    +0.045 C 
ATOM     12  C   UNL     1       0.356  -1.248  23.856  0.00  0.00    -0.021 C 
ATOM     13  C   UNL     1       2.057   0.548  23.239  0.00  0.00    +0.184 C 
ATOM     14  C   UNL     1       3.170  -0.472  23.386  0.00  0.00    +0.044 C 
ATOM     15  C   UNL     1       1.529  -2.277  23.836  0.00  0.00    +0.008 C 
ATOM     16  C   UNL     1       2.717  -1.854  22.959  0.00  0.00    +0.008 C 
ATOM     17  C   UNL     1      -0.247   1.288  24.211  0.00  0.00    +0.043 C 
ATOM     18  C   UNL     1      -0.654  -1.684  24.962  0.00  0.00    +0.051 C 
ATOM     19  C   UNL     1       4.274   0.205  22.598  0.00  0.00    +0.101 C 
ATOM     20  C   UNL     1      -0.357  -1.309  22.478  0.00  0.00    +0.012 C 
ATOM     21  C   UNL     1      -1.468   0.741  24.908  0.00  0.00    +0.057 A 
ATOM     22  C   UNL     1      -1.636  -0.593  25.227  0.00  0.00    +0.015 A 
ATOM     23  C   UNL     1       4.035   1.643  23.018  0.00  0.00    +0.311 C 
ATOM     24  C   UNL     1       0.197   2.601  24.869  0.00  0.00    +0.014 C 
ATOM     25  C   UNL     1       5.662  -0.288  22.965  0.00  0.00    +0.019 C 
ATOM     26  C   UNL     1      -3.472   0.832  25.804  0.00  0.00    +0.178 A 
ATOM     33  H   UNL     1      -5.363   0.765  26.735  0.00  0.00    +0.176 HD
ENDROOT
BRANCH  10   4
ATOM      4  S   UNL     1      -5.417   2.619  25.238  0.00  0.00    +0.077 S 
ATOM      7  O   UNL     1      -6.427   3.355  25.972  0.00  0.00    -0.150 OA
ATOM      8  O   UNL     1      -5.724   2.039  23.943  0.00  0.00    -0.150 OA
BRANCH   4  27
ATOM      1 CL   UNL     1      -3.936   3.978  27.725  0.00  0.00    -0.081 Cl
ATOM      2 CL   UNL     1      -4.313   3.272  22.308  0.00  0.00    -0.081 Cl
ATOM     27  C   UNL     1      -4.034   3.697  25.001  0.00  0.00    +0.145 A 
ATOM     28  C   UNL     1      -3.413   4.272  26.104  0.00  0.00    +0.069 A 
ATOM     29  C   UNL     1      -3.578   3.959  23.714  0.00  0.00    +0.069 A 
ATOM     30  C   UNL     1      -2.322   5.121  25.918  0.00  0.00    +0.022 A 
ATOM     31  C   UNL     1      -2.488   4.809  23.527  0.00  0.00    +0.022 A 
ATOM     32  C   UNL     1      -1.860   5.389  24.629  0.00  0.00    +0.003 A 
ENDBRANCH   4  27
ENDBRANCH  10   4
TORSDOF 2
ENDMDL
MODEL 2
REMARK VINA RESULT:      18.2      1.438      1.923
REMARK  Name = 11866256
REMARK  5 active torsions:
REMARK  status: ('A' for Active; 'I' for Inactive)
REMARK    1  A    between atoms: S_4  and  N_10
REMARK    2  A    between atoms: S_4  and  C_27
REMARK    3  A    between atoms: C_12  and  C_20
REMARK    4  A    between atoms: C_17  and  C_24
REMARK    5  A    between atoms: C_19  and  C_25
REMARK                            x       y       z     vdW  Elec       q    Type
REMARK                         _______ _______ _______ _____ _____    ______ ____
ROOT
ATOM      3  S   UNL     1      -3.017  -0.801  26.512  0.00  0.00    -0.056 S 
ATOM      5  O   UNL     1       2.525   1.754  23.277  0.00  0.00    -0.461 OA
ATOM      6  O   UNL     1       4.515   2.597  22.490  0.00  0.00    -0.251 OA
ATOM      9  N   UNL     1      -2.673   1.427  25.244  0.00  0.00    -0.228 NA
ATOM     10  N   UNL     1      -4.810   1.314  26.383  0.00  0.00    -0.194 N 
ATOM     11  C   UNL     1       0.854   0.214  24.364  0.00  0.00    +0.045 C 
ATOM     12  C   UNL     1       0.454  -1.326  24.368  0.00  0.00    -0.021 C 
ATOM     13  C   UNL     1       1.954   0.447  23.315  0.00  0.00    +0.184 C 
ATOM     14  C   UNL     1       3.165  -0.412  23.624  0.00  0.00    +0.044 C 
ATOM     15  C   UNL     1       1.722  -2.223  24.512  0.00  0.00    +0.008 C 
ATOM     16  C   UNL     1       2.842  -1.889  23.517  0.00  0.00    +0.008 C 
ATOM     17  C   UNL     1      -0.390   1.161  24.209  0.00  0.00    +0.043 C 
ATOM     18  C   UNL     1      -0.483  -1.607  25.583  0.00  0.00    +0.051 C 
ATOM     19  C   UNL     1       4.179   0.180  22.665  0.00  0.00    +0.101 C 
ATOM     20  C   UNL     1      -0.281  -1.744  23.066  0.00  0.00    +0.012 C 
ATOM     21  C   UNL     1      -1.534   0.665  25.058  0.00  0.00    +0.057 A 
ATOM     22  C   UNL     1      -1.561  -0.581  25.656  0.00  0.00    +0.015 A 
ATOM     23  C   UNL     1       3.808   1.647  22.784  0.00  0.00    +0.311 C 
ATOM     24  C   UNL     1      -0.063   2.620  24.558  0.00  0.00    +0.014 C 
ATOM     25  C   UNL     1       5.616  -0.094  23.066  0.00  0.00    +0.019 C 
ATOM     26  C   UNL     1      -3.516   0.760  26.001  0.00  0.00    +0.178 A 
ATOM     33  H   UNL     1      -5.369   0.719  27.006  0.00  0.00    +0.176 HD
ENDROOT
BRANCH  10   4
ATOM      4  S   UNL     1      -5.641   2.198  25.158  0.00  0.00    +0.077 S 
ATOM      7  O   UNL     1      -5.744   3.589  25.555  0.00  0.00    -0.150 OA
ATOM      8  O   UNL     1      -6.819   1.465  24.735  0.00  0.00    -0.150 OA
BRANCH   4  27
ATOM      1 CL   UNL     1      -4.240   4.830  24.002  0.00  0.00    -0.081 Cl
ATOM      2 CL   UNL     1      -4.866  -0.607  23.832  0.00  0.00    -0.081 Cl
ATOM     27  C   UNL     1      -4.476   2.106  23.829  0.00  0.00    +0.145 A 
ATOM     28  C   UNL     1      -3.885   3.269  23.349  0.00  0.00    +0.069 A 
ATOM     29  C   UNL     1      -4.160   0.870  23.276  0.00  0.00    +0.069 A 
ATOM     30  C   UNL     1      -2.966   3.196  22.302  0.00  0.00    +0.022 A 
ATOM     31  C   UNL     1      -3.242   0.797  22.228  0.00  0.00    +0.022 A 
ATOM     32  C   UNL     1      -2.645   1.960  21.742  0.00  0.00    +0.003 A 
ENDBRANCH   4  27
ENDBRANCH  10   4
TORSDOF 2
ENDMDL
