MODEL 1
REMARK VINA RESULT:       0.1      0.000      0.000
REMARK  Name = 11867215
REMARK  6 active torsions:
REMARK  status: ('A' for Active; 'I' for Inactive)
REMARK    1  A    between atoms: S_1  and  N_9
REMARK    2  A    between atoms: S_1  and  C_25
REMARK    3  A    between atoms: N_9  and  C_20
REMARK    4  A    between atoms: C_19  and  C_22
REMARK    5  A    between atoms: C_25  and  C_26
REMARK    6  A    between atoms: C_26  and  C_30
REMARK                            x       y       z     vdW  Elec       q    Type
REMARK                         _______ _______ _______ _____ _____    ______ ____
ROOT
ATOM      3  O   UNL     1       0.357   2.568  25.986  0.00  0.00    -0.266 OA
ATOM      4  O   UNL     1      -3.814  -0.333  27.003  0.00  0.00    -0.270 OA
ATOM      7  N   UNL     1      -4.300   0.972  25.123  0.00  0.00    -0.297 N 
ATOM      8  N   UNL     1      -1.557   2.491  24.637  0.00  0.00    -0.310 N 
ATOM     10  C   UNL     1      -3.829   3.403  25.385  0.00  0.00    +0.027 C 
ATOM     11  C   UNL     1      -3.603   2.345  23.173  0.00  0.00    +0.054 C 
ATOM     12  C   UNL     1      -4.081   3.604  23.894  0.00  0.00    +0.018 C 
ATOM     13  C   UNL     1      -4.603   2.175  25.899  0.00  0.00    +0.113 C 
ATOM     14  C   UNL     1      -2.319   3.275  25.619  0.00  0.00    +0.130 C 
ATOM     15  C   UNL     1      -4.417   1.130  23.664  0.00  0.00    +0.117 C 
ATOM     16  C   UNL     1      -2.126   2.102  23.416  0.00  0.00    +0.027 A 
ATOM     17  C   UNL     1      -1.379   1.484  22.482  0.00  0.00    +0.024 A 
ATOM     18  C   UNL     1      -0.203   2.239  24.940  0.00  0.00    +0.274 A 
ATOM     19  C   UNL     1      -3.914  -0.195  25.785  0.00  0.00    +0.247 C 
ATOM     20  C   UNL     1       0.561   1.534  23.882  0.00  0.00    +0.112 A 
ATOM     21  C   UNL     1       0.008   1.188  22.719  0.00  0.00    +0.031 A 
ENDROOT
BRANCH  19  22
ATOM      2  F   UNL     1      -2.626  -4.663  22.682  0.00  0.00    -0.205 F 
ATOM     22  C   UNL     1      -3.576  -1.367  24.971  0.00  0.00    +0.037 A 
ATOM     23  C   UNL     1      -2.274  -1.861  24.974  0.00  0.00    +0.016 A 
ATOM     24  C   UNL     1      -4.560  -1.982  24.199  0.00  0.00    +0.016 A 
ATOM     27  C   UNL     1      -1.953  -2.976  24.200  0.00  0.00    +0.039 A 
ATOM     28  C   UNL     1      -4.238  -3.096  23.424  0.00  0.00    +0.039 A 
ATOM     29  C   UNL     1      -2.935  -3.594  23.425  0.00  0.00    +0.123 A 
ENDBRANCH  19  22
BRANCH  20   9
ATOM      9  N   UNL     1       1.917   1.216  24.080  0.00  0.00    -0.215 N 
ATOM     31  H   UNL     1       2.526   2.026  24.259  0.00  0.00    +0.173 HD
BRANCH   9   1
ATOM      1  S   UNL     1       2.569   0.078  22.989  0.00  0.00    +0.043 S 
ATOM      5  O   UNL     1       2.887  -1.148  23.694  0.00  0.00    -0.155 OA
ATOM      6  O   UNL     1       1.772   0.062  21.778  0.00  0.00    -0.155 OA
BRANCH   1  25
ATOM     25  C   UNL     1       4.107   0.880  22.609  0.00  0.00    +0.188 C 
BRANCH  25  26
ATOM     26  C   UNL     1       5.292   0.036  23.047  0.00  0.00    +0.021 C 
ATOM     30  C   UNL     1       5.708   0.359  24.473  0.00  0.00    +0.005 C 
ENDBRANCH  25  26
ENDBRANCH   1  25
ENDBRANCH   9   1
ENDBRANCH  20   9
TORSDOF 5
ENDMDL
MODEL 2
REMARK VINA RESULT:       0.8      3.141      5.418
REMARK  Name = 11867215
REMARK  6 active torsions:
REMARK  status: ('A' for Active; 'I' for Inactive)
REMARK    1  A    between atoms: S_1  and  N_9
REMARK    2  A    between atoms: S_1  and  C_25
REMARK    3  A    between atoms: N_9  and  C_20
REMARK    4  A    between atoms: C_19  and  C_22
REMARK    5  A    between atoms: C_25  and  C_26
REMARK    6  A    between atoms: C_26  and  C_30
REMARK                            x       y       z     vdW  Elec       q    Type
REMARK                         _______ _______ _______ _____ _____    ______ ____
ROOT
ATOM      3  O   UNL     1       0.683   0.523  22.656  0.00  0.00    -0.266 OA
ATOM      4  O   UNL     1      -4.334  -0.769  22.724  0.00  0.00    -0.270 OA
ATOM      7  N   UNL     1      -3.412  -1.400  24.779  0.00  0.00    -0.297 N 
ATOM      8  N   UNL     1      -0.430  -0.349  24.524  0.00  0.00    -0.310 N 
ATOM     10  C   UNL     1      -1.324  -2.746  24.622  0.00  0.00    +0.027 C 
ATOM     11  C   UNL     1      -1.663  -1.235  26.535  0.00  0.00    +0.054 C 
ATOM     12  C   UNL     1      -1.130  -2.607  26.128  0.00  0.00    +0.018 C 
ATOM     13  C   UNL     1      -2.816  -2.631  24.259  0.00  0.00    +0.113 C 
ATOM     14  C   UNL     1      -0.473  -1.685  23.913  0.00  0.00    +0.130 C 
ATOM     15  C   UNL     1      -3.169  -1.149  26.209  0.00  0.00    +0.117 C 
ATOM     16  C   UNL     1      -0.921  -0.124  25.818  0.00  0.00    +0.027 A 
ATOM     17  C   UNL     1      -0.770   1.078  26.404  0.00  0.00    +0.024 A 
ATOM     18  C   UNL     1       0.218   0.664  23.787  0.00  0.00    +0.274 A 
ATOM     19  C   UNL     1      -4.128  -0.565  23.918  0.00  0.00    +0.247 C 
ATOM     20  C   UNL     1       0.332   1.972  24.477  0.00  0.00    +0.112 A 
ATOM     21  C   UNL     1      -0.125   2.163  25.716  0.00  0.00    +0.031 A 
ENDROOT
BRANCH  19  22
ATOM      2  F   UNL     1      -6.207   4.186  26.006  0.00  0.00    -0.205 F 
ATOM     22  C   UNL     1      -4.673   0.681  24.466  0.00  0.00    +0.037 A 
ATOM     23  C   UNL     1      -4.134   1.904  24.075  0.00  0.00    +0.016 A 
ATOM     24  C   UNL     1      -5.728   0.635  25.374  0.00  0.00    +0.016 A 
ATOM     27  C   UNL     1      -4.654   3.090  24.595  0.00  0.00    +0.039 A 
ATOM     28  C   UNL     1      -6.247   1.821  25.896  0.00  0.00    +0.039 A 
ATOM     29  C   UNL     1      -5.710   3.048  25.506  0.00  0.00    +0.123 A 
ENDBRANCH  19  22
BRANCH  20   9
ATOM      9  N   UNL     1       0.946   3.061  23.833  0.00  0.00    -0.215 N 
ATOM     31  H   UNL     1       1.813   3.391  24.280  0.00  0.00    +0.173 HD
BRANCH   9   1
ATOM      1  S   UNL     1      -0.107   4.310  23.343  0.00  0.00    +0.043 S 
ATOM      5  O   UNL     1       0.611   5.256  22.511  0.00  0.00    -0.155 OA
ATOM      6  O   UNL     1      -1.366   3.736  22.911  0.00  0.00    -0.155 OA
BRANCH   1  25
ATOM     25  C   UNL     1      -0.385   5.096  24.911  0.00  0.00    +0.188 C 
BRANCH  25  26
ATOM     26  C   UNL     1      -1.860   5.388  25.128  0.00  0.00    +0.021 C 
ATOM     30  C   UNL     1      -2.446   4.507  26.220  0.00  0.00    +0.005 C 
ENDBRANCH  25  26
ENDBRANCH   1  25
ENDBRANCH   9   1
ENDBRANCH  20   9
TORSDOF 5
ENDMDL
MODEL 3
REMARK VINA RESULT:       0.9      2.706      4.699
REMARK  Name = 11867215
REMARK  6 active torsions:
REMARK  status: ('A' for Active; 'I' for Inactive)
REMARK    1  A    between atoms: S_1  and  N_9
REMARK    2  A    between atoms: S_1  and  C_25
REMARK    3  A    between atoms: N_9  and  C_20
REMARK    4  A    between atoms: C_19  and  C_22
REMARK    5  A    between atoms: C_25  and  C_26
REMARK    6  A    between atoms: C_26  and  C_30
REMARK                            x       y       z     vdW  Elec       q    Type
REMARK                         _______ _______ _______ _____ _____    ______ ____
ROOT
ATOM      3  O   UNL     1       0.041  -0.717  22.201  0.00  0.00    -0.266 OA
ATOM      4  O   UNL     1      -4.835   0.873  22.938  0.00  0.00    -0.270 OA
ATOM      7  N   UNL     1      -4.199  -0.360  24.823  0.00  0.00    -0.297 N 
ATOM      8  N   UNL     1      -1.169  -1.046  24.180  0.00  0.00    -0.310 N 
ATOM     10  C   UNL     1      -3.207  -2.589  24.330  0.00  0.00    +0.027 C 
ATOM     11  C   UNL     1      -2.473  -1.336  26.318  0.00  0.00    +0.054 C 
ATOM     12  C   UNL     1      -2.816  -2.730  25.797  0.00  0.00    +0.018 C 
ATOM     13  C   UNL     1      -4.425  -1.657  24.186  0.00  0.00    +0.113 C 
ATOM     14  C   UNL     1      -1.994  -2.081  23.541  0.00  0.00    +0.130 C 
ATOM     15  C   UNL     1      -3.714  -0.426  26.210  0.00  0.00    +0.117 C 
ATOM     16  C   UNL     1      -1.324  -0.727  25.537  0.00  0.00    +0.027 A 
ATOM     17  C   UNL     1      -0.485   0.140  26.133  0.00  0.00    +0.024 A 
ATOM     18  C   UNL     1      -0.154  -0.467  23.391  0.00  0.00    +0.274 A 
ATOM     19  C   UNL     1      -4.430   0.812  24.097  0.00  0.00    +0.247 C 
ATOM     20  C   UNL     1       0.722   0.499  24.098  0.00  0.00    +0.112 A 
ATOM     21  C   UNL     1       0.572   0.776  25.394  0.00  0.00    +0.031 A 
ENDROOT
BRANCH  19  22
ATOM      2  F   UNL     1      -3.367   5.693  26.607  0.00  0.00    -0.205 F 
ATOM     22  C   UNL     1      -4.151   2.093  24.755  0.00  0.00    +0.037 A 
ATOM     23  C   UNL     1      -5.193   2.820  25.324  0.00  0.00    +0.016 A 
ATOM     24  C   UNL     1      -2.845   2.574  24.809  0.00  0.00    +0.016 A 
ATOM     27  C   UNL     1      -4.928   4.038  25.951  0.00  0.00    +0.039 A 
ATOM     28  C   UNL     1      -2.580   3.793  25.434  0.00  0.00    +0.039 A 
ATOM     29  C   UNL     1      -3.621   4.524  26.006  0.00  0.00    +0.123 A 
ENDBRANCH  19  22
BRANCH  20   9
ATOM      9  N   UNL     1       1.760   1.151  23.407  0.00  0.00    -0.215 N 
ATOM     31  H   UNL     1       1.453   1.930  22.809  0.00  0.00    +0.173 HD
BRANCH   9   1
ATOM      1  S   UNL     1       2.915   0.125  22.684  0.00  0.00    +0.043 S 
ATOM      5  O   UNL     1       3.084  -1.067  23.491  0.00  0.00    -0.155 OA
ATOM      6  O   UNL     1       2.654   0.037  21.260  0.00  0.00    -0.155 OA
BRANCH   1  25
ATOM     25  C   UNL     1       4.371   1.118  22.902  0.00  0.00    +0.188 C 
BRANCH  25  26
ATOM     26  C   UNL     1       5.310   0.503  23.926  0.00  0.00    +0.021 C 
ATOM     30  C   UNL     1       6.332  -0.408  23.266  0.00  0.00    +0.005 C 
ENDBRANCH  25  26
ENDBRANCH   1  25
ENDBRANCH   9   1
ENDBRANCH  20   9
TORSDOF 5
ENDMDL
MODEL 4
REMARK VINA RESULT:       1.7      3.022      5.236
REMARK  Name = 11867215
REMARK  6 active torsions:
REMARK  status: ('A' for Active; 'I' for Inactive)
REMARK    1  A    between atoms: S_1  and  N_9
REMARK    2  A    between atoms: S_1  and  C_25
REMARK    3  A    between atoms: N_9  and  C_20
REMARK    4  A    between atoms: C_19  and  C_22
REMARK    5  A    between atoms: C_25  and  C_26
REMARK    6  A    between atoms: C_26  and  C_30
REMARK                            x       y       z     vdW  Elec       q    Type
REMARK                         _______ _______ _______ _____ _____    ______ ____
ROOT
ATOM      3  O   UNL     1      -4.099   2.586  26.017  0.00  0.00    -0.266 OA
ATOM      4  O   UNL     1      -0.511  -1.100  26.636  0.00  0.00    -0.270 OA
ATOM      7  N   UNL     1      -1.879  -1.736  24.848  0.00  0.00    -0.297 N 
ATOM      8  N   UNL     1      -3.840   0.745  24.592  0.00  0.00    -0.310 N 
ATOM     10  C   UNL     1      -4.322  -1.662  25.320  0.00  0.00    +0.027 C 
ATOM     11  C   UNL     1      -3.503  -1.214  23.042  0.00  0.00    +0.054 C 
ATOM     12  C   UNL     1      -4.607  -1.903  23.842  0.00  0.00    +0.018 C 
ATOM     13  C   UNL     1      -2.950  -2.246  25.705  0.00  0.00    +0.113 C 
ATOM     14  C   UNL     1      -4.410  -0.157  25.602  0.00  0.00    +0.130 C 
ATOM     15  C   UNL     1      -2.139  -1.839  23.403  0.00  0.00    +0.117 C 
ATOM     16  C   UNL     1      -3.472   0.276  23.323  0.00  0.00    +0.027 A 
ATOM     17  C   UNL     1      -3.059   1.135  22.373  0.00  0.00    +0.024 A 
ATOM     18  C   UNL     1      -3.776   2.113  24.927  0.00  0.00    +0.274 A 
ATOM     19  C   UNL     1      -0.734  -1.189  25.430  0.00  0.00    +0.247 C 
ATOM     20  C   UNL     1      -3.291   3.006  23.847  0.00  0.00    +0.112 A 
ATOM     21  C   UNL     1      -2.963   2.545  22.639  0.00  0.00    +0.031 A 
ENDROOT
BRANCH  19  22
ATOM      2  F   UNL     1       3.201   0.868  22.032  0.00  0.00    -0.205 F 
ATOM     22  C   UNL     1       0.299  -0.649  24.539  0.00  0.00    +0.037 A 
ATOM     23  C   UNL     1       1.417  -1.418  24.229  0.00  0.00    +0.016 A 
ATOM     24  C   UNL     1       0.155   0.630  24.007  0.00  0.00    +0.016 A 
ATOM     27  C   UNL     1       2.399  -0.905  23.380  0.00  0.00    +0.039 A 
ATOM     28  C   UNL     1       1.136   1.144  23.159  0.00  0.00    +0.039 A 
ATOM     29  C   UNL     1       2.258   0.376  22.845  0.00  0.00    +0.123 A 
ENDBRANCH  19  22
BRANCH  20   9
ATOM      9  N   UNL     1      -3.171   4.389  24.071  0.00  0.00    -0.215 N 
ATOM     31  H   UNL     1      -3.129   4.961  23.216  0.00  0.00    +0.173 HD
BRANCH   9   1
ATOM      1  S   UNL     1      -2.048   4.842  25.272  0.00  0.00    +0.043 S 
ATOM      5  O   UNL     1      -1.403   6.085  24.894  0.00  0.00    -0.155 OA
ATOM      6  O   UNL     1      -2.649   4.675  26.580  0.00  0.00    -0.155 OA
BRANCH   1  25
ATOM     25  C   UNL     1      -0.852   3.546  25.062  0.00  0.00    +0.188 C 
BRANCH  25  26
ATOM     26  C   UNL     1      -0.771   2.664  26.297  0.00  0.00    +0.021 C 
ATOM     30  C   UNL     1       0.634   2.651  26.879  0.00  0.00    +0.005 C 
ENDBRANCH  25  26
ENDBRANCH   1  25
ENDBRANCH   9   1
ENDBRANCH  20   9
TORSDOF 5
ENDMDL
MODEL 5
REMARK VINA RESULT:       2.9      1.586      2.027
REMARK  Name = 11867215
REMARK  6 active torsions:
REMARK  status: ('A' for Active; 'I' for Inactive)
REMARK    1  A    between atoms: S_1  and  N_9
REMARK    2  A    between atoms: S_1  and  C_25
REMARK    3  A    between atoms: N_9  and  C_20
REMARK    4  A    between atoms: C_19  and  C_22
REMARK    5  A    between atoms: C_25  and  C_26
REMARK    6  A    between atoms: C_26  and  C_30
REMARK                            x       y       z     vdW  Elec       q    Type
REMARK                         _______ _______ _______ _____ _____    ______ ____
ROOT
ATOM      3  O   UNL     1      -0.053   2.934  25.947  0.00  0.00    -0.266 OA
ATOM      4  O   UNL     1      -4.307   0.247  27.184  0.00  0.00    -0.270 OA
ATOM      7  N   UNL     1      -4.806   1.535  25.295  0.00  0.00    -0.297 N 
ATOM      8  N   UNL     1      -2.019   2.916  24.673  0.00  0.00    -0.310 N 
ATOM     10  C   UNL     1      -4.217   3.946  25.485  0.00  0.00    +0.027 C 
ATOM     11  C   UNL     1      -4.125   2.834  23.291  0.00  0.00    +0.054 C 
ATOM     12  C   UNL     1      -4.517   4.128  24.001  0.00  0.00    +0.018 C 
ATOM     13  C   UNL     1      -5.025   2.765  26.056  0.00  0.00    +0.113 C 
ATOM     14  C   UNL     1      -2.706   3.754  25.665  0.00  0.00    +0.130 C 
ATOM     15  C   UNL     1      -4.972   1.667  23.839  0.00  0.00    +0.117 C 
ATOM     16  C   UNL     1      -2.651   2.528  23.483  0.00  0.00    +0.027 A 
ATOM     17  C   UNL     1      -1.970   1.858  22.536  0.00  0.00    +0.024 A 
ATOM     18  C   UNL     1      -0.666   2.609  24.930  0.00  0.00    +0.274 A 
ATOM     19  C   UNL     1      -4.448   0.364  25.969  0.00  0.00    +0.247 C 
ATOM     20  C   UNL     1       0.024   1.848  23.860  0.00  0.00    +0.112 A 
ATOM     21  C   UNL     1      -0.590   1.504  22.726  0.00  0.00    +0.031 A 
ENDROOT
BRANCH  19  22
ATOM      2  F   UNL     1      -3.483  -4.220  22.918  0.00  0.00    -0.205 F 
ATOM     22  C   UNL     1      -4.194  -0.838  25.168  0.00  0.00    +0.037 A 
ATOM     23  C   UNL     1      -3.605  -1.952  25.760  0.00  0.00    +0.016 A 
ATOM     24  C   UNL     1      -4.546  -0.860  23.821  0.00  0.00    +0.016 A 
ATOM     27  C   UNL     1      -3.365  -3.097  24.999  0.00  0.00    +0.039 A 
ATOM     28  C   UNL     1      -4.304  -2.004  23.059  0.00  0.00    +0.039 A 
ATOM     29  C   UNL     1      -3.715  -3.122  23.648  0.00  0.00    +0.123 A 
ENDBRANCH  19  22
BRANCH  20   9
ATOM      9  N   UNL     1       1.370   1.473  24.013  0.00  0.00    -0.215 N 
ATOM     31  H   UNL     1       2.040   2.253  23.973  0.00  0.00    +0.173 HD
BRANCH   9   1
ATOM      1  S   UNL     1       1.851   0.093  23.134  0.00  0.00    +0.043 S 
ATOM      5  O   UNL     1       1.039  -0.032  21.939  0.00  0.00    -0.155 OA
ATOM      6  O   UNL     1       3.298   0.046  23.066  0.00  0.00    -0.155 OA
BRANCH   1  25
ATOM     25  C   UNL     1       1.324  -1.174  24.261  0.00  0.00    +0.188 C 
BRANCH  25  26
ATOM     26  C   UNL     1      -0.191  -1.259  24.329  0.00  0.00    +0.021 C 
ATOM     30  C   UNL     1      -0.701  -0.974  25.733  0.00  0.00    +0.005 C 
ENDBRANCH  25  26
ENDBRANCH   1  25
ENDBRANCH   9   1
ENDBRANCH  20   9
TORSDOF 5
ENDMDL
MODEL 6
REMARK VINA RESULT:       3.1      2.773      4.861
REMARK  Name = 11867215
REMARK  6 active torsions:
REMARK  status: ('A' for Active; 'I' for Inactive)
REMARK    1  A    between atoms: S_1  and  N_9
REMARK    2  A    between atoms: S_1  and  C_25
REMARK    3  A    between atoms: N_9  and  C_20
REMARK    4  A    between atoms: C_19  and  C_22
REMARK    5  A    between atoms: C_25  and  C_26
REMARK    6  A    between atoms: C_26  and  C_30
REMARK                            x       y       z     vdW  Elec       q    Type
REMARK                         _______ _______ _______ _____ _____    ______ ____
ROOT
ATOM      3  O   UNL     1      -0.262  -2.117  22.450  0.00  0.00    -0.266 OA
ATOM      4  O   UNL     1      -3.854   1.610  22.234  0.00  0.00    -0.270 OA
ATOM      7  N   UNL     1      -4.022   0.585  24.330  0.00  0.00    -0.297 N 
ATOM      8  N   UNL     1      -1.633  -1.501  24.247  0.00  0.00    -0.310 N 
ATOM     10  C   UNL     1      -4.162  -1.900  24.273  0.00  0.00    +0.027 C 
ATOM     11  C   UNL     1      -3.080  -0.779  26.180  0.00  0.00    +0.054 C 
ATOM     12  C   UNL     1      -3.998  -1.936  25.789  0.00  0.00    +0.018 C 
ATOM     13  C   UNL     1      -4.782  -0.561  23.832  0.00  0.00    +0.113 C 
ATOM     14  C   UNL     1      -2.795  -2.147  23.622  0.00  0.00    +0.130 C 
ATOM     15  C   UNL     1      -3.733   0.558  25.773  0.00  0.00    +0.117 C 
ATOM     16  C   UNL     1      -1.723  -0.908  25.514  0.00  0.00    +0.027 A 
ATOM     17  C   UNL     1      -0.624  -0.422  26.119  0.00  0.00    +0.024 A 
ATOM     18  C   UNL     1      -0.407  -1.596  23.556  0.00  0.00    +0.274 A 
ATOM     19  C   UNL     1      -3.617   1.582  23.440  0.00  0.00    +0.247 C 
ATOM     20  C   UNL     1       0.764  -1.021  24.263  0.00  0.00    +0.112 A 
ATOM     21  C   UNL     1       0.662  -0.478  25.477  0.00  0.00    +0.031 A 
ENDROOT
BRANCH  19  22
ATOM      2  F   UNL     1      -0.577   5.817  25.460  0.00  0.00    -0.205 F 
ATOM     22  C   UNL     1      -2.819   2.693  23.969  0.00  0.00    +0.037 A 
ATOM     23  C   UNL     1      -3.456   3.808  24.507  0.00  0.00    +0.016 A 
ATOM     24  C   UNL     1      -1.428   2.627  23.932  0.00  0.00    +0.016 A 
ATOM     27  C   UNL     1      -2.698   4.865  25.012  0.00  0.00    +0.039 A 
ATOM     28  C   UNL     1      -0.670   3.684  24.436  0.00  0.00    +0.039 A 
ATOM     29  C   UNL     1      -1.304   4.803  24.976  0.00  0.00    +0.123 A 
ENDBRANCH  19  22
BRANCH  20   9
ATOM      9  N   UNL     1       2.036  -1.046  23.664  0.00  0.00    -0.215 N 
ATOM     31  H   UNL     1       2.810  -1.252  24.310  0.00  0.00    +0.173 HD
BRANCH   9   1
ATOM      1  S   UNL     1       2.355   0.224  22.571  0.00  0.00    +0.043 S 
ATOM      5  O   UNL     1       1.755  -0.075  21.285  0.00  0.00    -0.155 OA
ATOM      6  O   UNL     1       2.122   1.494  23.230  0.00  0.00    -0.155 OA
BRANCH   1  25
ATOM     25  C   UNL     1       4.110   0.026  22.391  0.00  0.00    +0.188 C 
BRANCH  25  26
ATOM     26  C   UNL     1       4.853   0.548  23.609  0.00  0.00    +0.021 C 
ATOM     30  C   UNL     1       5.598  -0.566  24.326  0.00  0.00    +0.005 C 
ENDBRANCH  25  26
ENDBRANCH   1  25
ENDBRANCH   9   1
ENDBRANCH  20   9
TORSDOF 5
ENDMDL
MODEL 7
REMARK VINA RESULT:       3.7      2.803      4.614
REMARK  Name = 11867215
REMARK  6 active torsions:
REMARK  status: ('A' for Active; 'I' for Inactive)
REMARK    1  A    between atoms: S_1  and  N_9
REMARK    2  A    between atoms: S_1  and  C_25
REMARK    3  A    between atoms: N_9  and  C_20
REMARK    4  A    between atoms: C_19  and  C_22
REMARK    5  A    between atoms: C_25  and  C_26
REMARK    6  A    between atoms: C_26  and  C_30
REMARK                            x       y       z     vdW  Elec       q    Type
REMARK                         _______ _______ _______ _____ _____    ______ ____
ROOT
ATOM      3  O   UNL     1       0.946   1.619  25.898  0.00  0.00    -0.266 OA
ATOM      4  O   UNL     1      -3.548   3.738  27.368  0.00  0.00    -0.270 OA
ATOM      7  N   UNL     1      -3.042   4.557  25.235  0.00  0.00    -0.297 N 
ATOM      8  N   UNL     1      -0.378   2.986  24.531  0.00  0.00    -0.310 N 
ATOM     10  C   UNL     1      -0.743   5.479  24.985  0.00  0.00    +0.027 C 
ATOM     11  C   UNL     1      -1.848   4.411  23.062  0.00  0.00    +0.054 C 
ATOM     12  C   UNL     1      -0.955   5.578  23.478  0.00  0.00    +0.018 C 
ATOM     13  C   UNL     1      -2.092   5.557  25.724  0.00  0.00    +0.113 C 
ATOM     14  C   UNL     1       0.011   4.180  25.294  0.00  0.00    +0.130 C 
ATOM     15  C   UNL     1      -3.212   4.525  23.774  0.00  0.00    +0.117 C 
ATOM     16  C   UNL     1      -1.205   3.080  23.403  0.00  0.00    +0.027 A 
ATOM     17  C   UNL     1      -1.458   1.994  22.650  0.00  0.00    +0.024 A 
ATOM     18  C   UNL     1       0.201   1.763  24.929  0.00  0.00    +0.274 A 
ATOM     19  C   UNL     1      -3.686   3.717  26.146  0.00  0.00    +0.247 C 
ATOM     20  C   UNL     1      -0.134   0.598  24.074  0.00  0.00    +0.112 A 
ATOM     21  C   UNL     1      -0.908   0.710  22.993  0.00  0.00    +0.031 A 
ENDROOT
BRANCH  19  22
ATOM      2  F   UNL     1      -7.164  -0.163  24.120  0.00  0.00    -0.205 F 
ATOM     22  C   UNL     1      -4.599   2.699  25.615  0.00  0.00    +0.037 A 
ATOM     23  C   UNL     1      -5.969   2.942  25.591  0.00  0.00    +0.016 A 
ATOM     24  C   UNL     1      -4.089   1.494  25.136  0.00  0.00    +0.016 A 
ATOM     27  C   UNL     1      -6.837   1.974  25.085  0.00  0.00    +0.039 A 
ATOM     28  C   UNL     1      -4.957   0.526  24.631  0.00  0.00    +0.039 A 
ATOM     29  C   UNL     1      -6.331   0.766  24.605  0.00  0.00    +0.123 A 
ENDBRANCH  19  22
BRANCH  20   9
ATOM      9  N   UNL     1       0.374  -0.677  24.382  0.00  0.00    -0.215 N 
ATOM     31  H   UNL     1       0.751  -1.195  23.577  0.00  0.00    +0.173 HD
BRANCH   9   1
ATOM      1  S   UNL     1      -0.590  -1.616  25.431  0.00  0.00    +0.043 S 
ATOM      5  O   UNL     1       0.198  -2.704  25.975  0.00  0.00    -0.155 OA
ATOM      6  O   UNL     1      -1.356  -0.738  26.293  0.00  0.00    -0.155 OA
BRANCH   1  25
ATOM     25  C   UNL     1      -1.712  -2.320  24.249  0.00  0.00    +0.188 C 
BRANCH  25  26
ATOM     26  C   UNL     1      -3.075  -2.581  24.869  0.00  0.00    +0.021 C 
ATOM     30  C   UNL     1      -4.165  -2.641  23.811  0.00  0.00    +0.005 C 
ENDBRANCH  25  26
ENDBRANCH   1  25
ENDBRANCH   9   1
ENDBRANCH  20   9
TORSDOF 5
ENDMDL
