MODEL 1
REMARK VINA RESULT:      -3.3      0.000      0.000
REMARK  Name = 51137116
REMARK  3 active torsions:
REMARK  status: ('A' for Active; 'I' for Inactive)
REMARK    1  A    between atoms: N_1  and  C_9
REMARK    2  A    between atoms: C_5  and  C_10
REMARK    3  A    between atoms: C_9  and  C_11
REMARK                            x       y       z     vdW  Elec       q    Type
REMARK                         _______ _______ _______ _____ _____    ______ ____
ROOT
ATOM      1  N   UNL     1      -3.011  -0.413  24.332  0.00  0.00    -0.297 NA
ATOM      5  C   UNL     1      -0.795  -1.176  24.224  0.00  0.00    +0.070 C 
ATOM      6  C   UNL     1      -1.866  -0.428  23.417  0.00  0.00    +0.096 C 
ATOM      7  C   UNL     1      -1.195  -0.964  25.694  0.00  0.00    +0.028 C 
ATOM      8  C   UNL     1      -2.443  -0.091  25.641  0.00  0.00    +0.085 C 
ENDROOT
BRANCH   5  10
ATOM      2  N   UNL     1       1.688  -1.537  24.162  0.00  0.00    -0.342 N 
ATOM      3  N   UNL     1       0.968   0.381  23.299  0.00  0.00    -0.232 NA
ATOM     10  C   UNL     1       0.611  -0.743  23.880  0.00  0.00    +0.113 A 
ATOM     13  C   UNL     1       2.814  -0.881  23.737  0.00  0.00    +0.066 A 
ATOM     14  C   UNL     1       2.338   0.313  23.202  0.00  0.00    +0.089 A 
ATOM     18  C   UNL     1       4.167  -1.220  23.773  0.00  0.00    +0.028 A 
ATOM     19  C   UNL     1       3.253   1.236  22.667  0.00  0.00    +0.030 A 
ATOM     22  C   UNL     1       5.064  -0.289  23.235  0.00  0.00    +0.002 A 
ATOM     23  C   UNL     1       4.617   0.917  22.692  0.00  0.00    +0.002 A 
ATOM     25  H   UNL     1       1.662  -2.445  24.607  0.00  0.00    +0.167 HD
ENDBRANCH   5  10
BRANCH   1   9
ATOM      9  C   UNL     1      -4.035   0.536  23.923  0.00  0.00    +0.121 C 
BRANCH   9  11
ATOM      4  N   UNL     1      -4.367   3.601  25.933  0.00  0.00    -0.360 N 
ATOM     11  C   UNL     1      -3.906   1.848  24.651  0.00  0.00    -0.008 A 
ATOM     12  C   UNL     1      -2.784   2.723  24.628  0.00  0.00    +0.004 A 
ATOM     15  C   UNL     1      -4.863   2.415  25.461  0.00  0.00    +0.088 A 
ATOM     16  C   UNL     1      -3.099   3.815  25.440  0.00  0.00    +0.047 A 
ATOM     17  C   UNL     1      -1.527   2.691  23.993  0.00  0.00    +0.010 A 
ATOM     20  C   UNL     1      -2.217   4.881  25.649  0.00  0.00    +0.026 A 
ATOM     21  C   UNL     1      -0.634   3.751  24.193  0.00  0.00    +0.001 A 
ATOM     24  C   UNL     1      -0.976   4.827  25.009  0.00  0.00    +0.002 A 
ATOM     26  H   UNL     1      -4.860   4.230  26.552  0.00  0.00    +0.165 HD
ENDBRANCH   9  11
ENDBRANCH   1   9
TORSDOF 3
ENDMDL
MODEL 2
REMARK VINA RESULT:      -3.0      2.375      4.809
REMARK  Name = 51137116
REMARK  3 active torsions:
REMARK  status: ('A' for Active; 'I' for Inactive)
REMARK    1  A    between atoms: N_1  and  C_9
REMARK    2  A    between atoms: C_5  and  C_10
REMARK    3  A    between atoms: C_9  and  C_11
REMARK                            x       y       z     vdW  Elec       q    Type
REMARK                         _______ _______ _______ _____ _____    ______ ____
ROOT
ATOM      1  N   UNL     1      -0.385   3.920  25.166  0.00  0.00    -0.297 NA
ATOM      5  C   UNL     1      -0.056   1.598  25.186  0.00  0.00    +0.070 C 
ATOM      6  C   UNL     1      -0.987   2.700  25.710  0.00  0.00    +0.096 C 
ATOM      7  C   UNL     1       0.587   2.198  23.923  0.00  0.00    +0.028 C 
ATOM      8  C   UNL     1      -0.031   3.584  23.787  0.00  0.00    +0.085 C 
ENDROOT
BRANCH   5  10
ATOM      2  N   UNL     1      -2.029   0.069  25.446  0.00  0.00    -0.342 N 
ATOM      3  N   UNL     1      -0.293  -0.773  24.343  0.00  0.00    -0.232 NA
ATOM     10  C   UNL     1      -0.764   0.280  24.972  0.00  0.00    +0.113 A 
ATOM     13  C   UNL     1      -2.398  -1.205  25.100  0.00  0.00    +0.066 A 
ATOM     14  C   UNL     1      -1.298  -1.710  24.413  0.00  0.00    +0.089 A 
ATOM     18  C   UNL     1      -3.565  -1.937  25.323  0.00  0.00    +0.028 A 
ATOM     19  C   UNL     1      -1.347  -3.021  23.910  0.00  0.00    +0.030 A 
ATOM     22  C   UNL     1      -3.597  -3.241  24.815  0.00  0.00    +0.002 A 
ATOM     23  C   UNL     1      -2.509  -3.775  24.121  0.00  0.00    +0.002 A 
ATOM     25  H   UNL     1      -2.594   0.731  25.961  0.00  0.00    +0.167 HD
ENDBRANCH   5  10
BRANCH   1   9
ATOM      9  C   UNL     1      -1.281   5.063  25.246  0.00  0.00    +0.121 C 
BRANCH   9  11
ATOM      4  N   UNL     1      -4.561   4.561  26.836  0.00  0.00    -0.360 N 
ATOM     11  C   UNL     1      -2.663   4.663  25.689  0.00  0.00    -0.008 A 
ATOM     12  C   UNL     1      -3.499   3.685  25.080  0.00  0.00    +0.004 A 
ATOM     15  C   UNL     1      -3.344   5.183  26.766  0.00  0.00    +0.088 A 
ATOM     16  C   UNL     1      -4.684   3.641  25.818  0.00  0.00    +0.047 A 
ATOM     17  C   UNL     1      -3.361   2.832  23.967  0.00  0.00    +0.010 A 
ATOM     20  C   UNL     1      -5.741   2.782  25.499  0.00  0.00    +0.026 A 
ATOM     21  C   UNL     1      -4.411   1.968  23.636  0.00  0.00    +0.001 A 
ATOM     24  C   UNL     1      -5.582   1.945  24.392  0.00  0.00    +0.002 A 
ATOM     26  H   UNL     1      -5.268   4.747  27.534  0.00  0.00    +0.165 HD
ENDBRANCH   9  11
ENDBRANCH   1   9
TORSDOF 3
ENDMDL
MODEL 3
REMARK VINA RESULT:      -2.7     15.296     17.901
REMARK  Name = 51137116
REMARK  3 active torsions:
REMARK  status: ('A' for Active; 'I' for Inactive)
REMARK    1  A    between atoms: N_1  and  C_9
REMARK    2  A    between atoms: C_5  and  C_10
REMARK    3  A    between atoms: C_9  and  C_11
REMARK                            x       y       z     vdW  Elec       q    Type
REMARK                         _______ _______ _______ _____ _____    ______ ____
ROOT
ATOM      1  N   UNL     1      -2.681 -10.330  12.055  0.00  0.00    -0.297 NA
ATOM      5  C   UNL     1      -4.722 -10.739  10.975  0.00  0.00    +0.070 C 
ATOM      6  C   UNL     1      -4.122 -10.267  12.306  0.00  0.00    +0.096 C 
ATOM      7  C   UNL     1      -3.639 -10.429   9.927  0.00  0.00    +0.028 C 
ATOM      8  C   UNL     1      -2.507  -9.777  10.711  0.00  0.00    +0.085 C 
ENDROOT
BRANCH   5  10
ATOM      2  N   UNL     1      -6.228  -9.148   9.750  0.00  0.00    -0.342 N 
ATOM      3  N   UNL     1      -7.215 -10.441  11.264  0.00  0.00    -0.232 NA
ATOM     10  C   UNL     1      -6.075 -10.130  10.689  0.00  0.00    +0.113 A 
ATOM     13  C   UNL     1      -7.554  -8.802   9.719  0.00  0.00    +0.066 A 
ATOM     14  C   UNL     1      -8.149  -9.622  10.672  0.00  0.00    +0.089 A 
ATOM     18  C   UNL     1      -8.262  -7.868   8.960  0.00  0.00    +0.028 A 
ATOM     19  C   UNL     1      -9.532  -9.520  10.897  0.00  0.00    +0.030 A 
ATOM     22  C   UNL     1      -9.639  -7.781   9.196  0.00  0.00    +0.002 A 
ATOM     23  C   UNL     1     -10.264  -8.591  10.146  0.00  0.00    +0.002 A 
ATOM     25  H   UNL     1      -5.496  -8.746   9.180  0.00  0.00    +0.167 HD
ENDBRANCH   5  10
BRANCH   1   9
ATOM      9  C   UNL     1      -1.910  -9.608  13.055  0.00  0.00    +0.121 C 
BRANCH   9  11
ATOM      4  N   UNL     1      -2.053 -10.780  16.540  0.00  0.00    -0.360 N 
ATOM     11  C   UNL     1      -2.252 -10.051  14.453  0.00  0.00    -0.008 A 
ATOM     12  C   UNL     1      -3.553 -10.123  15.025  0.00  0.00    +0.004 A 
ATOM     15  C   UNL     1      -1.351 -10.462  15.409  0.00  0.00    +0.088 A 
ATOM     16  C   UNL     1      -3.400 -10.583  16.335  0.00  0.00    +0.047 A 
ATOM     17  C   UNL     1      -4.850  -9.839  14.553  0.00  0.00    +0.010 A 
ATOM     20  C   UNL     1      -4.484 -10.775  17.200  0.00  0.00    +0.026 A 
ATOM     21  C   UNL     1      -5.943 -10.026  15.408  0.00  0.00    +0.001 A 
ATOM     24  C   UNL     1      -5.760 -10.488  16.710  0.00  0.00    +0.002 A 
ATOM     26  H   UNL     1      -1.643 -11.113  17.402  0.00  0.00    +0.165 HD
ENDBRANCH   9  11
ENDBRANCH   1   9
TORSDOF 3
ENDMDL
MODEL 4
REMARK VINA RESULT:      -1.7      2.373      4.763
REMARK  Name = 51137116
REMARK  3 active torsions:
REMARK  status: ('A' for Active; 'I' for Inactive)
REMARK    1  A    between atoms: N_1  and  C_9
REMARK    2  A    between atoms: C_5  and  C_10
REMARK    3  A    between atoms: C_9  and  C_11
REMARK                            x       y       z     vdW  Elec       q    Type
REMARK                         _______ _______ _______ _____ _____    ______ ____
ROOT
ATOM      1  N   UNL     1      -0.462   3.778  25.171  0.00  0.00    -0.297 NA
ATOM      5  C   UNL     1      -0.257   1.448  25.345  0.00  0.00    +0.070 C 
ATOM      6  C   UNL     1      -1.190   2.617  25.689  0.00  0.00    +0.096 C 
ATOM      7  C   UNL     1       0.572   1.949  24.150  0.00  0.00    +0.028 C 
ATOM      8  C   UNL     1       0.048   3.352  23.867  0.00  0.00    +0.085 C 
ENDROOT
BRANCH   5  10
ATOM      2  N   UNL     1      -0.451  -0.850  24.354  0.00  0.00    -0.342 N 
ATOM      3  N   UNL     1      -2.192  -0.164  25.554  0.00  0.00    -0.232 NA
ATOM     10  C   UNL     1      -0.999   0.154  25.104  0.00  0.00    +0.113 A 
ATOM     13  C   UNL     1      -1.352  -1.883  24.316  0.00  0.00    +0.066 A 
ATOM     14  C   UNL     1      -2.430  -1.431  25.072  0.00  0.00    +0.089 A 
ATOM     18  C   UNL     1      -1.316  -3.136  23.704  0.00  0.00    +0.028 A 
ATOM     19  C   UNL     1      -3.548  -2.265  25.238  0.00  0.00    +0.030 A 
ATOM     22  C   UNL     1      -2.438  -3.955  23.880  0.00  0.00    +0.002 A 
ATOM     23  C   UNL     1      -3.535  -3.529  24.633  0.00  0.00    +0.002 A 
ATOM     25  H   UNL     1       0.455  -0.836  23.905  0.00  0.00    +0.167 HD
ENDBRANCH   5  10
BRANCH   1   9
ATOM      9  C   UNL     1      -1.301   4.963  25.077  0.00  0.00    +0.121 C 
BRANCH   9  11
ATOM      4  N   UNL     1      -4.619   4.830  26.662  0.00  0.00    -0.360 N 
ATOM     11  C   UNL     1      -2.707   4.692  25.543  0.00  0.00    -0.008 A 
ATOM     12  C   UNL     1      -3.589   3.694  25.042  0.00  0.00    +0.004 A 
ATOM     15  C   UNL     1      -3.369   5.374  26.538  0.00  0.00    +0.088 A 
ATOM     16  C   UNL     1      -4.782   3.802  25.761  0.00  0.00    +0.047 A 
ATOM     17  C   UNL     1      -3.487   2.706  24.042  0.00  0.00    +0.010 A 
ATOM     20  C   UNL     1      -5.881   2.968  25.529  0.00  0.00    +0.026 A 
ATOM     21  C   UNL     1      -4.580   1.865  23.800  0.00  0.00    +0.001 A 
ATOM     24  C   UNL     1      -5.757   1.996  24.534  0.00  0.00    +0.002 A 
ATOM     26  H   UNL     1      -5.322   5.137  27.321  0.00  0.00    +0.165 HD
ENDBRANCH   9  11
ENDBRANCH   1   9
TORSDOF 3
ENDMDL
MODEL 5
REMARK VINA RESULT:      -1.6      1.565      2.236
REMARK  Name = 51137116
REMARK  3 active torsions:
REMARK  status: ('A' for Active; 'I' for Inactive)
REMARK    1  A    between atoms: N_1  and  C_9
REMARK    2  A    between atoms: C_5  and  C_10
REMARK    3  A    between atoms: C_9  and  C_11
REMARK                            x       y       z     vdW  Elec       q    Type
REMARK                         _______ _______ _______ _____ _____    ______ ____
ROOT
ATOM      1  N   UNL     1      -2.756  -1.520  24.535  0.00  0.00    -0.297 NA
ATOM      5  C   UNL     1      -0.429  -1.816  24.490  0.00  0.00    +0.070 C 
ATOM      6  C   UNL     1      -1.627  -1.449  23.603  0.00  0.00    +0.096 C 
ATOM      7  C   UNL     1      -0.875  -1.453  25.917  0.00  0.00    +0.028 C 
ATOM      8  C   UNL     1      -2.276  -0.877  25.758  0.00  0.00    +0.085 C 
ENDROOT
BRANCH   5  10
ATOM      2  N   UNL     1       2.074  -1.719  24.333  0.00  0.00    -0.342 N 
ATOM      3  N   UNL     1       0.978  -0.050  23.356  0.00  0.00    -0.232 NA
ATOM     10  C   UNL     1       0.858  -1.165  24.042  0.00  0.00    +0.113 A 
ATOM     13  C   UNL     1       3.042  -0.908  23.799  0.00  0.00    +0.066 A 
ATOM     14  C   UNL     1       2.333   0.127  23.196  0.00  0.00    +0.089 A 
ATOM     18  C   UNL     1       4.435  -0.988  23.795  0.00  0.00    +0.028 A 
ATOM     19  C   UNL     1       3.039   1.151  22.542  0.00  0.00    +0.030 A 
ATOM     22  C   UNL     1       5.122   0.041  23.139  0.00  0.00    +0.002 A 
ATOM     23  C   UNL     1       4.439   1.091  22.524  0.00  0.00    +0.002 A 
ATOM     25  H   UNL     1       2.234  -2.573  24.849  0.00  0.00    +0.167 HD
ENDBRANCH   5  10
BRANCH   1   9
ATOM      9  C   UNL     1      -3.952  -0.883  24.006  0.00  0.00    +0.121 C 
BRANCH   9  11
ATOM      4  N   UNL     1      -3.054   2.598  23.222  0.00  0.00    -0.360 N 
ATOM     11  C   UNL     1      -3.785   0.608  23.880  0.00  0.00    -0.008 A 
ATOM     12  C   UNL     1      -4.503   1.605  24.598  0.00  0.00    +0.004 A 
ATOM     15  C   UNL     1      -2.901   1.249  23.042  0.00  0.00    +0.088 A 
ATOM     16  C   UNL     1      -4.025   2.844  24.166  0.00  0.00    +0.047 A 
ATOM     17  C   UNL     1      -5.516   1.571  25.576  0.00  0.00    +0.010 A 
ATOM     20  C   UNL     1      -4.512   4.057  24.667  0.00  0.00    +0.026 A 
ATOM     21  C   UNL     1      -6.013   2.778  26.085  0.00  0.00    +0.001 A 
ATOM     24  C   UNL     1      -5.516   4.000  25.636  0.00  0.00    +0.002 A 
ATOM     26  H   UNL     1      -2.529   3.310  22.734  0.00  0.00    +0.165 HD
ENDBRANCH   9  11
ENDBRANCH   1   9
TORSDOF 3
ENDMDL
MODEL 6
REMARK VINA RESULT:      -1.6      1.643      7.435
REMARK  Name = 51137116
REMARK  3 active torsions:
REMARK  status: ('A' for Active; 'I' for Inactive)
REMARK    1  A    between atoms: N_1  and  C_9
REMARK    2  A    between atoms: C_5  and  C_10
REMARK    3  A    between atoms: C_9  and  C_11
REMARK                            x       y       z     vdW  Elec       q    Type
REMARK                         _______ _______ _______ _____ _____    ______ ____
ROOT
ATOM      1  N   UNL     1       0.374  -0.721  23.829  0.00  0.00    -0.297 NA
ATOM      5  C   UNL     1      -1.295   0.083  25.268  0.00  0.00    +0.070 C 
ATOM      6  C   UNL     1      -0.306   0.528  24.181  0.00  0.00    +0.096 C 
ATOM      7  C   UNL     1      -1.528  -1.412  24.993  0.00  0.00    +0.028 C 
ATOM      8  C   UNL     1      -0.689  -1.723  23.760  0.00  0.00    +0.085 C 
ENDROOT
BRANCH   5  10
ATOM      2  N   UNL     1      -2.487   2.289  25.384  0.00  0.00    -0.342 N 
ATOM      3  N   UNL     1      -3.789   0.491  25.265  0.00  0.00    -0.232 NA
ATOM     10  C   UNL     1      -2.549   0.925  25.304  0.00  0.00    +0.113 A 
ATOM     13  C   UNL     1      -3.772   2.766  25.399  0.00  0.00    +0.066 A 
ATOM     14  C   UNL     1      -4.566   1.625  25.324  0.00  0.00    +0.089 A 
ATOM     18  C   UNL     1      -4.292   4.059  25.470  0.00  0.00    +0.028 A 
ATOM     19  C   UNL     1      -5.964   1.763  25.317  0.00  0.00    +0.030 A 
ATOM     22  C   UNL     1      -5.686   4.178  25.462  0.00  0.00    +0.002 A 
ATOM     23  C   UNL     1      -6.509   3.052  25.387  0.00  0.00    +0.002 A 
ATOM     25  H   UNL     1      -1.645   2.849  25.427  0.00  0.00    +0.167 HD
ENDBRANCH   5  10
BRANCH   1   9
ATOM      9  C   UNL     1       1.117  -0.615  22.583  0.00  0.00    +0.121 C 
BRANCH   9  11
ATOM      4  N   UNL     1       3.904   1.782  22.765  0.00  0.00    -0.360 N 
ATOM     11  C   UNL     1       2.406   0.143  22.761  0.00  0.00    -0.008 A 
ATOM     12  C   UNL     1       3.633  -0.377  23.259  0.00  0.00    +0.004 A 
ATOM     15  C   UNL     1       2.604   1.473  22.465  0.00  0.00    +0.088 A 
ATOM     16  C   UNL     1       4.556   0.672  23.252  0.00  0.00    +0.047 A 
ATOM     17  C   UNL     1       4.049  -1.643  23.717  0.00  0.00    +0.010 A 
ATOM     20  C   UNL     1       5.879   0.516  23.681  0.00  0.00    +0.026 A 
ATOM     21  C   UNL     1       5.369  -1.812  24.150  0.00  0.00    +0.001 A 
ATOM     24  C   UNL     1       6.268  -0.748  24.131  0.00  0.00    +0.002 A 
ATOM     26  H   UNL     1       4.324   2.693  22.646  0.00  0.00    +0.165 HD
ENDBRANCH   9  11
ENDBRANCH   1   9
TORSDOF 3
ENDMDL
MODEL 7
REMARK VINA RESULT:      -1.5      2.223      6.462
REMARK  Name = 51137116
REMARK  3 active torsions:
REMARK  status: ('A' for Active; 'I' for Inactive)
REMARK    1  A    between atoms: N_1  and  C_9
REMARK    2  A    between atoms: C_5  and  C_10
REMARK    3  A    between atoms: C_9  and  C_11
REMARK                            x       y       z     vdW  Elec       q    Type
REMARK                         _______ _______ _______ _____ _____    ______ ____
ROOT
ATOM      1  N   UNL     1      -2.334  -2.157  25.019  0.00  0.00    -0.297 NA
ATOM      5  C   UNL     1      -4.158  -0.719  25.345  0.00  0.00    +0.070 C 
ATOM      6  C   UNL     1      -2.680  -0.912  25.710  0.00  0.00    +0.096 C 
ATOM      7  C   UNL     1      -4.336  -1.484  24.023  0.00  0.00    +0.028 C 
ATOM      8  C   UNL     1      -2.955  -2.040  23.700  0.00  0.00    +0.085 C 
ENDROOT
BRANCH   5  10
ATOM      2  N   UNL     1      -3.812   1.664  24.636  0.00  0.00    -0.342 N 
ATOM      3  N   UNL     1      -5.635   1.270  25.845  0.00  0.00    -0.232 NA
ATOM     10  C   UNL     1      -4.567   0.735  25.296  0.00  0.00    +0.113 A 
ATOM     13  C   UNL     1      -4.434   2.879  24.768  0.00  0.00    +0.066 A 
ATOM     14  C   UNL     1      -5.568   2.607  25.527  0.00  0.00    +0.089 A 
ATOM     18  C   UNL     1      -4.109   4.154  24.304  0.00  0.00    +0.028 A 
ATOM     19  C   UNL     1      -6.444   3.657  25.851  0.00  0.00    +0.030 A 
ATOM     22  C   UNL     1      -4.993   5.188  24.635  0.00  0.00    +0.002 A 
ATOM     23  C   UNL     1      -6.140   4.947  25.394  0.00  0.00    +0.002 A 
ATOM     25  H   UNL     1      -2.949   1.491  24.139  0.00  0.00    +0.167 HD
ENDBRANCH   5  10
BRANCH   1   9
ATOM      9  C   UNL     1      -0.896  -2.365  24.938  0.00  0.00    +0.121 C 
BRANCH   9  11
ATOM      4  N   UNL     1       1.060   0.060  22.980  0.00  0.00    -0.360 N 
ATOM     11  C   UNL     1      -0.191  -1.183  24.329  0.00  0.00    -0.008 A 
ATOM     12  C   UNL     1      -0.224   0.160  24.802  0.00  0.00    +0.004 A 
ATOM     15  C   UNL     1       0.607  -1.212  23.208  0.00  0.00    +0.088 A 
ATOM     16  C   UNL     1       0.568   0.918  23.937  0.00  0.00    +0.047 A 
ATOM     17  C   UNL     1      -0.856   0.804  25.885  0.00  0.00    +0.010 A 
ATOM     20  C   UNL     1       0.762   2.294  24.103  0.00  0.00    +0.026 A 
ATOM     21  C   UNL     1      -0.670   2.180  26.061  0.00  0.00    +0.001 A 
ATOM     24  C   UNL     1       0.127   2.911  25.183  0.00  0.00    +0.002 A 
ATOM     26  H   UNL     1       1.668   0.330  22.219  0.00  0.00    +0.165 HD
ENDBRANCH   9  11
ENDBRANCH   1   9
TORSDOF 3
ENDMDL
MODEL 8
REMARK VINA RESULT:      -1.3      1.852      3.820
REMARK  Name = 51137116
REMARK  3 active torsions:
REMARK  status: ('A' for Active; 'I' for Inactive)
REMARK    1  A    between atoms: N_1  and  C_9
REMARK    2  A    between atoms: C_5  and  C_10
REMARK    3  A    between atoms: C_9  and  C_11
REMARK                            x       y       z     vdW  Elec       q    Type
REMARK                         _______ _______ _______ _____ _____    ______ ____
ROOT
ATOM      1  N   UNL     1      -2.819   4.276  25.673  0.00  0.00    -0.297 NA
ATOM      5  C   UNL     1      -0.707   3.281  25.447  0.00  0.00    +0.070 C 
ATOM      6  C   UNL     1      -2.207   2.958  25.489  0.00  0.00    +0.096 C 
ATOM      7  C   UNL     1      -0.637   4.747  24.987  0.00  0.00    +0.028 C 
ATOM      8  C   UNL     1      -2.086   5.162  24.768  0.00  0.00    +0.085 C 
ENDROOT
BRANCH   5  10
ATOM      2  N   UNL     1       1.383   2.559  24.259  0.00  0.00    -0.342 N 
ATOM      3  N   UNL     1      -0.347   1.172  24.102  0.00  0.00    -0.232 NA
ATOM     10  C   UNL     1       0.081   2.311  24.598  0.00  0.00    +0.113 A 
ATOM     13  C   UNL     1       1.822   1.510  23.493  0.00  0.00    +0.066 A 
ATOM     14  C   UNL     1       0.725   0.658  23.409  0.00  0.00    +0.089 A 
ATOM     18  C   UNL     1       3.049   1.242  22.884  0.00  0.00    +0.028 A 
ATOM     19  C   UNL     1       0.839  -0.537  22.679  0.00  0.00    +0.030 A 
ATOM     22  C   UNL     1       3.146   0.047  22.162  0.00  0.00    +0.002 A 
ATOM     23  C   UNL     1       2.063  -0.828  22.060  0.00  0.00    +0.002 A 
ATOM     25  H   UNL     1       1.927   3.369  24.523  0.00  0.00    +0.167 HD
ENDBRANCH   5  10
BRANCH   1   9
ATOM      9  C   UNL     1      -4.248   4.267  25.403  0.00  0.00    +0.121 C 
BRANCH   9  11
ATOM      4  N   UNL     1      -6.082   1.149  26.082  0.00  0.00    -0.360 N 
ATOM     11  C   UNL     1      -4.825   2.878  25.482  0.00  0.00    -0.008 A 
ATOM     12  C   UNL     1      -4.411   1.744  24.729  0.00  0.00    +0.004 A 
ATOM     15  C   UNL     1      -5.854   2.481  26.306  0.00  0.00    +0.088 A 
ATOM     16  C   UNL     1      -5.216   0.673  25.124  0.00  0.00    +0.047 A 
ATOM     17  C   UNL     1      -3.426   1.526  23.745  0.00  0.00    +0.010 A 
ATOM     20  C   UNL     1      -5.084  -0.611  24.583  0.00  0.00    +0.026 A 
ATOM     21  C   UNL     1      -3.284   0.246  23.194  0.00  0.00    +0.001 A 
ATOM     24  C   UNL     1      -4.101  -0.804  23.609  0.00  0.00    +0.002 A 
ATOM     26  H   UNL     1      -6.784   0.595  26.553  0.00  0.00    +0.165 HD
ENDBRANCH   9  11
ENDBRANCH   1   9
TORSDOF 3
ENDMDL
MODEL 9
REMARK VINA RESULT:      -1.2      2.909      5.185
REMARK  Name = 51137116
REMARK  3 active torsions:
REMARK  status: ('A' for Active; 'I' for Inactive)
REMARK    1  A    between atoms: N_1  and  C_9
REMARK    2  A    between atoms: C_5  and  C_10
REMARK    3  A    between atoms: C_9  and  C_11
REMARK                            x       y       z     vdW  Elec       q    Type
REMARK                         _______ _______ _______ _____ _____    ______ ____
ROOT
ATOM      1  N   UNL     1      -4.868   4.013  25.406  0.00  0.00    -0.297 NA
ATOM      5  C   UNL     1      -5.100   1.861  24.502  0.00  0.00    +0.070 C 
ATOM      6  C   UNL     1      -4.113   3.030  24.624  0.00  0.00    +0.096 C 
ATOM      7  C   UNL     1      -6.039   2.016  25.711  0.00  0.00    +0.028 C 
ATOM      8  C   UNL     1      -5.520   3.236  26.460  0.00  0.00    +0.085 C 
ENDROOT
BRANCH   5  10
ATOM      2  N   UNL     1      -3.058   0.403  24.527  0.00  0.00    -0.342 N 
ATOM      3  N   UNL     1      -4.989  -0.644  24.189  0.00  0.00    -0.232 NA
ATOM     10  C   UNL     1      -4.414   0.519  24.400  0.00  0.00    +0.113 A 
ATOM     13  C   UNL     1      -2.736  -0.922  24.388  0.00  0.00    +0.066 A 
ATOM     14  C   UNL     1      -3.958  -1.555  24.178  0.00  0.00    +0.089 A 
ATOM     18  C   UNL     1      -1.518  -1.601  24.427  0.00  0.00    +0.028 A 
ATOM     19  C   UNL     1      -3.986  -2.948  23.994  0.00  0.00    +0.030 A 
ATOM     22  C   UNL     1      -1.564  -2.988  24.242  0.00  0.00    +0.002 A 
ATOM     23  C   UNL     1      -2.774  -3.651  24.030  0.00  0.00    +0.002 A 
ATOM     25  H   UNL     1      -2.405   1.158  24.692  0.00  0.00    +0.167 HD
ENDBRANCH   5  10
BRANCH   1   9
ATOM      9  C   UNL     1      -4.019   5.068  25.939  0.00  0.00    +0.121 C 
BRANCH   9  11
ATOM      4  N   UNL     1      -0.687   5.469  24.430  0.00  0.00    -0.360 N 
ATOM     11  C   UNL     1      -2.609   4.968  25.422  0.00  0.00    -0.008 A 
ATOM     12  C   UNL     1      -1.729   3.859  25.569  0.00  0.00    +0.004 A 
ATOM     15  C   UNL     1      -1.940   5.942  24.717  0.00  0.00    +0.088 A 
ATOM     16  C   UNL     1      -0.530   4.200  24.938  0.00  0.00    +0.047 A 
ATOM     17  C   UNL     1      -1.838   2.594  26.181  0.00  0.00    +0.010 A 
ATOM     20  C   UNL     1       0.569   3.335  24.887  0.00  0.00    +0.026 A 
ATOM     21  C   UNL     1      -0.745   1.720  26.138  0.00  0.00    +0.001 A 
ATOM     24  C   UNL     1       0.438   2.087  25.500  0.00  0.00    +0.002 A 
ATOM     26  H   UNL     1       0.020   5.978  23.917  0.00  0.00    +0.165 HD
ENDBRANCH   9  11
ENDBRANCH   1   9
TORSDOF 3
ENDMDL
MODEL 10
REMARK VINA RESULT:      -1.1      1.347      3.035
REMARK  Name = 51137116
REMARK  3 active torsions:
REMARK  status: ('A' for Active; 'I' for Inactive)
REMARK    1  A    between atoms: N_1  and  C_9
REMARK    2  A    between atoms: C_5  and  C_10
REMARK    3  A    between atoms: C_9  and  C_11
REMARK                            x       y       z     vdW  Elec       q    Type
REMARK                         _______ _______ _______ _____ _____    ______ ____
ROOT
ATOM      1  N   UNL     1      -1.153   2.176  24.320  0.00  0.00    -0.297 NA
ATOM      5  C   UNL     1       0.380   0.676  23.371  0.00  0.00    +0.070 C 
ATOM      6  C   UNL     1       0.183   2.158  23.718  0.00  0.00    +0.096 C 
ATOM      7  C   UNL     1      -0.544  -0.078  24.342  0.00  0.00    +0.028 C 
ATOM      8  C   UNL     1      -1.187   1.006  25.197  0.00  0.00    +0.085 C 
ENDROOT
BRANCH   5  10
ATOM      2  N   UNL     1       2.841   1.152  23.243  0.00  0.00    -0.342 N 
ATOM      3  N   UNL     1       2.285  -0.968  23.608  0.00  0.00    -0.232 NA
ATOM     10  C   UNL     1       1.829   0.249  23.414  0.00  0.00    +0.113 A 
ATOM     13  C   UNL     1       4.028   0.473  23.333  0.00  0.00    +0.066 A 
ATOM     14  C   UNL     1       3.655  -0.849  23.560  0.00  0.00    +0.089 A 
ATOM     18  C   UNL     1       5.357   0.888  23.237  0.00  0.00    +0.028 A 
ATOM     19  C   UNL     1       4.652  -1.828  23.704  0.00  0.00    +0.030 A 
ATOM     22  C   UNL     1       6.338  -0.100  23.383  0.00  0.00    +0.002 A 
ATOM     23  C   UNL     1       5.994  -1.434  23.612  0.00  0.00    +0.002 A 
ATOM     25  H   UNL     1       2.737   2.145  23.079  0.00  0.00    +0.167 HD
ENDBRANCH   5  10
BRANCH   1   9
ATOM      9  C   UNL     1      -1.422   3.414  25.036  0.00  0.00    +0.121 C 
BRANCH   9  11
ATOM      4  N   UNL     1      -4.743   4.258  26.378  0.00  0.00    -0.360 N 
ATOM     11  C   UNL     1      -2.863   3.514  25.461  0.00  0.00    -0.008 A 
ATOM     12  C   UNL     1      -3.897   2.578  25.177  0.00  0.00    +0.004 A 
ATOM     15  C   UNL     1      -3.414   4.535  26.201  0.00  0.00    +0.088 A 
ATOM     16  C   UNL     1      -5.066   3.069  25.763  0.00  0.00    +0.047 A 
ATOM     17  C   UNL     1      -3.951   1.358  24.475  0.00  0.00    +0.010 A 
ATOM     20  C   UNL     1      -6.291   2.397  25.683  0.00  0.00    +0.026 A 
ATOM     21  C   UNL     1      -5.170   0.675  24.387  0.00  0.00    +0.001 A 
ATOM     24  C   UNL     1      -6.320   1.189  24.982  0.00  0.00    +0.002 A 
ATOM     26  H   UNL     1      -5.393   4.841  26.887  0.00  0.00    +0.165 HD
ENDBRANCH   9  11
ENDBRANCH   1   9
TORSDOF 3
ENDMDL
