MODEL 1
REMARK VINA RESULT:      -4.1      0.000      0.000
REMARK  Name = 75537026
REMARK  5 active torsions:
REMARK  status: ('A' for Active; 'I' for Inactive)
REMARK    1  A    between atoms: O_2  and  C_17
REMARK    2  A    between atoms: O_2  and  C_20
REMARK    3  A    between atoms: N_6  and  C_15
REMARK    4  A    between atoms: C_15  and  C_17
REMARK    5  A    between atoms: C_16  and  C_18
REMARK                            x       y       z     vdW  Elec       q    Type
REMARK                         _______ _______ _______ _____ _____    ______ ____
ROOT
ATOM      1  O   UNL     1      -3.752 -10.752  15.589  0.00  0.00    -0.252 OA
ATOM      3  O   UNL     1      -4.361  -9.916   8.679  0.00  0.00    -0.267 OA
ATOM      5  N   UNL     1      -4.754 -10.404  13.493  0.00  0.00    -0.278 N 
ATOM      6  N   UNL     1      -5.987 -10.044  15.336  0.00  0.00    -0.281 N 
ATOM      7  N   UNL     1      -4.994  -9.474  10.885  0.00  0.00    -0.292 N 
ATOM      9  C   UNL     1      -6.085 -10.103  12.991  0.00  0.00    +0.112 C 
ATOM     10  C   UNL     1      -6.848  -9.654  14.234  0.00  0.00    +0.133 C 
ATOM     11  C   UNL     1      -6.004  -9.061  11.879  0.00  0.00    +0.132 C 
ATOM     12  C   UNL     1      -3.685 -10.722  12.562  0.00  0.00    +0.128 C 
ATOM     13  C   UNL     1      -3.650  -9.692  11.434  0.00  0.00    +0.127 C 
ATOM     14  C   UNL     1      -4.711 -10.443  14.893  0.00  0.00    +0.305 C 
ATOM     16  C   UNL     1      -5.214  -9.615   9.514  0.00  0.00    +0.285 C 
ENDROOT
BRANCH  16  18
ATOM      4  O   UNL     1      -6.949  -8.136   8.686  0.00  0.00    -0.350 OA
ATOM      8  N   UNL     1      -8.262  -8.148   8.229  0.00  0.00    -0.086 NA
ATOM     18  C   UNL     1      -6.575  -9.401   9.005  0.00  0.00    +0.222 A 
ATOM     19  C   UNL     1      -7.613 -10.264   8.769  0.00  0.00    +0.077 A 
ATOM     21  C   UNL     1      -8.637  -9.429   8.287  0.00  0.00    +0.157 A 
ENDBRANCH  16  18
BRANCH   6  15
ATOM     15  C   UNL     1      -6.394  -9.894  16.715  0.00  0.00    +0.137 C 
BRANCH  15  17
ATOM     17  C   UNL     1      -7.906  -9.860  16.850  0.00  0.00    +0.178 C 
BRANCH  17   2
ATOM      2  O   UNL     1      -8.304  -8.603  17.381  0.00  0.00    -0.381 OA
ATOM     20  C   UNL     1      -9.577  -8.207  16.888  0.00  0.00    +0.194 C 
ENDBRANCH  17   2
ENDBRANCH  15  17
ENDBRANCH   6  15
TORSDOF 4
ENDMDL
MODEL 2
REMARK VINA RESULT:      -3.1      2.330      4.652
REMARK  Name = 75537026
REMARK  5 active torsions:
REMARK  status: ('A' for Active; 'I' for Inactive)
REMARK    1  A    between atoms: O_2  and  C_17
REMARK    2  A    between atoms: O_2  and  C_20
REMARK    3  A    between atoms: N_6  and  C_15
REMARK    4  A    between atoms: C_15  and  C_17
REMARK    5  A    between atoms: C_16  and  C_18
REMARK                            x       y       z     vdW  Elec       q    Type
REMARK                         _______ _______ _______ _____ _____    ______ ____
ROOT
ATOM      1  O   UNL     1      -4.614 -10.682  15.778  0.00  0.00    -0.252 OA
ATOM      3  O   UNL     1     -10.527  -9.721  12.182  0.00  0.00    -0.267 OA
ATOM      5  N   UNL     1      -6.042 -10.183  13.980  0.00  0.00    -0.278 N 
ATOM      6  N   UNL     1      -3.854 -10.469  13.556  0.00  0.00    -0.281 N 
ATOM      7  N   UNL     1      -8.290 -10.375  12.358  0.00  0.00    -0.292 N 
ATOM      9  C   UNL     1      -5.898  -9.871  12.568  0.00  0.00    +0.112 C 
ATOM     10  C   UNL     1      -4.461 -10.275  12.251  0.00  0.00    +0.133 C 
ATOM     11  C   UNL     1      -6.962 -10.604  11.756  0.00  0.00    +0.132 C 
ATOM     12  C   UNL     1      -7.344 -10.076  14.616  0.00  0.00    +0.128 C 
ATOM     13  C   UNL     1      -8.401 -10.778  13.766  0.00  0.00    +0.127 C 
ATOM     14  C   UNL     1      -4.811 -10.468  14.588  0.00  0.00    +0.305 C 
ATOM     16  C   UNL     1      -9.408  -9.870  11.692  0.00  0.00    +0.285 C 
ENDROOT
BRANCH  16  18
ATOM      4  O   UNL     1      -8.904  -8.181  10.025  0.00  0.00    -0.350 OA
ATOM      8  N   UNL     1      -8.812  -8.004   8.649  0.00  0.00    -0.086 NA
ATOM     18  C   UNL     1      -9.254  -9.466  10.288  0.00  0.00    +0.222 A 
ATOM     19  C   UNL     1      -9.399 -10.156   9.113  0.00  0.00    +0.077 A 
ATOM     21  C   UNL     1      -9.112  -9.197   8.126  0.00  0.00    +0.157 A 
ENDBRANCH  16  18
BRANCH   6  15
ATOM     15  C   UNL     1      -2.446 -10.759  13.709  0.00  0.00    +0.137 C 
BRANCH  15  17
ATOM     17  C   UNL     1      -1.698 -10.599  12.398  0.00  0.00    +0.178 C 
BRANCH  17   2
ATOM      2  O   UNL     1      -0.982  -9.371  12.410  0.00  0.00    -0.381 OA
ATOM     20  C   UNL     1      -0.601  -8.977  11.099  0.00  0.00    +0.194 C 
ENDBRANCH  17   2
ENDBRANCH  15  17
ENDBRANCH   6  15
TORSDOF 4
ENDMDL
MODEL 3
REMARK VINA RESULT:      -2.8      2.552      4.815
REMARK  Name = 75537026
REMARK  5 active torsions:
REMARK  status: ('A' for Active; 'I' for Inactive)
REMARK    1  A    between atoms: O_2  and  C_17
REMARK    2  A    between atoms: O_2  and  C_20
REMARK    3  A    between atoms: N_6  and  C_15
REMARK    4  A    between atoms: C_15  and  C_17
REMARK    5  A    between atoms: C_16  and  C_18
REMARK                            x       y       z     vdW  Elec       q    Type
REMARK                         _______ _______ _______ _____ _____    ______ ____
ROOT
ATOM      1  O   UNL     1      -4.794 -10.182  17.904  0.00  0.00    -0.252 OA
ATOM      3  O   UNL     1     -10.519  -9.646  13.936  0.00  0.00    -0.267 OA
ATOM      5  N   UNL     1      -6.130  -9.976  15.982  0.00  0.00    -0.278 N 
ATOM      6  N   UNL     1      -3.951 -10.454  15.718  0.00  0.00    -0.281 N 
ATOM      7  N   UNL     1      -8.332 -10.368  14.333  0.00  0.00    -0.292 N 
ATOM      9  C   UNL     1      -5.923  -9.958  14.544  0.00  0.00    +0.112 C 
ATOM     10  C   UNL     1      -4.503 -10.491  14.376  0.00  0.00    +0.133 C 
ATOM     11  C   UNL     1      -7.002 -10.781  13.846  0.00  0.00    +0.132 C 
ATOM     12  C   UNL     1      -7.443  -9.677  16.528  0.00  0.00    +0.128 C 
ATOM     13  C   UNL     1      -8.513 -10.477  15.787  0.00  0.00    +0.127 C 
ATOM     14  C   UNL     1      -4.939 -10.198  16.688  0.00  0.00    +0.305 C 
ATOM     16  C   UNL     1      -9.396  -9.948  13.533  0.00  0.00    +0.285 C 
ENDROOT
BRANCH  16  18
ATOM      4  O   UNL     1      -8.147  -9.063  11.651  0.00  0.00    -0.350 OA
ATOM      8  N   UNL     1      -8.107  -9.093  10.262  0.00  0.00    -0.086 NA
ATOM     18  C   UNL     1      -9.173  -9.839  12.086  0.00  0.00    +0.222 A 
ATOM     19  C   UNL     1      -9.823 -10.389  11.013  0.00  0.00    +0.077 A 
ATOM     21  C   UNL     1      -9.118  -9.891   9.904  0.00  0.00    +0.157 A 
ENDBRANCH  16  18
BRANCH   6  15
ATOM     15  C   UNL     1      -2.569 -10.781  15.986  0.00  0.00    +0.137 C 
BRANCH  15  17
ATOM     17  C   UNL     1      -1.624  -9.940  15.147  0.00  0.00    +0.178 C 
BRANCH  17   2
ATOM      2  O   UNL     1      -1.234 -10.676  13.995  0.00  0.00    -0.381 OA
ATOM     20  C   UNL     1      -1.828 -10.151  12.815  0.00  0.00    +0.194 C 
ENDBRANCH  17   2
ENDBRANCH  15  17
ENDBRANCH   6  15
TORSDOF 4
ENDMDL
MODEL 4
REMARK VINA RESULT:      -2.5     15.813     17.643
REMARK  Name = 75537026
REMARK  5 active torsions:
REMARK  status: ('A' for Active; 'I' for Inactive)
REMARK    1  A    between atoms: O_2  and  C_17
REMARK    2  A    between atoms: O_2  and  C_20
REMARK    3  A    between atoms: N_6  and  C_15
REMARK    4  A    between atoms: C_15  and  C_17
REMARK    5  A    between atoms: C_16  and  C_18
REMARK                            x       y       z     vdW  Elec       q    Type
REMARK                         _______ _______ _______ _____ _____    ______ ____
ROOT
ATOM      1  O   UNL     1      -0.232  -2.296  24.332  0.00  0.00    -0.252 OA
ATOM      3  O   UNL     1      -6.104   1.014  26.166  0.00  0.00    -0.267 OA
ATOM      5  N   UNL     1      -1.734  -0.534  24.731  0.00  0.00    -0.278 N 
ATOM      6  N   UNL     1       0.148  -0.092  23.584  0.00  0.00    -0.281 N 
ATOM      7  N   UNL     1      -4.183   0.771  24.858  0.00  0.00    -0.292 N 
ATOM      9  C   UNL     1      -1.755   0.905  24.531  0.00  0.00    +0.112 C 
ATOM     10  C   UNL     1      -0.593   1.156  23.575  0.00  0.00    +0.133 C 
ATOM     11  C   UNL     1      -3.121   1.343  24.008  0.00  0.00    +0.132 C 
ATOM     12  C   UNL     1      -2.804  -1.178  25.473  0.00  0.00    +0.128 C 
ATOM     13  C   UNL     1      -4.160  -0.694  24.964  0.00  0.00    +0.127 C 
ATOM     14  C   UNL     1      -0.563  -1.122  24.232  0.00  0.00    +0.305 C 
ATOM     16  C   UNL     1      -5.192   1.495  25.495  0.00  0.00    +0.285 C 
ENDROOT
BRANCH  16  18
ATOM      4  O   UNL     1      -6.253   3.652  25.823  0.00  0.00    -0.350 OA
ATOM      8  N   UNL     1      -6.040   5.011  25.620  0.00  0.00    -0.086 NA
ATOM     18  C   UNL     1      -5.175   2.959  25.376  0.00  0.00    +0.222 A 
ATOM     19  C   UNL     1      -4.241   3.828  24.877  0.00  0.00    +0.077 A 
ATOM     21  C   UNL     1      -4.833   5.091  25.054  0.00  0.00    +0.157 A 
ENDBRANCH  16  18
BRANCH   6  15
ATOM     15  C   UNL     1       1.401  -0.244  22.881  0.00  0.00    +0.137 C 
BRANCH  15  17
ATOM     17  C   UNL     1       2.363   0.885  23.208  0.00  0.00    +0.178 C 
BRANCH  17   2
ATOM      2  O   UNL     1       3.524   0.764  22.396  0.00  0.00    -0.381 OA
ATOM     20  C   UNL     1       4.678   0.480  23.177  0.00  0.00    +0.194 C 
ENDBRANCH  17   2
ENDBRANCH  15  17
ENDBRANCH   6  15
TORSDOF 4
ENDMDL
MODEL 5
REMARK VINA RESULT:      -2.2      2.663      5.107
REMARK  Name = 75537026
REMARK  5 active torsions:
REMARK  status: ('A' for Active; 'I' for Inactive)
REMARK    1  A    between atoms: O_2  and  C_17
REMARK    2  A    between atoms: O_2  and  C_20
REMARK    3  A    between atoms: N_6  and  C_15
REMARK    4  A    between atoms: C_15  and  C_17
REMARK    5  A    between atoms: C_16  and  C_18
REMARK                            x       y       z     vdW  Elec       q    Type
REMARK                         _______ _______ _______ _____ _____    ______ ____
ROOT
ATOM      1  O   UNL     1      -2.159 -10.328  13.826  0.00  0.00    -0.252 OA
ATOM      3  O   UNL     1      -8.961  -9.906  12.290  0.00  0.00    -0.267 OA
ATOM      5  N   UNL     1      -4.117  -9.903  12.600  0.00  0.00    -0.278 N 
ATOM      6  N   UNL     1      -2.152  -9.880  11.511  0.00  0.00    -0.281 N 
ATOM      7  N   UNL     1      -6.726 -10.278  11.719  0.00  0.00    -0.292 N 
ATOM      9  C   UNL     1      -4.452  -9.487  11.248  0.00  0.00    +0.112 C 
ATOM     10  C   UNL     1      -3.150  -9.684  10.476  0.00  0.00    +0.133 C 
ATOM     11  C   UNL     1      -5.634 -10.298  10.726  0.00  0.00    +0.132 C 
ATOM     12  C   UNL     1      -5.161 -10.003  13.605  0.00  0.00    +0.128 C 
ATOM     13  C   UNL     1      -6.353 -10.780  13.048  0.00  0.00    +0.127 C 
ATOM     14  C   UNL     1      -2.736 -10.066  12.779  0.00  0.00    +0.305 C 
ATOM     16  C   UNL     1      -8.041  -9.879  11.474  0.00  0.00    +0.285 C 
ENDROOT
BRANCH  16  18
ATOM      4  O   UNL     1      -7.774  -8.227   9.718  0.00  0.00    -0.350 OA
ATOM      8  N   UNL     1      -8.219  -7.919   8.438  0.00  0.00    -0.086 NA
ATOM     18  C   UNL     1      -8.373  -9.371  10.136  0.00  0.00    +0.222 A 
ATOM     19  C   UNL     1      -9.212  -9.838   9.159  0.00  0.00    +0.077 A 
ATOM     21  C   UNL     1      -9.076  -8.895   8.125  0.00  0.00    +0.157 A 
ENDBRANCH  16  18
BRANCH   6  15
ATOM     15  C   UNL     1      -0.744  -9.997  11.204  0.00  0.00    +0.137 C 
BRANCH  15  17
ATOM     17  C   UNL     1      -0.106  -8.637  10.987  0.00  0.00    +0.178 C 
BRANCH  17   2
ATOM      2  O   UNL     1      -0.043  -7.942  12.225  0.00  0.00    -0.381 OA
ATOM     20  C   UNL     1       1.101  -7.102  12.294  0.00  0.00    +0.194 C 
ENDBRANCH  17   2
ENDBRANCH  15  17
ENDBRANCH   6  15
TORSDOF 4
ENDMDL
MODEL 6
REMARK VINA RESULT:      -1.9     15.593     17.694
REMARK  Name = 75537026
REMARK  5 active torsions:
REMARK  status: ('A' for Active; 'I' for Inactive)
REMARK    1  A    between atoms: O_2  and  C_17
REMARK    2  A    between atoms: O_2  and  C_20
REMARK    3  A    between atoms: N_6  and  C_15
REMARK    4  A    between atoms: C_15  and  C_17
REMARK    5  A    between atoms: C_16  and  C_18
REMARK                            x       y       z     vdW  Elec       q    Type
REMARK                         _______ _______ _______ _____ _____    ______ ____
ROOT
ATOM      1  O   UNL     1       2.142  -1.190  23.427  0.00  0.00    -0.252 OA
ATOM      3  O   UNL     1      -4.552  -0.507  25.310  0.00  0.00    -0.267 OA
ATOM      5  N   UNL     1       0.133  -0.165  24.088  0.00  0.00    -0.278 N 
ATOM      6  N   UNL     1       1.807   1.143  23.354  0.00  0.00    -0.281 N 
ATOM      7  N   UNL     1      -2.611   0.240  24.243  0.00  0.00    -0.292 N 
ATOM      9  C   UNL     1      -0.350   1.192  24.281  0.00  0.00    +0.112 C 
ATOM     10  C   UNL     1       0.699   2.053  23.585  0.00  0.00    +0.133 C 
ATOM     11  C   UNL     1      -1.764   1.331  23.723  0.00  0.00    +0.132 C 
ATOM     12  C   UNL     1      -0.694  -1.292  24.486  0.00  0.00    +0.128 C 
ATOM     13  C   UNL     1      -2.115  -1.112  23.955  0.00  0.00    +0.127 C 
ATOM     14  C   UNL     1       1.449  -0.196  23.605  0.00  0.00    +0.305 C 
ATOM     16  C   UNL     1      -3.824   0.403  24.916  0.00  0.00    +0.285 C 
ENDROOT
BRANCH  16  18
ATOM      4  O   UNL     1      -3.368   2.675  25.636  0.00  0.00    -0.350 OA
ATOM      8  N   UNL     1      -3.997   3.897  25.843  0.00  0.00    -0.086 NA
ATOM     18  C   UNL     1      -4.281   1.770  25.198  0.00  0.00    +0.222 A 
ATOM     19  C   UNL     1      -5.512   2.363  25.106  0.00  0.00    +0.077 A 
ATOM     21  C   UNL     1      -5.277   3.686  25.520  0.00  0.00    +0.157 A 
ENDBRANCH  16  18
BRANCH   6  15
ATOM     15  C   UNL     1       3.065   1.592  22.804  0.00  0.00    +0.137 C 
BRANCH  15  17
ATOM     17  C   UNL     1       4.094   0.476  22.781  0.00  0.00    +0.178 C 
BRANCH  17   2
ATOM      2  O   UNL     1       5.021   0.668  23.841  0.00  0.00    -0.381 OA
ATOM     20  C   UNL     1       5.561  -0.568  24.291  0.00  0.00    +0.194 C 
ENDBRANCH  17   2
ENDBRANCH  15  17
ENDBRANCH   6  15
TORSDOF 4
ENDMDL
MODEL 7
REMARK VINA RESULT:      -1.8     16.446     18.333
REMARK  Name = 75537026
REMARK  5 active torsions:
REMARK  status: ('A' for Active; 'I' for Inactive)
REMARK    1  A    between atoms: O_2  and  C_17
REMARK    2  A    between atoms: O_2  and  C_20
REMARK    3  A    between atoms: N_6  and  C_15
REMARK    4  A    between atoms: C_15  and  C_17
REMARK    5  A    between atoms: C_16  and  C_18
REMARK                            x       y       z     vdW  Elec       q    Type
REMARK                         _______ _______ _______ _____ _____    ______ ____
ROOT
ATOM      1  O   UNL     1       2.102   2.207  23.617  0.00  0.00    -0.252 OA
ATOM      3  O   UNL     1      -3.880   4.810  26.118  0.00  0.00    -0.267 OA
ATOM      5  N   UNL     1      -0.183   2.365  24.138  0.00  0.00    -0.278 N 
ATOM      6  N   UNL     1       0.614   0.387  23.431  0.00  0.00    -0.281 N 
ATOM      7  N   UNL     1      -2.439   3.040  25.613  0.00  0.00    -0.292 N 
ATOM      9  C   UNL     1      -1.357   1.516  24.024  0.00  0.00    +0.112 C 
ATOM     10  C   UNL     1      -0.778   0.130  23.754  0.00  0.00    +0.133 C 
ATOM     11  C   UNL     1      -2.206   1.620  25.288  0.00  0.00    +0.132 C 
ATOM     12  C   UNL     1      -0.330   3.750  24.551  0.00  0.00    +0.128 C 
ATOM     13  C   UNL     1      -1.218   3.836  25.791  0.00  0.00    +0.127 C 
ATOM     14  C   UNL     1       0.985   1.716  23.713  0.00  0.00    +0.305 C 
ATOM     16  C   UNL     1      -3.687   3.636  25.803  0.00  0.00    +0.285 C 
ENDROOT
BRANCH  16  18
ATOM      4  O   UNL     1      -5.721   2.627  26.658  0.00  0.00    -0.350 OA
ATOM      8  N   UNL     1      -6.784   1.823  26.265  0.00  0.00    -0.086 NA
ATOM     18  C   UNL     1      -4.886   2.811  25.603  0.00  0.00    +0.222 A 
ATOM     19  C   UNL     1      -5.370   2.145  24.509  0.00  0.00    +0.077 A 
ATOM     21  C   UNL     1      -6.553   1.548  24.978  0.00  0.00    +0.157 A 
ENDBRANCH  16  18
BRANCH   6  15
ATOM     15  C   UNL     1       1.507  -0.666  23.002  0.00  0.00    +0.137 C 
BRANCH  15  17
ATOM     17  C   UNL     1       2.801  -0.104  22.440  0.00  0.00    +0.178 C 
BRANCH  17   2
ATOM      2  O   UNL     1       3.901  -0.636  23.167  0.00  0.00    -0.381 OA
ATOM     20  C   UNL     1       4.956   0.309  23.282  0.00  0.00    +0.194 C 
ENDBRANCH  17   2
ENDBRANCH  15  17
ENDBRANCH   6  15
TORSDOF 4
ENDMDL
MODEL 8
REMARK VINA RESULT:      -0.8     14.513     17.277
REMARK  Name = 75537026
REMARK  5 active torsions:
REMARK  status: ('A' for Active; 'I' for Inactive)
REMARK    1  A    between atoms: O_2  and  C_17
REMARK    2  A    between atoms: O_2  and  C_20
REMARK    3  A    between atoms: N_6  and  C_15
REMARK    4  A    between atoms: C_15  and  C_17
REMARK    5  A    between atoms: C_16  and  C_18
REMARK                            x       y       z     vdW  Elec       q    Type
REMARK                         _______ _______ _______ _____ _____    ______ ____
ROOT
ATOM      1  O   UNL     1       2.888   2.542  23.179  0.00  0.00    -0.252 OA
ATOM      3  O   UNL     1      -3.595   1.284  25.459  0.00  0.00    -0.267 OA
ATOM      5  N   UNL     1       0.865   1.406  23.547  0.00  0.00    -0.278 N 
ATOM      6  N   UNL     1       2.608   0.243  22.736  0.00  0.00    -0.281 N 
ATOM      7  N   UNL     1      -1.424   0.615  24.910  0.00  0.00    -0.292 N 
ATOM      9  C   UNL     1       0.330   0.082  23.280  0.00  0.00    +0.112 C 
ATOM     10  C   UNL     1       1.564  -0.746  22.936  0.00  0.00    +0.133 C 
ATOM     11  C   UNL     1      -0.462  -0.419  24.484  0.00  0.00    +0.132 C 
ATOM     12  C   UNL     1      -0.006   2.448  24.064  0.00  0.00    +0.128 C 
ATOM     13  C   UNL     1      -0.821   1.913  25.241  0.00  0.00    +0.127 C 
ATOM     14  C   UNL     1       2.205   1.526  23.154  0.00  0.00    +0.305 C 
ATOM     16  C   UNL     1      -2.800   0.434  25.060  0.00  0.00    +0.285 C 
ENDROOT
BRANCH  16  18
ATOM      4  O   UNL     1      -3.022  -1.948  25.462  0.00  0.00    -0.350 OA
ATOM      8  N   UNL     1      -3.660  -3.080  24.967  0.00  0.00    -0.086 NA
ATOM     18  C   UNL     1      -3.368  -0.874  24.708  0.00  0.00    +0.222 A 
ATOM     19  C   UNL     1      -4.228  -1.264  23.715  0.00  0.00    +0.077 A 
ATOM     21  C   UNL     1      -4.374  -2.646  23.924  0.00  0.00    +0.157 A 
ENDBRANCH  16  18
BRANCH   6  15
ATOM     15  C   UNL     1       3.931  -0.121  22.283  0.00  0.00    +0.137 C 
BRANCH  15  17
ATOM     17  C   UNL     1       5.008   0.470  23.176  0.00  0.00    +0.178 C 
BRANCH  17   2
ATOM      2  O   UNL     1       5.240  -0.402  24.275  0.00  0.00    -0.381 OA
ATOM     20  C   UNL     1       4.942  -1.751  23.941  0.00  0.00    +0.194 C 
ENDBRANCH  17   2
ENDBRANCH  15  17
ENDBRANCH   6  15
TORSDOF 4
ENDMDL
