MODEL 1
REMARK VINA RESULT:      -6.6      0.000      0.000
REMARK  Name = 11943126
REMARK  7 active torsions:
REMARK  status: ('A' for Active; 'I' for Inactive)
REMARK    1  A    between atoms: O_1  and  C_12
REMARK    2  A    between atoms: O_1  and  C_15
REMARK    3  A    between atoms: N_4  and  C_16
REMARK    4  A    between atoms: C_6  and  C_12
REMARK    5  A    between atoms: C_8  and  C_13
REMARK    6  A    between atoms: C_16  and  C_17
REMARK    7  A    between atoms: C_17  and  C_18
REMARK                            x       y       z     vdW  Elec       q    Type
REMARK                         _______ _______ _______ _____ _____    ______ ____
ROOT
ATOM      3  N   UNL     1      -1.808   2.518  25.197  0.00  0.00    -0.295 NA
ATOM      5  C   UNL     1      -3.349   1.486  23.372  0.00  0.00    +0.008 C 
ATOM      6  C   UNL     1      -1.027   2.270  23.955  0.00  0.00    +0.095 C 
ATOM      7  C   UNL     1      -1.876   1.504  22.915  0.00  0.00    +0.027 C 
ATOM      8  C   UNL     1      -3.455   0.698  24.696  0.00  0.00    +0.081 C 
ATOM      9  C   UNL     1      -3.750   2.939  23.682  0.00  0.00    +0.020 C 
ATOM     10  C   UNL     1      -2.411   1.254  25.688  0.00  0.00    +0.101 C 
ATOM     11  C   UNL     1      -2.908   3.456  24.863  0.00  0.00    +0.085 C 
ENDROOT
BRANCH   8  13
ATOM     13  C   UNL     1      -3.290  -0.750  24.493  0.00  0.00    -0.101 C 
ATOM     14  C   UNL     1      -3.153  -1.931  24.326  0.00  0.00    +0.004 C 
ENDBRANCH   8  13
BRANCH   6  12
ATOM     12  C   UNL     1       0.302   1.566  24.234  0.00  0.00    +0.252 C 
BRANCH  12   1
ATOM      1  O   UNL     1       0.341   0.371  23.478  0.00  0.00    -0.449 OA
BRANCH   1  15
ATOM      2  O   UNL     1       1.431  -0.468  21.637  0.00  0.00    -0.226 OA
ATOM      4  N   UNL     1       2.532   0.853  23.195  0.00  0.00    -0.281 N 
ATOM     15  C   UNL     1       1.440   0.192  22.672  0.00  0.00    +0.400 C 
ATOM     19  H   UNL     1       2.407   1.369  24.060  0.00  0.00    +0.152 HD
BRANCH   4  16
ATOM     16  C   UNL     1       3.838   0.856  22.579  0.00  0.00    +0.107 C 
BRANCH  16  17
ATOM     17  C   UNL     1       4.951   0.561  23.577  0.00  0.00    +0.015 C 
ATOM     18  C   UNL     1       5.052  -0.917  23.926  0.00  0.00    +0.005 C 
ENDBRANCH  16  17
ENDBRANCH   4  16
ENDBRANCH   1  15
ENDBRANCH  12   1
ENDBRANCH   6  12
TORSDOF 6
ENDMDL
MODEL 2
REMARK VINA RESULT:      -6.2      2.946      4.897
REMARK  Name = 11943126
REMARK  7 active torsions:
REMARK  status: ('A' for Active; 'I' for Inactive)
REMARK    1  A    between atoms: O_1  and  C_12
REMARK    2  A    between atoms: O_1  and  C_15
REMARK    3  A    between atoms: N_4  and  C_16
REMARK    4  A    between atoms: C_6  and  C_12
REMARK    5  A    between atoms: C_8  and  C_13
REMARK    6  A    between atoms: C_16  and  C_17
REMARK    7  A    between atoms: C_17  and  C_18
REMARK                            x       y       z     vdW  Elec       q    Type
REMARK                         _______ _______ _______ _____ _____    ______ ____
ROOT
ATOM      3  N   UNL     1      -2.327  -1.270  23.664  0.00  0.00    -0.295 NA
ATOM      5  C   UNL     1      -3.551  -0.870  25.925  0.00  0.00    +0.008 C 
ATOM      6  C   UNL     1      -1.453  -0.492  24.583  0.00  0.00    +0.095 C 
ATOM      7  C   UNL     1      -2.217  -0.097  25.867  0.00  0.00    +0.027 C 
ATOM      8  C   UNL     1      -4.435  -0.440  24.734  0.00  0.00    +0.081 C 
ATOM      9  C   UNL     1      -3.225  -2.362  25.725  0.00  0.00    +0.020 C 
ATOM     10  C   UNL     1      -3.605  -0.551  23.437  0.00  0.00    +0.101 C 
ATOM     11  C   UNL     1      -2.635  -2.566  24.317  0.00  0.00    +0.085 C 
ENDROOT
BRANCH   8  13
ATOM     13  C   UNL     1      -4.980   0.916  24.912  0.00  0.00    -0.101 C 
ATOM     14  C   UNL     1      -5.425   2.022  25.056  0.00  0.00    +0.004 C 
ENDBRANCH   8  13
BRANCH   6  12
ATOM     12  C   UNL     1      -0.824   0.724  23.899  0.00  0.00    +0.252 C 
BRANCH  12   1
ATOM      1  O   UNL     1       0.282   1.146  24.672  0.00  0.00    -0.449 OA
BRANCH   1  15
ATOM      2  O   UNL     1       0.548   2.547  26.474  0.00  0.00    -0.226 OA
ATOM      4  N   UNL     1      -0.494   3.265  24.529  0.00  0.00    -0.281 N 
ATOM     15  C   UNL     1       0.147   2.345  25.332  0.00  0.00    +0.400 C 
ATOM     19  H   UNL     1      -0.773   2.972  23.598  0.00  0.00    +0.152 HD
BRANCH   4  16
ATOM     16  C   UNL     1      -0.787   4.619  24.936  0.00  0.00    +0.107 C 
BRANCH  16  17
ATOM     17  C   UNL     1      -2.279   4.856  25.136  0.00  0.00    +0.015 C 
ATOM     18  C   UNL     1      -2.851   4.059  26.299  0.00  0.00    +0.005 C 
ENDBRANCH  16  17
ENDBRANCH   4  16
ENDBRANCH   1  15
ENDBRANCH  12   1
ENDBRANCH   6  12
TORSDOF 6
ENDMDL
MODEL 3
REMARK VINA RESULT:      -6.1      1.078      1.180
REMARK  Name = 11943126
REMARK  7 active torsions:
REMARK  status: ('A' for Active; 'I' for Inactive)
REMARK    1  A    between atoms: O_1  and  C_12
REMARK    2  A    between atoms: O_1  and  C_15
REMARK    3  A    between atoms: N_4  and  C_16
REMARK    4  A    between atoms: C_6  and  C_12
REMARK    5  A    between atoms: C_8  and  C_13
REMARK    6  A    between atoms: C_16  and  C_17
REMARK    7  A    between atoms: C_17  and  C_18
REMARK                            x       y       z     vdW  Elec       q    Type
REMARK                         _______ _______ _______ _____ _____    ______ ____
ROOT
ATOM      3  N   UNL     1      -2.275   2.889  25.486  0.00  0.00    -0.295 NA
ATOM      5  C   UNL     1      -4.053   2.311  23.677  0.00  0.00    +0.008 C 
ATOM      6  C   UNL     1      -1.646   2.889  24.138  0.00  0.00    +0.095 C 
ATOM      7  C   UNL     1      -2.639   2.386  23.066  0.00  0.00    +0.027 C 
ATOM      8  C   UNL     1      -4.057   1.263  24.811  0.00  0.00    +0.081 C 
ATOM      9  C   UNL     1      -4.345   3.676  24.327  0.00  0.00    +0.020 C 
ATOM     10  C   UNL     1      -2.886   1.567  25.769  0.00  0.00    +0.101 C 
ATOM     11  C   UNL     1      -3.355   3.906  25.484  0.00  0.00    +0.085 C 
ENDROOT
BRANCH   8  13
ATOM     13  C   UNL     1      -3.989  -0.112  24.293  0.00  0.00    -0.101 C 
ATOM     14  C   UNL     1      -3.932  -1.234  23.868  0.00  0.00    +0.004 C 
ENDBRANCH   8  13
BRANCH   6  12
ATOM     12  C   UNL     1      -0.332   2.106  24.108  0.00  0.00    +0.252 C 
BRANCH  12   1
ATOM      1  O   UNL     1      -0.560   0.877  23.447  0.00  0.00    -0.449 OA
BRANCH   1  15
ATOM      2  O   UNL     1       0.392  -1.172  23.866  0.00  0.00    -0.226 OA
ATOM      4  N   UNL     1       1.613   0.556  22.915  0.00  0.00    -0.281 N 
ATOM     15  C   UNL     1       0.480  -0.022  23.447  0.00  0.00    +0.400 C 
ATOM     19  H   UNL     1       1.554   1.520  22.599  0.00  0.00    +0.152 HD
BRANCH   4  16
ATOM     16  C   UNL     1       2.875  -0.132  22.777  0.00  0.00    +0.107 C 
BRANCH  16  17
ATOM     17  C   UNL     1       4.063   0.822  22.812  0.00  0.00    +0.015 C 
ATOM     18  C   UNL     1       5.259   0.247  23.559  0.00  0.00    +0.005 C 
ENDBRANCH  16  17
ENDBRANCH   4  16
ENDBRANCH   1  15
ENDBRANCH  12   1
ENDBRANCH   6  12
TORSDOF 6
ENDMDL
MODEL 4
REMARK VINA RESULT:      -6.1      2.803      4.326
REMARK  Name = 11943126
REMARK  7 active torsions:
REMARK  status: ('A' for Active; 'I' for Inactive)
REMARK    1  A    between atoms: O_1  and  C_12
REMARK    2  A    between atoms: O_1  and  C_15
REMARK    3  A    between atoms: N_4  and  C_16
REMARK    4  A    between atoms: C_6  and  C_12
REMARK    5  A    between atoms: C_8  and  C_13
REMARK    6  A    between atoms: C_16  and  C_17
REMARK    7  A    between atoms: C_17  and  C_18
REMARK                            x       y       z     vdW  Elec       q    Type
REMARK                         _______ _______ _______ _____ _____    ______ ____
ROOT
ATOM      3  N   UNL     1      -1.823   3.733  25.950  0.00  0.00    -0.295 NA
ATOM      5  C   UNL     1      -3.648   3.738  24.096  0.00  0.00    +0.008 C 
ATOM      6  C   UNL     1      -1.560   2.640  24.977  0.00  0.00    +0.095 C 
ATOM      7  C   UNL     1      -2.719   2.514  23.963  0.00  0.00    +0.027 C 
ATOM      8  C   UNL     1      -4.288   3.735  25.502  0.00  0.00    +0.081 C 
ATOM      9  C   UNL     1      -2.764   4.996  24.009  0.00  0.00    +0.020 C 
ATOM     10  C   UNL     1      -3.169   3.574  26.553  0.00  0.00    +0.101 C 
ATOM     11  C   UNL     1      -1.798   5.018  25.208  0.00  0.00    +0.085 C 
ENDROOT
BRANCH   8  13
ATOM     13  C   UNL     1      -5.313   2.688  25.640  0.00  0.00    -0.101 C 
ATOM     14  C   UNL     1      -6.151   1.835  25.752  0.00  0.00    +0.004 C 
ENDBRANCH   8  13
BRANCH   6  12
ATOM     12  C   UNL     1      -1.260   1.307  25.666  0.00  0.00    +0.252 C 
BRANCH  12   1
ATOM      1  O   UNL     1      -0.174   0.695  24.998  0.00  0.00    -0.449 OA
BRANCH   1  15
ATOM      2  O   UNL     1       0.185  -0.885  23.368  0.00  0.00    -0.226 OA
ATOM      4  N   UNL     1      -1.501  -1.135  24.944  0.00  0.00    -0.281 N 
ATOM     15  C   UNL     1      -0.442  -0.485  24.345  0.00  0.00    +0.400 C 
ATOM     19  H   UNL     1      -1.933  -0.698  25.752  0.00  0.00    +0.152 HD
BRANCH   4  16
ATOM     16  C   UNL     1      -2.024  -2.402  24.490  0.00  0.00    +0.107 C 
BRANCH  16  17
ATOM     17  C   UNL     1      -3.538  -2.378  24.322  0.00  0.00    +0.015 C 
ATOM     18  C   UNL     1      -4.109  -0.967  24.330  0.00  0.00    +0.005 C 
ENDBRANCH  16  17
ENDBRANCH   4  16
ENDBRANCH   1  15
ENDBRANCH  12   1
ENDBRANCH   6  12
TORSDOF 6
ENDMDL
MODEL 5
REMARK VINA RESULT:      -5.9      3.349      5.461
REMARK  Name = 11943126
REMARK  7 active torsions:
REMARK  status: ('A' for Active; 'I' for Inactive)
REMARK    1  A    between atoms: O_1  and  C_12
REMARK    2  A    between atoms: O_1  and  C_15
REMARK    3  A    between atoms: N_4  and  C_16
REMARK    4  A    between atoms: C_6  and  C_12
REMARK    5  A    between atoms: C_8  and  C_13
REMARK    6  A    between atoms: C_16  and  C_17
REMARK    7  A    between atoms: C_17  and  C_18
REMARK                            x       y       z     vdW  Elec       q    Type
REMARK                         _______ _______ _______ _____ _____    ______ ____
ROOT
ATOM      3  N   UNL     1      -3.287  -0.116  25.714  0.00  0.00    -0.295 NA
ATOM      5  C   UNL     1      -2.249  -1.947  24.185  0.00  0.00    +0.008 C 
ATOM      6  C   UNL     1      -3.875  -0.031  24.351  0.00  0.00    +0.095 C 
ATOM      7  C   UNL     1      -3.156  -0.994  23.380  0.00  0.00    +0.027 C 
ATOM      8  C   UNL     1      -1.147  -1.122  24.885  0.00  0.00    +0.081 C 
ATOM      9  C   UNL     1      -3.112  -2.574  25.295  0.00  0.00    +0.020 C 
ATOM     10  C   UNL     1      -1.812   0.042  25.651  0.00  0.00    +0.101 C 
ATOM     11  C   UNL     1      -3.584  -1.465  26.255  0.00  0.00    +0.085 C 
ENDROOT
BRANCH   8  13
ATOM     13  C   UNL     1      -0.135  -0.634  23.935  0.00  0.00    -0.101 C 
ATOM     14  C   UNL     1       0.692  -0.237  23.159  0.00  0.00    +0.004 C 
ENDBRANCH   8  13
BRANCH   6  12
ATOM     12  C   UNL     1      -3.899   1.402  23.816  0.00  0.00    +0.252 C 
BRANCH  12   1
ATOM      1  O   UNL     1      -4.911   2.116  24.499  0.00  0.00    -0.449 OA
BRANCH   1  15
ATOM      2  O   UNL     1      -5.305   4.051  25.674  0.00  0.00    -0.226 OA
ATOM      4  N   UNL     1      -3.158   3.435  25.044  0.00  0.00    -0.281 N 
ATOM     15  C   UNL     1      -4.526   3.277  25.126  0.00  0.00    +0.400 C 
ATOM     19  H   UNL     1      -2.623   2.718  24.564  0.00  0.00    +0.152 HD
BRANCH   4  16
ATOM     16  C   UNL     1      -2.446   4.558  25.607  0.00  0.00    +0.107 C 
BRANCH  16  17
ATOM     17  C   UNL     1      -1.024   4.672  25.070  0.00  0.00    +0.015 C 
ATOM     18  C   UNL     1      -0.533   3.382  24.427  0.00  0.00    +0.005 C 
ENDBRANCH  16  17
ENDBRANCH   4  16
ENDBRANCH   1  15
ENDBRANCH  12   1
ENDBRANCH   6  12
TORSDOF 6
ENDMDL
MODEL 6
REMARK VINA RESULT:      -5.5      3.335      4.631
REMARK  Name = 11943126
REMARK  7 active torsions:
REMARK  status: ('A' for Active; 'I' for Inactive)
REMARK    1  A    between atoms: O_1  and  C_12
REMARK    2  A    between atoms: O_1  and  C_15
REMARK    3  A    between atoms: N_4  and  C_16
REMARK    4  A    between atoms: C_6  and  C_12
REMARK    5  A    between atoms: C_8  and  C_13
REMARK    6  A    between atoms: C_16  and  C_17
REMARK    7  A    between atoms: C_17  and  C_18
REMARK                            x       y       z     vdW  Elec       q    Type
REMARK                         _______ _______ _______ _____ _____    ______ ____
ROOT
ATOM      3  N   UNL     1      -3.662   2.090  23.550  0.00  0.00    -0.295 NA
ATOM      5  C   UNL     1      -2.879   3.982  25.156  0.00  0.00    +0.008 C 
ATOM      6  C   UNL     1      -4.391   1.992  24.842  0.00  0.00    +0.095 C 
ATOM      7  C   UNL     1      -3.826   2.996  25.871  0.00  0.00    +0.027 C 
ATOM      8  C   UNL     1      -1.673   3.201  24.592  0.00  0.00    +0.081 C 
ATOM      9  C   UNL     1      -3.644   4.557  23.949  0.00  0.00    +0.020 C 
ATOM     10  C   UNL     1      -2.198   2.001  23.775  0.00  0.00    +0.101 C 
ATOM     11  C   UNL     1      -3.958   3.419  22.961  0.00  0.00    +0.085 C 
ENDROOT
BRANCH   8  13
ATOM     13  C   UNL     1      -0.749   2.769  25.653  0.00  0.00    -0.101 C 
ATOM     14  C   UNL     1       0.003   2.416  26.521  0.00  0.00    +0.004 C 
ENDBRANCH   8  13
BRANCH   6  12
ATOM     12  C   UNL     1      -4.410   0.564  25.393  0.00  0.00    +0.252 C 
BRANCH  12   1
ATOM      1  O   UNL     1      -4.780  -0.312  24.346  0.00  0.00    -0.449 OA
BRANCH   1  15
ATOM      2  O   UNL     1      -4.372  -2.444  23.592  0.00  0.00    -0.226 OA
ATOM      4  N   UNL     1      -2.767  -1.251  24.768  0.00  0.00    -0.281 N 
ATOM     15  C   UNL     1      -4.002  -1.433  24.181  0.00  0.00    +0.400 C 
ATOM     19  H   UNL     1      -2.582  -0.363  25.223  0.00  0.00    +0.152 HD
BRANCH   4  16
ATOM     16  C   UNL     1      -1.723  -2.249  24.766  0.00  0.00    +0.107 C 
BRANCH  16  17
ATOM     17  C   UNL     1      -0.351  -1.654  25.059  0.00  0.00    +0.015 C 
ATOM     18  C   UNL     1       0.102  -0.666  23.993  0.00  0.00    +0.005 C 
ENDBRANCH  16  17
ENDBRANCH   4  16
ENDBRANCH   1  15
ENDBRANCH  12   1
ENDBRANCH   6  12
TORSDOF 6
ENDMDL
MODEL 7
REMARK VINA RESULT:      -5.5      2.575      3.200
REMARK  Name = 11943126
REMARK  7 active torsions:
REMARK  status: ('A' for Active; 'I' for Inactive)
REMARK    1  A    between atoms: O_1  and  C_12
REMARK    2  A    between atoms: O_1  and  C_15
REMARK    3  A    between atoms: N_4  and  C_16
REMARK    4  A    between atoms: C_6  and  C_12
REMARK    5  A    between atoms: C_8  and  C_13
REMARK    6  A    between atoms: C_16  and  C_17
REMARK    7  A    between atoms: C_17  and  C_18
REMARK                            x       y       z     vdW  Elec       q    Type
REMARK                         _______ _______ _______ _____ _____    ______ ____
ROOT
ATOM      3  N   UNL     1      -2.942   2.938  25.383  0.00  0.00    -0.295 NA
ATOM      5  C   UNL     1      -5.243   2.091  24.514  0.00  0.00    +0.008 C 
ATOM      6  C   UNL     1      -3.070   3.220  23.928  0.00  0.00    +0.095 C 
ATOM      7  C   UNL     1      -4.353   2.578  23.353  0.00  0.00    +0.027 C 
ATOM      8  C   UNL     1      -4.501   0.979  25.286  0.00  0.00    +0.081 C 
ATOM      9  C   UNL     1      -5.417   3.272  25.486  0.00  0.00    +0.020 C 
ATOM     10  C   UNL     1      -3.086   1.484  25.641  0.00  0.00    +0.101 C 
ATOM     11  C   UNL     1      -4.046   3.642  26.082  0.00  0.00    +0.085 C 
ENDROOT
BRANCH   8  13
ATOM     13  C   UNL     1      -4.450  -0.281  24.528  0.00  0.00    -0.101 C 
ATOM     14  C   UNL     1      -4.410  -1.311  23.910  0.00  0.00    +0.004 C 
ENDBRANCH   8  13
BRANCH   6  12
ATOM     12  C   UNL     1      -1.825   2.804  23.143  0.00  0.00    +0.252 C 
BRANCH  12   1
ATOM      1  O   UNL     1      -0.686   3.070  23.939  0.00  0.00    -0.449 OA
BRANCH   1  15
ATOM      2  O   UNL     1       0.746   2.025  25.401  0.00  0.00    -0.226 OA
ATOM      4  N   UNL     1      -0.350   0.844  23.731  0.00  0.00    -0.281 N 
ATOM     15  C   UNL     1      -0.024   1.977  24.446  0.00  0.00    +0.400 C 
ATOM     19  H   UNL     1      -1.006   0.938  22.961  0.00  0.00    +0.152 HD
BRANCH   4  16
ATOM     16  C   UNL     1       0.183  -0.467  24.018  0.00  0.00    +0.107 C 
BRANCH  16  17
ATOM     17  C   UNL     1      -0.600  -1.185  25.110  0.00  0.00    +0.015 C 
ATOM     18  C   UNL     1      -1.303  -2.437  24.604  0.00  0.00    +0.005 C 
ENDBRANCH  16  17
ENDBRANCH   4  16
ENDBRANCH   1  15
ENDBRANCH  12   1
ENDBRANCH   6  12
TORSDOF 6
ENDMDL
MODEL 8
REMARK VINA RESULT:      -5.3      1.669      3.035
REMARK  Name = 11943126
REMARK  7 active torsions:
REMARK  status: ('A' for Active; 'I' for Inactive)
REMARK    1  A    between atoms: O_1  and  C_12
REMARK    2  A    between atoms: O_1  and  C_15
REMARK    3  A    between atoms: N_4  and  C_16
REMARK    4  A    between atoms: C_6  and  C_12
REMARK    5  A    between atoms: C_8  and  C_13
REMARK    6  A    between atoms: C_16  and  C_17
REMARK    7  A    between atoms: C_17  and  C_18
REMARK                            x       y       z     vdW  Elec       q    Type
REMARK                         _______ _______ _______ _____ _____    ______ ____
ROOT
ATOM      3  N   UNL     1      -1.916  -1.333  23.822  0.00  0.00    -0.295 NA
ATOM      5  C   UNL     1      -3.465  -1.033  25.890  0.00  0.00    +0.008 C 
ATOM      6  C   UNL     1      -1.123  -0.848  24.983  0.00  0.00    +0.095 C 
ATOM      7  C   UNL     1      -2.045  -0.502  26.174  0.00  0.00    +0.027 C 
ATOM      8  C   UNL     1      -4.040  -0.301  24.659  0.00  0.00    +0.081 C 
ATOM      9  C   UNL     1      -3.331  -2.518  25.507  0.00  0.00    +0.020 C 
ATOM     10  C   UNL     1      -3.011  -0.380  23.511  0.00  0.00    +0.101 C 
ATOM     11  C   UNL     1      -2.528  -2.631  24.198  0.00  0.00    +0.085 C 
ENDROOT
BRANCH   8  13
ATOM     13  C   UNL     1      -4.403   1.093  24.964  0.00  0.00    -0.101 C 
ATOM     14  C   UNL     1      -4.699   2.230  25.211  0.00  0.00    +0.004 C 
ENDBRANCH   8  13
BRANCH   6  12
ATOM     12  C   UNL     1      -0.206   0.320  24.615  0.00  0.00    +0.252 C 
BRANCH  12   1
ATOM      1  O   UNL     1      -0.154   0.419  23.205  0.00  0.00    -0.449 OA
BRANCH   1  15
ATOM      2  O   UNL     1       1.234  -0.590  21.676  0.00  0.00    -0.226 OA
ATOM      4  N   UNL     1       2.051   0.919  23.239  0.00  0.00    -0.281 N 
ATOM     15  C   UNL     1       1.066   0.179  22.618  0.00  0.00    +0.400 C 
ATOM     19  H   UNL     1       1.780   1.523  24.009  0.00  0.00    +0.152 HD
BRANCH   4  16
ATOM     16  C   UNL     1       3.442   0.886  22.853  0.00  0.00    +0.107 C 
BRANCH  16  17
ATOM     17  C   UNL     1       4.170  -0.332  23.409  0.00  0.00    +0.015 C 
ATOM     18  C   UNL     1       5.591  -0.015  23.855  0.00  0.00    +0.005 C 
ENDBRANCH  16  17
ENDBRANCH   4  16
ENDBRANCH   1  15
ENDBRANCH  12   1
ENDBRANCH   6  12
TORSDOF 6
ENDMDL
MODEL 9
REMARK VINA RESULT:      -5.0      2.799      5.704
REMARK  Name = 11943126
REMARK  7 active torsions:
REMARK  status: ('A' for Active; 'I' for Inactive)
REMARK    1  A    between atoms: O_1  and  C_12
REMARK    2  A    between atoms: O_1  and  C_15
REMARK    3  A    between atoms: N_4  and  C_16
REMARK    4  A    between atoms: C_6  and  C_12
REMARK    5  A    between atoms: C_8  and  C_13
REMARK    6  A    between atoms: C_16  and  C_17
REMARK    7  A    between atoms: C_17  and  C_18
REMARK                            x       y       z     vdW  Elec       q    Type
REMARK                         _______ _______ _______ _____ _____    ______ ____
ROOT
ATOM      3  N   UNL     1      -0.332   1.451  24.009  0.00  0.00    -0.295 NA
ATOM      5  C   UNL     1      -1.167  -0.934  24.630  0.00  0.00    +0.008 C 
ATOM      6  C   UNL     1      -0.206   1.236  25.475  0.00  0.00    +0.095 C 
ATOM      7  C   UNL     1      -0.849  -0.106  25.892  0.00  0.00    +0.027 C 
ATOM      8  C   UNL     1      -2.219  -0.182  23.786  0.00  0.00    +0.081 C 
ATOM      9  C   UNL     1       0.121  -0.997  23.788  0.00  0.00    +0.020 C 
ATOM     10  C   UNL     1      -1.741   1.271  23.580  0.00  0.00    +0.101 C 
ATOM     11  C   UNL     1       0.493   0.424  23.326  0.00  0.00    +0.085 C 
ENDROOT
BRANCH   8  13
ATOM     13  C   UNL     1      -3.556  -0.230  24.400  0.00  0.00    -0.101 C 
ATOM     14  C   UNL     1      -4.647  -0.268  24.899  0.00  0.00    +0.004 C 
ENDBRANCH   8  13
BRANCH   6  12
ATOM     12  C   UNL     1      -0.761   2.409  26.286  0.00  0.00    +0.252 C 
BRANCH  12   1
ATOM      1  O   UNL     1      -0.514   3.603  25.568  0.00  0.00    -0.449 OA
BRANCH   1  15
ATOM      2  O   UNL     1      -1.501   5.601  25.011  0.00  0.00    -0.226 OA
ATOM      4  N   UNL     1      -2.769   3.751  25.605  0.00  0.00    -0.281 N 
ATOM     15  C   UNL     1      -1.593   4.429  25.362  0.00  0.00    +0.400 C 
ATOM     19  H   UNL     1      -2.709   2.777  25.888  0.00  0.00    +0.152 HD
BRANCH   4  16
ATOM     16  C   UNL     1      -4.079   4.346  25.477  0.00  0.00    +0.107 C 
BRANCH  16  17
ATOM     17  C   UNL     1      -5.118   3.356  24.963  0.00  0.00    +0.015 C 
ATOM     18  C   UNL     1      -5.826   2.610  26.085  0.00  0.00    +0.005 C 
ENDBRANCH  16  17
ENDBRANCH   4  16
ENDBRANCH   1  15
ENDBRANCH  12   1
ENDBRANCH   6  12
TORSDOF 6
ENDMDL
MODEL 10
REMARK VINA RESULT:      -5.0      1.605      2.263
REMARK  Name = 11943126
REMARK  7 active torsions:
REMARK  status: ('A' for Active; 'I' for Inactive)
REMARK    1  A    between atoms: O_1  and  C_12
REMARK    2  A    between atoms: O_1  and  C_15
REMARK    3  A    between atoms: N_4  and  C_16
REMARK    4  A    between atoms: C_6  and  C_12
REMARK    5  A    between atoms: C_8  and  C_13
REMARK    6  A    between atoms: C_16  and  C_17
REMARK    7  A    between atoms: C_17  and  C_18
REMARK                            x       y       z     vdW  Elec       q    Type
REMARK                         _______ _______ _______ _____ _____    ______ ____
ROOT
ATOM      3  N   UNL     1      -1.673   3.282  25.347  0.00  0.00    -0.295 NA
ATOM      5  C   UNL     1      -3.874   4.069  24.204  0.00  0.00    +0.008 C 
ATOM      6  C   UNL     1      -1.805   2.647  24.009  0.00  0.00    +0.095 C 
ATOM      7  C   UNL     1      -3.180   2.964  23.381  0.00  0.00    +0.027 C 
ATOM      8  C   UNL     1      -4.149   3.538  25.628  0.00  0.00    +0.081 C 
ATOM      9  C   UNL     1      -2.874   5.231  24.345  0.00  0.00    +0.020 C 
ATOM     10  C   UNL     1      -2.842   2.944  26.196  0.00  0.00    +0.101 C 
ATOM     11  C   UNL     1      -1.653   4.753  25.152  0.00  0.00    +0.085 C 
ENDROOT
BRANCH   8  13
ATOM     13  C   UNL     1      -5.243   2.554  25.649  0.00  0.00    -0.101 C 
ATOM     14  C   UNL     1      -6.137   1.752  25.665  0.00  0.00    +0.004 C 
ENDBRANCH   8  13
BRANCH   6  12
ATOM     12  C   UNL     1      -1.531   1.142  24.050  0.00  0.00    +0.252 C 
BRANCH  12   1
ATOM      1  O   UNL     1      -0.199   0.942  24.482  0.00  0.00    -0.449 OA
BRANCH   1  15
ATOM      2  O   UNL     1       0.289  -0.982  23.326  0.00  0.00    -0.226 OA
ATOM      4  N   UNL     1       1.755   0.816  23.353  0.00  0.00    -0.281 N 
ATOM     15  C   UNL     1       0.593   0.152  23.683  0.00  0.00    +0.400 C 
ATOM     19  H   UNL     1       1.885   1.757  23.711  0.00  0.00    +0.152 HD
BRANCH   4  16
ATOM     16  C   UNL     1       2.794   0.251  22.523  0.00  0.00    +0.107 C 
BRANCH  16  17
ATOM     17  C   UNL     1       4.136   0.945  22.720  0.00  0.00    +0.015 C 
ATOM     18  C   UNL     1       5.162   0.057  23.411  0.00  0.00    +0.005 C 
ENDBRANCH  16  17
ENDBRANCH   4  16
ENDBRANCH   1  15
ENDBRANCH  12   1
ENDBRANCH   6  12
TORSDOF 6
ENDMDL
