MODEL 1
REMARK VINA RESULT:       3.3      0.000      0.000
REMARK  Name = 26744906
REMARK  4 active torsions:
REMARK  status: ('A' for Active; 'I' for Inactive)
REMARK    1  A    between atoms: N_3  and  C_13
REMARK    2  A    between atoms: C_8  and  C_14
REMARK    3  A    between atoms: C_13  and  C_15
REMARK    4  A    between atoms: C_17  and  C_19
REMARK                            x       y       z     vdW  Elec       q    Type
REMARK                         _______ _______ _______ _____ _____    ______ ____
ROOT
ATOM      3  N   UNL     1      -4.245   0.380  23.853  0.00  0.00    -0.281 NA
ATOM      4  N   UNL     1      -5.653   2.838  26.270  0.00  0.00    -0.347 N 
ATOM      5  N   UNL     1      -5.191   4.341  24.680  0.00  0.00    -0.240 NA
ATOM      8  C   UNL     1      -3.355   1.348  23.142  0.00  0.00    +0.152 C 
ATOM      9  C   UNL     1      -3.993   2.781  23.074  0.00  0.00    +0.086 C 
ATOM     10  C   UNL     1      -4.595   0.745  25.242  0.00  0.00    +0.140 C 
ATOM     11  C   UNL     1      -4.988   2.171  25.288  0.00  0.00    +0.053 A 
ATOM     12  C   UNL     1      -4.711   3.112  24.328  0.00  0.00    +0.065 A 
ATOM     16  C   UNL     1      -5.751   4.144  25.857  0.00  0.00    +0.197 A 
ATOM     31  H   UNL     1      -6.004   2.454  27.138  0.00  0.00    +0.167 HD
ENDROOT
BRANCH   8  14
ATOM      2  O   UNL     1      -1.667   1.793  24.871  0.00  0.00    -0.336 OA
ATOM      6  N   UNL     1      -0.817   1.009  22.953  0.00  0.00    -0.190 NA
ATOM      7  N   UNL     1      -0.281   1.715  25.062  0.00  0.00    -0.056 NA
ATOM     14  C   UNL     1      -1.898   1.359  23.604  0.00  0.00    +0.245 A 
ATOM     17  C   UNL     1       0.149   1.244  23.888  0.00  0.00    +0.202 A 
BRANCH  17  19
ATOM     19  C   UNL     1       1.535   0.998  23.616  0.00  0.00    +0.023 A 
ATOM     22  C   UNL     1       2.097  -0.242  23.923  0.00  0.00    +0.020 A 
ATOM     23  C   UNL     1       2.320   1.996  23.047  0.00  0.00    +0.012 A 
ATOM     24  C   UNL     1       3.453  -0.499  23.663  0.00  0.00    -0.017 A 
ATOM     25  C   UNL     1       4.251   0.516  23.085  0.00  0.00    -0.018 A 
ATOM     26  C   UNL     1       3.669   1.757  22.781  0.00  0.00    +0.009 A 
ATOM     27  C   UNL     1       4.034  -1.742  23.966  0.00  0.00    +0.008 A 
ATOM     28  C   UNL     1       5.607   0.258  22.825  0.00  0.00    +0.008 A 
ATOM     29  C   UNL     1       5.382  -1.980  23.701  0.00  0.00    +0.001 A 
ATOM     30  C   UNL     1       6.167  -0.982  23.131  0.00  0.00    +0.001 A 
ENDBRANCH  17  19
ENDBRANCH   8  14
BRANCH   3  13
ATOM     13  C   UNL     1      -3.809  -1.009  23.760  0.00  0.00    +0.128 C 
BRANCH  13  15
ATOM      1  S   UNL     1      -1.307  -2.182  24.079  0.00  0.00    -0.100 S 
ATOM     15  C   UNL     1      -2.645  -1.294  24.672  0.00  0.00    +0.004 A 
ATOM     18  C   UNL     1      -2.479  -0.928  25.990  0.00  0.00    +0.012 A 
ATOM     20  C   UNL     1      -1.237  -1.384  26.519  0.00  0.00    +0.008 A 
ATOM     21  C   UNL     1      -0.501  -2.080  25.587  0.00  0.00    +0.045 A 
ENDBRANCH  13  15
ENDBRANCH   3  13
TORSDOF 4
ENDMDL
MODEL 2
REMARK VINA RESULT:       4.6      2.036      3.931
REMARK  Name = 26744906
REMARK  4 active torsions:
REMARK  status: ('A' for Active; 'I' for Inactive)
REMARK    1  A    between atoms: N_3  and  C_13
REMARK    2  A    between atoms: C_8  and  C_14
REMARK    3  A    between atoms: C_13  and  C_15
REMARK    4  A    between atoms: C_17  and  C_19
REMARK                            x       y       z     vdW  Elec       q    Type
REMARK                         _______ _______ _______ _____ _____    ______ ____
ROOT
ATOM      3  N   UNL     1      -3.972   0.693  24.338  0.00  0.00    -0.281 NA
ATOM      4  N   UNL     1      -4.639  -2.882  23.536  0.00  0.00    -0.347 N 
ATOM      5  N   UNL     1      -3.438  -3.295  25.378  0.00  0.00    -0.240 NA
ATOM      8  C   UNL     1      -2.697   0.455  25.081  0.00  0.00    +0.152 C 
ATOM      9  C   UNL     1      -2.727  -0.906  25.864  0.00  0.00    +0.086 C 
ATOM     10  C   UNL     1      -4.333  -0.347  23.351  0.00  0.00    +0.140 C 
ATOM     11  C   UNL     1      -4.156  -1.682  23.962  0.00  0.00    +0.053 A 
ATOM     12  C   UNL     1      -3.421  -1.961  25.087  0.00  0.00    +0.065 A 
ATOM     16  C   UNL     1      -4.178  -3.824  24.423  0.00  0.00    +0.197 A 
ATOM     31  H   UNL     1      -5.218  -3.053  22.725  0.00  0.00    +0.167 HD
ENDROOT
BRANCH   8  14
ATOM      2  O   UNL     1      -1.565   1.201  23.031  0.00  0.00    -0.336 OA
ATOM      6  N   UNL     1      -0.180   0.368  24.582  0.00  0.00    -0.190 NA
ATOM      7  N   UNL     1      -0.276   1.280  22.486  0.00  0.00    -0.056 NA
ATOM     14  C   UNL     1      -1.418   0.653  24.266  0.00  0.00    +0.245 A 
ATOM     17  C   UNL     1       0.484   0.771  23.460  0.00  0.00    +0.202 A 
BRANCH  17  19
ATOM     19  C   UNL     1       1.908   0.651  23.344  0.00  0.00    +0.023 A 
ATOM     22  C   UNL     1       2.537  -0.549  23.676  0.00  0.00    +0.020 A 
ATOM     23  C   UNL     1       2.663   1.732  22.898  0.00  0.00    +0.012 A 
ATOM     24  C   UNL     1       3.931  -0.682  23.568  0.00  0.00    -0.017 A 
ATOM     25  C   UNL     1       4.698   0.418  23.116  0.00  0.00    -0.018 A 
ATOM     26  C   UNL     1       4.048   1.618  22.784  0.00  0.00    +0.009 A 
ATOM     27  C   UNL     1       4.580  -1.883  23.899  0.00  0.00    +0.008 A 
ATOM     28  C   UNL     1       6.092   0.284  23.007  0.00  0.00    +0.008 A 
ATOM     29  C   UNL     1       5.966  -1.998  23.785  0.00  0.00    +0.001 A 
ATOM     30  C   UNL     1       6.720  -0.916  23.339  0.00  0.00    +0.001 A 
ENDBRANCH  17  19
ENDBRANCH   8  14
BRANCH   3  13
ATOM     13  C   UNL     1      -4.089   2.032  23.771  0.00  0.00    +0.128 C 
BRANCH  13  15
ATOM      1  S   UNL     1      -4.587   3.498  26.081  0.00  0.00    -0.100 S 
ATOM     15  C   UNL     1      -3.616   3.090  24.731  0.00  0.00    +0.004 A 
ATOM     18  C   UNL     1      -2.452   3.827  24.691  0.00  0.00    +0.012 A 
ATOM     20  C   UNL     1      -2.357   4.738  25.782  0.00  0.00    +0.008 A 
ATOM     21  C   UNL     1      -3.451   4.663  26.616  0.00  0.00    +0.045 A 
ENDBRANCH  13  15
ENDBRANCH   3  13
TORSDOF 4
ENDMDL
MODEL 3
REMARK VINA RESULT:       5.7      0.891      1.545
REMARK  Name = 26744906
REMARK  4 active torsions:
REMARK  status: ('A' for Active; 'I' for Inactive)
REMARK    1  A    between atoms: N_3  and  C_13
REMARK    2  A    between atoms: C_8  and  C_14
REMARK    3  A    between atoms: C_13  and  C_15
REMARK    4  A    between atoms: C_17  and  C_19
REMARK                            x       y       z     vdW  Elec       q    Type
REMARK                         _______ _______ _______ _____ _____    ______ ____
ROOT
ATOM      3  N   UNL     1      -4.288   0.477  23.701  0.00  0.00    -0.281 NA
ATOM      4  N   UNL     1      -5.430   2.770  26.403  0.00  0.00    -0.347 N 
ATOM      5  N   UNL     1      -5.189   4.366  24.855  0.00  0.00    -0.240 NA
ATOM      8  C   UNL     1      -3.507   1.501  22.942  0.00  0.00    +0.152 C 
ATOM      9  C   UNL     1      -4.171   2.922  23.031  0.00  0.00    +0.086 C 
ATOM     10  C   UNL     1      -4.472   0.760  25.140  0.00  0.00    +0.140 C 
ATOM     11  C   UNL     1      -4.879   2.171  25.312  0.00  0.00    +0.053 A 
ATOM     12  C   UNL     1      -4.736   3.169  24.380  0.00  0.00    +0.065 A 
ATOM     16  C   UNL     1      -5.599   4.094  26.079  0.00  0.00    +0.197 A 
ATOM     31  H   UNL     1      -5.666   2.333  27.284  0.00  0.00    +0.167 HD
ENDROOT
BRANCH   8  14
ATOM      2  O   UNL     1      -1.505   2.661  23.771  0.00  0.00    -0.336 OA
ATOM      6  N   UNL     1      -1.108   0.590  23.016  0.00  0.00    -0.190 NA
ATOM      7  N   UNL     1      -0.130   2.443  23.934  0.00  0.00    -0.056 NA
ATOM     14  C   UNL     1      -2.004   1.520  23.225  0.00  0.00    +0.245 A 
ATOM     17  C   UNL     1       0.026   1.201  23.467  0.00  0.00    +0.202 A 
BRANCH  17  19
ATOM     19  C   UNL     1       1.299   0.542  23.437  0.00  0.00    +0.023 A 
ATOM     22  C   UNL     1       2.473   1.286  23.563  0.00  0.00    +0.020 A 
ATOM     23  C   UNL     1       1.364  -0.840  23.284  0.00  0.00    +0.012 A 
ATOM     24  C   UNL     1       3.727   0.656  23.536  0.00  0.00    -0.017 A 
ATOM     25  C   UNL     1       3.793  -0.749  23.380  0.00  0.00    -0.018 A 
ATOM     26  C   UNL     1       2.602  -1.482  23.255  0.00  0.00    +0.009 A 
ATOM     27  C   UNL     1       4.918   1.390  23.661  0.00  0.00    +0.008 A 
ATOM     28  C   UNL     1       5.048  -1.379  23.353  0.00  0.00    +0.008 A 
ATOM     29  C   UNL     1       6.156   0.748  23.633  0.00  0.00    +0.001 A 
ATOM     30  C   UNL     1       6.221  -0.634  23.480  0.00  0.00    +0.001 A 
ENDBRANCH  17  19
ENDBRANCH   8  14
BRANCH   3  13
ATOM     13  C   UNL     1      -3.844  -0.895  23.478  0.00  0.00    +0.128 C 
BRANCH  13  15
ATOM      1  S   UNL     1      -2.684  -0.570  25.985  0.00  0.00    -0.100 S 
ATOM     15  C   UNL     1      -2.751  -1.292  24.434  0.00  0.00    +0.004 A 
ATOM     18  C   UNL     1      -1.734  -2.203  24.243  0.00  0.00    +0.012 A 
ATOM     20  C   UNL     1      -0.889  -2.308  25.385  0.00  0.00    +0.008 A 
ATOM     21  C   UNL     1      -1.291  -1.475  26.406  0.00  0.00    +0.045 A 
ENDBRANCH  13  15
ENDBRANCH   3  13
TORSDOF 4
ENDMDL
MODEL 4
REMARK VINA RESULT:       5.9      1.407      1.515
REMARK  Name = 26744906
REMARK  4 active torsions:
REMARK  status: ('A' for Active; 'I' for Inactive)
REMARK    1  A    between atoms: N_3  and  C_13
REMARK    2  A    between atoms: C_8  and  C_14
REMARK    3  A    between atoms: C_13  and  C_15
REMARK    4  A    between atoms: C_17  and  C_19
REMARK                            x       y       z     vdW  Elec       q    Type
REMARK                         _______ _______ _______ _____ _____    ______ ____
ROOT
ATOM      3  N   UNL     1      -4.272   1.354  24.022  0.00  0.00    -0.281 NA
ATOM      4  N   UNL     1      -3.681   3.776  26.787  0.00  0.00    -0.347 N 
ATOM      5  N   UNL     1      -2.885   5.099  25.169  0.00  0.00    -0.240 NA
ATOM      8  C   UNL     1      -3.197   1.873  23.122  0.00  0.00    +0.152 C 
ATOM      9  C   UNL     1      -3.022   3.427  23.263  0.00  0.00    +0.086 C 
ATOM     10  C   UNL     1      -4.077   1.621  25.462  0.00  0.00    +0.140 C 
ATOM     11  C   UNL     1      -3.676   3.034  25.646  0.00  0.00    +0.053 A 
ATOM     12  C   UNL     1      -3.181   3.863  24.671  0.00  0.00    +0.065 A 
ATOM     16  C   UNL     1      -3.194   5.015  26.448  0.00  0.00    +0.197 A 
ATOM     31  H   UNL     1      -3.977   3.478  27.708  0.00  0.00    +0.167 HD
ENDROOT
BRANCH   8  14
ATOM      2  O   UNL     1      -1.956  -0.243  23.277  0.00  0.00    -0.336 OA
ATOM      6  N   UNL     1      -0.647   1.571  23.148  0.00  0.00    -0.190 NA
ATOM      7  N   UNL     1      -0.636  -0.711  23.313  0.00  0.00    -0.056 NA
ATOM     14  C   UNL     1      -1.873   1.110  23.179  0.00  0.00    +0.245 A 
ATOM     17  C   UNL     1       0.076   0.417  23.232  0.00  0.00    +0.202 A 
BRANCH  17  19
ATOM     19  C   UNL     1       1.510   0.426  23.233  0.00  0.00    +0.023 A 
ATOM     22  C   UNL     1       2.215  -0.731  23.566  0.00  0.00    +0.020 A 
ATOM     23  C   UNL     1       2.199   1.589  22.901  0.00  0.00    +0.012 A 
ATOM     24  C   UNL     1       3.619  -0.739  23.571  0.00  0.00    -0.017 A 
ATOM     25  C   UNL     1       4.319   0.443  23.234  0.00  0.00    -0.018 A 
ATOM     26  C   UNL     1       3.594   1.599  22.900  0.00  0.00    +0.009 A 
ATOM     27  C   UNL     1       4.344  -1.896  23.904  0.00  0.00    +0.008 A 
ATOM     28  C   UNL     1       5.724   0.435  23.238  0.00  0.00    +0.008 A 
ATOM     29  C   UNL     1       5.739  -1.886  23.903  0.00  0.00    +0.001 A 
ATOM     30  C   UNL     1       6.427  -0.722  23.571  0.00  0.00    +0.001 A 
ENDBRANCH  17  19
ENDBRANCH   8  14
BRANCH   3  13
ATOM     13  C   UNL     1      -4.629  -0.040  23.780  0.00  0.00    +0.128 C 
BRANCH  13  15
ATOM      1  S   UNL     1      -3.726  -2.607  24.356  0.00  0.00    -0.100 S 
ATOM     15  C   UNL     1      -3.976  -0.965  24.773  0.00  0.00    +0.004 A 
ATOM     18  C   UNL     1      -3.520  -0.679  26.041  0.00  0.00    +0.012 A 
ATOM     20  C   UNL     1      -2.959  -1.823  26.679  0.00  0.00    +0.008 A 
ATOM     21  C   UNL     1      -3.007  -2.940  25.875  0.00  0.00    +0.045 A 
ENDBRANCH  13  15
ENDBRANCH   3  13
TORSDOF 4
ENDMDL
