MODEL 1
REMARK VINA RESULT:       5.1      0.000      0.000
REMARK  Name = 11865991
REMARK  5 active torsions:
REMARK  status: ('A' for Active; 'I' for Inactive)
REMARK    1  A    between atoms: O_1  and  C_8
REMARK    2  A    between atoms: O_1  and  C_17
REMARK    3  A    between atoms: C_16  and  C_19
REMARK    4  A    between atoms: C_20  and  C_23
REMARK    5  A    between atoms: C_22  and  C_26
REMARK                            x       y       z     vdW  Elec       q    Type
REMARK                         _______ _______ _______ _____ _____    ______ ____
ROOT
ATOM      2  O   UNL     1       1.994  -2.300  24.636  0.00  0.00    -0.273 OA
ATOM      3  O   UNL     1       0.188   2.657  24.766  0.00  0.00    -0.270 OA
ATOM      4  N   UNL     1       1.168   0.796  23.835  0.00  0.00    -0.283 N 
ATOM      5  N   UNL     1      -0.062  -1.500  25.211  0.00  0.00    -0.283 N 
ATOM      6  C   UNL     1       1.094  -0.535  23.267  0.00  0.00    +0.165 C 
ATOM      7  C   UNL     1       2.335  -0.638  22.383  0.00  0.00    +0.065 C 
ATOM      8  C   UNL     1       3.336   0.299  23.057  0.00  0.00    +0.137 C 
ATOM      9  C   UNL     1       2.452   1.426  23.567  0.00  0.00    +0.140 C 
ATOM     10  C   UNL     1       1.082  -1.494  24.439  0.00  0.00    +0.238 C 
ATOM     11  C   UNL     1       0.128   1.473  24.435  0.00  0.00    +0.249 C 
ATOM     12  C   UNL     1      -1.122   0.721  24.723  0.00  0.00    +0.059 A 
ATOM     13  C   UNL     1      -1.161  -0.614  25.161  0.00  0.00    +0.046 A 
ATOM     14  C   UNL     1      -2.308   1.478  24.707  0.00  0.00    +0.023 A 
ATOM     15  C   UNL     1      -2.378  -1.136  25.634  0.00  0.00    +0.024 A 
ATOM     16  C   UNL     1      -3.514   0.928  25.136  0.00  0.00    -0.017 A 
ATOM     18  C   UNL     1      -3.547  -0.376  25.612  0.00  0.00    +0.010 A 
ATOM     27  H   UNL     1      -0.160  -2.295  25.838  0.00  0.00    +0.155 HD
ENDROOT
BRANCH  16  19
ATOM     19  C   UNL     1      -4.724   1.720  25.106  0.00  0.00    -0.015 A 
ATOM     20  C   UNL     1      -4.709   3.080  25.428  0.00  0.00    -0.040 A 
ATOM     21  C   UNL     1      -5.925   1.106  24.747  0.00  0.00    +0.009 A 
ATOM     22  C   UNL     1      -5.891   3.819  25.392  0.00  0.00    -0.047 A 
ATOM     23  C   UNL     1      -3.430   3.753  25.817  0.00  0.00    +0.044 C 
ATOM     24  C   UNL     1      -7.106   1.846  24.710  0.00  0.00    +0.001 A 
ATOM     25  C   UNL     1      -7.089   3.203  25.033  0.00  0.00    +0.003 A 
ATOM     26  C   UNL     1      -5.902   5.274  25.734  0.00  0.00    +0.044 C 
ENDBRANCH  16  19
BRANCH   8   1
ATOM      1  O   UNL     1       4.293   0.781  22.136  0.00  0.00    -0.378 OA
ATOM     17  C   UNL     1       5.602   0.301  22.433  0.00  0.00    +0.194 C 
ENDBRANCH   8   1
TORSDOF 2
ENDMDL
MODEL 2
REMARK VINA RESULT:       5.3      2.493      7.891
REMARK  Name = 11865991
REMARK  5 active torsions:
REMARK  status: ('A' for Active; 'I' for Inactive)
REMARK    1  A    between atoms: O_1  and  C_8
REMARK    2  A    between atoms: O_1  and  C_17
REMARK    3  A    between atoms: C_16  and  C_19
REMARK    4  A    between atoms: C_20  and  C_23
REMARK    5  A    between atoms: C_22  and  C_26
REMARK                            x       y       z     vdW  Elec       q    Type
REMARK                         _______ _______ _______ _____ _____    ______ ____
ROOT
ATOM      2  O   UNL     1      -5.209  -0.962  24.627  0.00  0.00    -0.273 OA
ATOM      3  O   UNL     1      -1.838   2.583  22.649  0.00  0.00    -0.270 OA
ATOM      4  N   UNL     1      -3.361   1.733  24.147  0.00  0.00    -0.283 N 
ATOM      5  N   UNL     1      -3.022  -1.190  24.026  0.00  0.00    -0.283 N 
ATOM      6  C   UNL     1      -3.725   0.838  25.226  0.00  0.00    +0.165 C 
ATOM      7  C   UNL     1      -4.901   1.530  25.913  0.00  0.00    +0.065 C 
ATOM      8  C   UNL     1      -5.545   2.342  24.790  0.00  0.00    +0.137 C 
ATOM      9  C   UNL     1      -4.348   2.788  23.966  0.00  0.00    +0.140 C 
ATOM     10  C   UNL     1      -4.073  -0.486  24.578  0.00  0.00    +0.238 C 
ATOM     11  C   UNL     1      -2.172   1.712  23.451  0.00  0.00    +0.249 C 
ATOM     12  C   UNL     1      -1.260   0.557  23.661  0.00  0.00    +0.059 A 
ATOM     13  C   UNL     1      -1.687  -0.770  23.833  0.00  0.00    +0.046 A 
ATOM     14  C   UNL     1       0.113   0.827  23.502  0.00  0.00    +0.023 A 
ATOM     15  C   UNL     1      -0.734  -1.802  23.777  0.00  0.00    +0.024 A 
ATOM     16  C   UNL     1       1.048  -0.206  23.496  0.00  0.00    -0.017 A 
ATOM     18  C   UNL     1       0.624  -1.522  23.620  0.00  0.00    +0.010 A 
ATOM     27  H   UNL     1      -3.217  -2.165  23.809  0.00  0.00    +0.155 HD
ENDROOT
BRANCH  16  19
ATOM     19  C   UNL     1       2.456   0.090  23.338  0.00  0.00    -0.015 A 
ATOM     20  C   UNL     1       3.438  -0.820  23.737  0.00  0.00    -0.040 A 
ATOM     21  C   UNL     1       2.830   1.311  22.773  0.00  0.00    +0.009 A 
ATOM     22  C   UNL     1       4.787  -0.508  23.573  0.00  0.00    -0.047 A 
ATOM     23  C   UNL     1       3.053  -2.132  24.346  0.00  0.00    +0.044 C 
ATOM     24  C   UNL     1       4.179   1.622  22.609  0.00  0.00    +0.001 A 
ATOM     25  C   UNL     1       5.158   0.713  23.010  0.00  0.00    +0.003 A 
ATOM     26  C   UNL     1       5.856  -1.463  23.994  0.00  0.00    +0.044 C 
ENDBRANCH  16  19
BRANCH   8   1
ATOM      1  O   UNL     1      -6.255   3.453  25.298  0.00  0.00    -0.378 OA
ATOM     17  C   UNL     1      -5.382   4.519  25.660  0.00  0.00    +0.194 C 
ENDBRANCH   8   1
TORSDOF 2
ENDMDL
MODEL 3
REMARK VINA RESULT:       5.4      1.758      2.524
REMARK  Name = 11865991
REMARK  5 active torsions:
REMARK  status: ('A' for Active; 'I' for Inactive)
REMARK    1  A    between atoms: O_1  and  C_8
REMARK    2  A    between atoms: O_1  and  C_17
REMARK    3  A    between atoms: C_16  and  C_19
REMARK    4  A    between atoms: C_20  and  C_23
REMARK    5  A    between atoms: C_22  and  C_26
REMARK                            x       y       z     vdW  Elec       q    Type
REMARK                         _______ _______ _______ _____ _____    ______ ____
ROOT
ATOM      2  O   UNL     1       2.323  -0.364  20.687  0.00  0.00    -0.273 OA
ATOM      3  O   UNL     1      -0.252  -1.482  25.155  0.00  0.00    -0.270 OA
ATOM      4  N   UNL     1       1.463  -0.660  23.862  0.00  0.00    -0.283 N 
ATOM      5  N   UNL     1       0.201   0.164  21.332  0.00  0.00    -0.283 N 
ATOM      6  C   UNL     1       2.025   0.335  22.972  0.00  0.00    +0.165 C 
ATOM      7  C   UNL     1       3.534   0.209  23.169  0.00  0.00    +0.065 C 
ATOM      8  C   UNL     1       3.725  -1.253  23.568  0.00  0.00    +0.137 C 
ATOM      9  C   UNL     1       2.488  -1.538  24.406  0.00  0.00    +0.140 C 
ATOM     10  C   UNL     1       1.546  -0.023  21.581  0.00  0.00    +0.238 C 
ATOM     11  C   UNL     1       0.151  -0.716  24.281  0.00  0.00    +0.249 C 
ATOM     12  C   UNL     1      -0.833   0.180  23.617  0.00  0.00    +0.059 A 
ATOM     13  C   UNL     1      -0.826   0.487  22.246  0.00  0.00    +0.046 A 
ATOM     14  C   UNL     1      -1.920   0.589  24.411  0.00  0.00    +0.023 A 
ATOM     15  C   UNL     1      -1.941   1.141  21.692  0.00  0.00    +0.024 A 
ATOM     16  C   UNL     1      -2.995   1.277  23.853  0.00  0.00    -0.017 A 
ATOM     18  C   UNL     1      -3.012   1.542  22.490  0.00  0.00    +0.010 A 
ATOM     27  H   UNL     1      -0.066   0.150  20.350  0.00  0.00    +0.155 HD
ENDROOT
BRANCH  16  19
ATOM     19  C   UNL     1      -4.101   1.695  24.687  0.00  0.00    -0.015 A 
ATOM     20  C   UNL     1      -4.444   3.043  24.816  0.00  0.00    -0.040 A 
ATOM     21  C   UNL     1      -4.836   0.724  25.371  0.00  0.00    +0.009 A 
ATOM     22  C   UNL     1      -5.515   3.418  25.626  0.00  0.00    -0.047 A 
ATOM     23  C   UNL     1      -3.666   4.096  24.089  0.00  0.00    +0.044 C 
ATOM     24  C   UNL     1      -5.907   1.100  26.181  0.00  0.00    +0.001 A 
ATOM     25  C   UNL     1      -6.246   2.447  26.309  0.00  0.00    +0.003 A 
ATOM     26  C   UNL     1      -5.900   4.853  25.782  0.00  0.00    +0.044 C 
ENDBRANCH  16  19
BRANCH   8   1
ATOM      1  O   UNL     1       4.905  -1.433  24.324  0.00  0.00    -0.378 OA
ATOM     17  C   UNL     1       5.744  -0.283  24.277  0.00  0.00    +0.194 C 
ENDBRANCH   8   1
TORSDOF 2
ENDMDL
MODEL 4
REMARK VINA RESULT:       7.1      2.486      7.631
REMARK  Name = 11865991
REMARK  5 active torsions:
REMARK  status: ('A' for Active; 'I' for Inactive)
REMARK    1  A    between atoms: O_1  and  C_8
REMARK    2  A    between atoms: O_1  and  C_17
REMARK    3  A    between atoms: C_16  and  C_19
REMARK    4  A    between atoms: C_20  and  C_23
REMARK    5  A    between atoms: C_22  and  C_26
REMARK                            x       y       z     vdW  Elec       q    Type
REMARK                         _______ _______ _______ _____ _____    ______ ____
ROOT
ATOM      2  O   UNL     1      -5.584  -0.427  24.904  0.00  0.00    -0.273 OA
ATOM      3  O   UNL     1      -1.740   2.429  22.687  0.00  0.00    -0.270 OA
ATOM      4  N   UNL     1      -3.375   1.932  24.226  0.00  0.00    -0.283 N 
ATOM      5  N   UNL     1      -3.447  -1.009  24.363  0.00  0.00    -0.283 N 
ATOM      6  C   UNL     1      -3.866   1.194  25.372  0.00  0.00    +0.165 C 
ATOM      7  C   UNL     1      -4.936   2.100  25.976  0.00  0.00    +0.065 C 
ATOM      8  C   UNL     1      -5.455   2.892  24.777  0.00  0.00    +0.137 C 
ATOM      9  C   UNL     1      -4.203   3.094  23.938  0.00  0.00    +0.140 C 
ATOM     10  C   UNL     1      -4.392  -0.120  24.834  0.00  0.00    +0.238 C 
ATOM     11  C   UNL     1      -2.197   1.685  23.555  0.00  0.00    +0.249 C 
ATOM     12  C   UNL     1      -1.456   0.438  23.879  0.00  0.00    +0.059 A 
ATOM     13  C   UNL     1      -2.065  -0.797  24.157  0.00  0.00    +0.046 A 
ATOM     14  C   UNL     1      -0.059   0.499  23.722  0.00  0.00    +0.023 A 
ATOM     15  C   UNL     1      -1.265  -1.952  24.206  0.00  0.00    +0.024 A 
ATOM     16  C   UNL     1       0.724  -0.650  23.820  0.00  0.00    -0.017 A 
ATOM     18  C   UNL     1       0.119  -1.878  24.050  0.00  0.00    +0.010 A 
ATOM     27  H   UNL     1      -3.776  -1.962  24.226  0.00  0.00    +0.155 HD
ENDROOT
BRANCH  16  19
ATOM     19  C   UNL     1       2.159  -0.567  23.661  0.00  0.00    -0.015 A 
ATOM     20  C   UNL     1       2.776   0.620  23.257  0.00  0.00    -0.040 A 
ATOM     21  C   UNL     1       2.934  -1.698  23.921  0.00  0.00    +0.009 A 
ATOM     22  C   UNL     1       4.162   0.672  23.112  0.00  0.00    -0.047 A 
ATOM     23  C   UNL     1       1.959   1.842  22.974  0.00  0.00    +0.044 C 
ATOM     24  C   UNL     1       4.320  -1.645  23.775  0.00  0.00    +0.001 A 
ATOM     25  C   UNL     1       4.934  -0.460  23.371  0.00  0.00    +0.003 A 
ATOM     26  C   UNL     1       4.847   1.928  22.679  0.00  0.00    +0.044 C 
ENDBRANCH  16  19
BRANCH   8   1
ATOM      1  O   UNL     1      -6.006   4.131  25.176  0.00  0.00    -0.378 OA
ATOM     17  C   UNL     1      -5.033   4.968  25.795  0.00  0.00    +0.194 C 
ENDBRANCH   8   1
TORSDOF 2
ENDMDL
MODEL 5
REMARK VINA RESULT:       8.1      2.473      8.128
REMARK  Name = 11865991
REMARK  5 active torsions:
REMARK  status: ('A' for Active; 'I' for Inactive)
REMARK    1  A    between atoms: O_1  and  C_8
REMARK    2  A    between atoms: O_1  and  C_17
REMARK    3  A    between atoms: C_16  and  C_19
REMARK    4  A    between atoms: C_20  and  C_23
REMARK    5  A    between atoms: C_22  and  C_26
REMARK                            x       y       z     vdW  Elec       q    Type
REMARK                         _______ _______ _______ _____ _____    ______ ____
ROOT
ATOM      2  O   UNL     1      -4.133   2.125  22.291  0.00  0.00    -0.273 OA
ATOM      3  O   UNL     1       0.110   3.011  25.300  0.00  0.00    -0.270 OA
ATOM      4  N   UNL     1      -2.038   2.336  24.836  0.00  0.00    -0.283 N 
ATOM      5  N   UNL     1      -1.979   1.427  22.035  0.00  0.00    -0.283 N 
ATOM      6  C   UNL     1      -2.986   1.393  24.278  0.00  0.00    +0.165 C 
ATOM      7  C   UNL     1      -4.271   1.637  25.066  0.00  0.00    +0.065 C 
ATOM      8  C   UNL     1      -4.173   3.108  25.467  0.00  0.00    +0.137 C 
ATOM      9  C   UNL     1      -2.686   3.289  25.725  0.00  0.00    +0.140 C 
ATOM     10  C   UNL     1      -3.087   1.719  22.803  0.00  0.00    +0.238 C 
ATOM     11  C   UNL     1      -0.669   2.285  24.685  0.00  0.00    +0.249 C 
ATOM     12  C   UNL     1      -0.110   1.317  23.705  0.00  0.00    +0.059 A 
ATOM     13  C   UNL     1      -0.695   1.019  22.463  0.00  0.00    +0.046 A 
ATOM     14  C   UNL     1       1.173   0.820  24.001  0.00  0.00    +0.023 A 
ATOM     15  C   UNL     1       0.046   0.281  21.523  0.00  0.00    +0.024 A 
ATOM     16  C   UNL     1       1.874   0.051  23.074  0.00  0.00    -0.017 A 
ATOM     18  C   UNL     1       1.316  -0.208  21.829  0.00  0.00    +0.010 A 
ATOM     27  H   UNL     1      -2.133   1.425  21.029  0.00  0.00    +0.155 HD
ENDROOT
BRANCH  16  19
ATOM     19  C   UNL     1       3.189  -0.458  23.399  0.00  0.00    -0.015 A 
ATOM     20  C   UNL     1       4.329   0.337  23.258  0.00  0.00    -0.040 A 
ATOM     21  C   UNL     1       3.311  -1.769  23.864  0.00  0.00    +0.009 A 
ATOM     22  C   UNL     1       5.584  -0.179  23.578  0.00  0.00    -0.047 A 
ATOM     23  C   UNL     1       4.216   1.744  22.760  0.00  0.00    +0.044 C 
ATOM     24  C   UNL     1       4.566  -2.284  24.185  0.00  0.00    +0.001 A 
ATOM     25  C   UNL     1       5.703  -1.489  24.042  0.00  0.00    +0.003 A 
ATOM     26  C   UNL     1       6.819   0.650  23.434  0.00  0.00    +0.044 C 
ENDBRANCH  16  19
BRANCH   8   1
ATOM      1  O   UNL     1      -4.927   3.377  26.632  0.00  0.00    -0.378 OA
ATOM     17  C   UNL     1      -6.110   2.584  26.692  0.00  0.00    +0.194 C 
ENDBRANCH   8   1
TORSDOF 2
ENDMDL
