MODEL 1
REMARK VINA RESULT:       4.0      0.000      0.000
REMARK  Name = 51137144
REMARK  7 active torsions:
REMARK  status: ('A' for Active; 'I' for Inactive)
REMARK    1  A    between atoms: S_1  and  C_22
REMARK    2  A    between atoms: S_1  and  C_28
REMARK    3  A    between atoms: N_8  and  C_14
REMARK    4  A    between atoms: C_10  and  C_15
REMARK    5  A    between atoms: C_14  and  C_16
REMARK    6  A    between atoms: C_27  and  C_29
REMARK    7  A    between atoms: C_28  and  C_30
REMARK                            x       y       z     vdW  Elec       q    Type
REMARK                         _______ _______ _______ _____ _____    ______ ____
ROOT
ATOM      8  N   UNL     1      -4.728   0.081  24.829  0.00  0.00    -0.297 NA
ATOM     10  C   UNL     1      -2.773  -1.017  24.145  0.00  0.00    +0.090 C 
ATOM     11  C   UNL     1      -3.182  -1.518  25.541  0.00  0.00    +0.029 C 
ATOM     12  C   UNL     1      -3.578   0.273  23.943  0.00  0.00    +0.097 C 
ATOM     13  C   UNL     1      -4.167  -0.478  26.060  0.00  0.00    +0.085 C 
ENDROOT
BRANCH  10  15
ATOM      5  O   UNL     1      -0.893   0.437  23.602  0.00  0.00    -0.439 OA
ATOM      9  N   UNL     1      -0.322  -1.704  24.079  0.00  0.00    -0.213 NA
ATOM     15  C   UNL     1      -1.287  -0.820  23.953  0.00  0.00    +0.201 A 
ATOM     17  C   UNL     1       0.810  -0.980  23.790  0.00  0.00    +0.111 A 
ATOM     18  C   UNL     1       0.464   0.330  23.497  0.00  0.00    +0.155 A 
ATOM     21  C   UNL     1       2.162  -1.350  23.750  0.00  0.00    +0.058 A 
ATOM     22  C   UNL     1       3.104  -0.366  23.415  0.00  0.00    +0.090 A 
ATOM     23  C   UNL     1       1.368   1.331  23.160  0.00  0.00    +0.050 A 
ATOM     24  C   UNL     1       2.712   0.947  23.126  0.00  0.00    +0.030 A 
BRANCH  22   1
ATOM      1  S   UNL     1       4.801  -0.790  23.357  0.00  0.00    -0.003 S 
ATOM      6  O   UNL     1       4.938  -2.213  23.632  0.00  0.00    -0.169 OA
ATOM      7  O   UNL     1       5.358  -0.229  22.136  0.00  0.00    -0.169 OA
BRANCH   1  28
ATOM     28  C   UNL     1       5.516   0.077  24.735  0.00  0.00    +0.168 C 
ATOM     30  C   UNL     1       6.226   1.335  24.290  0.00  0.00    +0.028 C 
ENDBRANCH   1  28
ENDBRANCH  22   1
ENDBRANCH  10  15
BRANCH   8  14
ATOM     14  C   UNL     1      -5.460   1.318  25.066  0.00  0.00    +0.119 C 
BRANCH  14  16
ATOM     16  C   UNL     1      -4.560   2.522  25.003  0.00  0.00    -0.033 A 
ATOM     19  C   UNL     1      -4.088   3.102  26.181  0.00  0.00    +0.005 A 
ATOM     20  C   UNL     1      -4.195   3.059  23.768  0.00  0.00    +0.005 A 
ATOM     25  C   UNL     1      -3.253   4.218  26.124  0.00  0.00    +0.012 A 
ATOM     26  C   UNL     1      -3.361   4.175  23.711  0.00  0.00    +0.012 A 
ATOM     27  C   UNL     1      -2.890   4.755  24.889  0.00  0.00    +0.055 A 
BRANCH  27  29
ATOM      2  F   UNL     1      -2.160   6.782  25.895  0.00  0.00    -0.166 F 
ATOM      3  F   UNL     1      -0.666   5.632  24.812  0.00  0.00    -0.166 F 
ATOM      4  F   UNL     1      -2.191   6.722  23.722  0.00  0.00    -0.166 F 
ATOM     29  C   UNL     1      -1.995   5.946  24.828  0.00  0.00    +0.417 C 
ENDBRANCH  27  29
ENDBRANCH  14  16
ENDBRANCH   8  14
TORSDOF 6
ENDMDL
MODEL 2
REMARK VINA RESULT:       5.0      3.646      5.094
REMARK  Name = 51137144
REMARK  7 active torsions:
REMARK  status: ('A' for Active; 'I' for Inactive)
REMARK    1  A    between atoms: S_1  and  C_22
REMARK    2  A    between atoms: S_1  and  C_28
REMARK    3  A    between atoms: N_8  and  C_14
REMARK    4  A    between atoms: C_10  and  C_15
REMARK    5  A    between atoms: C_14  and  C_16
REMARK    6  A    between atoms: C_27  and  C_29
REMARK    7  A    between atoms: C_28  and  C_30
REMARK                            x       y       z     vdW  Elec       q    Type
REMARK                         _______ _______ _______ _____ _____    ______ ____
ROOT
ATOM      8  N   UNL     1      -4.075   2.917  25.037  0.00  0.00    -0.297 NA
ATOM     10  C   UNL     1      -1.786   3.296  24.698  0.00  0.00    +0.090 C 
ATOM     11  C   UNL     1      -2.585   3.894  23.527  0.00  0.00    +0.029 C 
ATOM     12  C   UNL     1      -2.772   2.355  25.402  0.00  0.00    +0.097 C 
ATOM     13  C   UNL     1      -3.960   3.244  23.615  0.00  0.00    +0.085 C 
ENDROOT
BRANCH  10  15
ATOM      5  O   UNL     1      -0.629   1.519  23.495  0.00  0.00    -0.439 OA
ATOM      9  N   UNL     1       0.733   2.928  24.635  0.00  0.00    -0.213 NA
ATOM     15  C   UNL     1      -0.499   2.610  24.302  0.00  0.00    +0.201 A 
ATOM     17  C   UNL     1       1.489   1.973  23.999  0.00  0.00    +0.111 A 
ATOM     18  C   UNL     1       0.659   1.109  23.302  0.00  0.00    +0.155 A 
ATOM     21  C   UNL     1       2.875   1.762  23.959  0.00  0.00    +0.058 A 
ATOM     22  C   UNL     1       3.355   0.680  23.208  0.00  0.00    +0.090 A 
ATOM     23  C   UNL     1       1.097   0.027  22.547  0.00  0.00    +0.050 A 
ATOM     24  C   UNL     1       2.482  -0.169  22.517  0.00  0.00    +0.030 A 
BRANCH  22   1
ATOM      1  S   UNL     1       5.079   0.387  23.133  0.00  0.00    -0.003 S 
ATOM      6  O   UNL     1       5.411  -0.114  21.807  0.00  0.00    -0.169 OA
ATOM      7  O   UNL     1       5.753   1.567  23.653  0.00  0.00    -0.169 OA
BRANCH   1  28
ATOM     28  C   UNL     1       5.347  -0.948  24.276  0.00  0.00    +0.168 C 
ATOM     30  C   UNL     1       4.604  -2.195  23.855  0.00  0.00    +0.028 C 
ENDBRANCH   1  28
ENDBRANCH  22   1
ENDBRANCH  10  15
BRANCH   8  14
ATOM     14  C   UNL     1      -5.172   1.998  25.308  0.00  0.00    +0.119 C 
BRANCH  14  16
ATOM     16  C   UNL     1      -4.761   0.563  25.118  0.00  0.00    -0.033 A 
ATOM     19  C   UNL     1      -5.117  -0.115  23.951  0.00  0.00    +0.005 A 
ATOM     20  C   UNL     1      -4.023  -0.089  26.105  0.00  0.00    +0.005 A 
ATOM     25  C   UNL     1      -4.736  -1.445  23.774  0.00  0.00    +0.012 A 
ATOM     26  C   UNL     1      -3.642  -1.419  25.928  0.00  0.00    +0.012 A 
ATOM     27  C   UNL     1      -3.999  -2.098  24.763  0.00  0.00    +0.055 A 
BRANCH  27  29
ATOM      2  F   UNL     1      -2.310  -3.637  24.106  0.00  0.00    -0.166 F 
ATOM      3  F   UNL     1      -3.631  -4.259  25.717  0.00  0.00    -0.166 F 
ATOM      4  F   UNL     1      -4.368  -4.197  23.678  0.00  0.00    -0.166 F 
ATOM     29  C   UNL     1      -3.589  -3.518  24.571  0.00  0.00    +0.417 C 
ENDBRANCH  27  29
ENDBRANCH  14  16
ENDBRANCH   8  14
TORSDOF 6
ENDMDL
