MODEL 1
REMARK VINA RESULT:      -3.6      0.000      0.000
REMARK  Name = 38029860
REMARK  12 active torsions:
REMARK  status: ('A' for Active; 'I' for Inactive)
REMARK    1  A    between atoms: O_2  and  C_25
REMARK    2  A    between atoms: O_2  and  C_26
REMARK    3  A    between atoms: N_4  and  C_24
REMARK    4  A    between atoms: C_6  and  C_10
REMARK    5  A    between atoms: C_8  and  C_13
REMARK    6  A    between atoms: C_9  and  C_14
REMARK    7  A    between atoms: C_10  and  C_15
REMARK    8  A    between atoms: C_10  and  C_16
REMARK    9  A    between atoms: C_11  and  C_18
REMARK   10  A    between atoms: C_13  and  C_17
REMARK   11  A    between atoms: C_14  and  C_23
REMARK   12  A    between atoms: C_24  and  C_25
REMARK                            x       y       z     vdW  Elec       q    Type
REMARK                         _______ _______ _______ _____ _____    ______ ____
ROOT
ATOM      6  C   UNL     1      -3.411   2.216  23.919  0.00  0.00    -0.000 C 
ATOM      7  C   UNL     1      -4.310   0.978  23.780  0.00  0.00    +0.012 C 
ATOM      8  C   UNL     1      -4.966   0.581  25.118  0.00  0.00    +0.023 C 
ATOM      9  C   UNL     1      -4.230   3.424  24.440  0.00  0.00    +0.029 C 
ATOM     11  C   UNL     1      -5.567   1.778  25.826  0.00  0.00    -0.073 C 
ATOM     12  C   UNL     1      -5.237   3.041  25.500  0.00  0.00    -0.023 C 
ATOM     18  C   UNL     1      -6.593   1.492  26.886  0.00  0.00    +0.039 C 
ENDROOT
BRANCH   6  10
ATOM     10  C   UNL     1      -2.740   2.523  22.577  0.00  0.00    -0.013 C 
ATOM     15  C   UNL     1      -2.313   1.230  21.888  0.00  0.00    +0.007 C 
ATOM     16  C   UNL     1      -3.680   3.327  21.684  0.00  0.00    +0.007 C 
ENDBRANCH   6  10
BRANCH   8  13
ATOM     13  C   UNL     1      -3.971  -0.150  26.025  0.00  0.00    +0.103 C 
BRANCH  13  17
ATOM      1  O   UNL     1      -3.914  -2.222  24.875  0.00  0.00    -0.276 OA
ATOM      3  N   UNL     1      -1.914  -1.047  24.995  0.00  0.00    -0.299 N 
ATOM      4  N   UNL     1       0.601  -0.392  23.790  0.00  0.00    -0.297 NA
ATOM     17  C   UNL     1      -3.272  -1.237  25.248  0.00  0.00    +0.216 C 
ATOM     19  C   UNL     1      -1.165  -2.054  24.244  0.00  0.00    +0.123 C 
ATOM     20  C   UNL     1      -1.095   0.042  25.537  0.00  0.00    +0.123 C 
ATOM     21  C   UNL     1      -0.274  -1.406  23.185  0.00  0.00    +0.103 C 
ATOM     22  C   UNL     1      -0.199   0.648  24.454  0.00  0.00    +0.103 C 
BRANCH   4  24
ATOM     24  C   UNL     1       1.475   0.202  22.779  0.00  0.00    +0.112 C 
BRANCH  24  25
ATOM     25  C   UNL     1       2.901  -0.301  22.910  0.00  0.00    +0.174 C 
BRANCH  25   2
ATOM      2  O   UNL     1       3.794   0.805  22.910  0.00  0.00    -0.382 OA
ATOM     26  C   UNL     1       5.083   0.435  23.380  0.00  0.00    +0.194 C 
ENDBRANCH  25   2
ENDBRANCH  24  25
ENDBRANCH   4  24
ENDBRANCH  13  17
ENDBRANCH   8  13
BRANCH   9  14
ATOM     14  C   UNL     1      -3.311   4.524  24.982  0.00  0.00    +0.126 C 
BRANCH  14  23
ATOM      5  N   UNL     1      -1.233   3.494  26.207  0.00  0.00    -0.197 NA
ATOM     23  C   UNL     1      -2.155   3.943  25.665  0.00  0.00    +0.063 C 
ENDBRANCH  14  23
ENDBRANCH   9  14
TORSDOF 8
ENDMDL
MODEL 2
REMARK VINA RESULT:      -3.0      1.899      3.279
REMARK  Name = 38029860
REMARK  12 active torsions:
REMARK  status: ('A' for Active; 'I' for Inactive)
REMARK    1  A    between atoms: O_2  and  C_25
REMARK    2  A    between atoms: O_2  and  C_26
REMARK    3  A    between atoms: N_4  and  C_24
REMARK    4  A    between atoms: C_6  and  C_10
REMARK    5  A    between atoms: C_8  and  C_13
REMARK    6  A    between atoms: C_9  and  C_14
REMARK    7  A    between atoms: C_10  and  C_15
REMARK    8  A    between atoms: C_10  and  C_16
REMARK    9  A    between atoms: C_11  and  C_18
REMARK   10  A    between atoms: C_13  and  C_17
REMARK   11  A    between atoms: C_14  and  C_23
REMARK   12  A    between atoms: C_24  and  C_25
REMARK                            x       y       z     vdW  Elec       q    Type
REMARK                         _______ _______ _______ _____ _____    ______ ____
ROOT
ATOM      6  C   UNL     1      -3.657   1.813  24.493  0.00  0.00    -0.000 C 
ATOM      7  C   UNL     1      -2.824   1.003  23.489  0.00  0.00    +0.012 C 
ATOM      8  C   UNL     1      -2.661  -0.468  23.918  0.00  0.00    +0.023 C 
ATOM      9  C   UNL     1      -5.067   1.191  24.653  0.00  0.00    +0.029 C 
ATOM     11  C   UNL     1      -3.981  -1.077  24.350  0.00  0.00    -0.073 C 
ATOM     12  C   UNL     1      -5.048  -0.320  24.661  0.00  0.00    -0.023 C 
ATOM     18  C   UNL     1      -4.058  -2.577  24.371  0.00  0.00    +0.039 C 
ENDROOT
BRANCH   6  10
ATOM     10  C   UNL     1      -3.730   3.277  24.047  0.00  0.00    -0.013 C 
ATOM     15  C   UNL     1      -2.643   4.097  24.736  0.00  0.00    +0.007 C 
ATOM     16  C   UNL     1      -3.602   3.377  22.530  0.00  0.00    +0.007 C 
ENDBRANCH   6  10
BRANCH   8  13
ATOM     13  C   UNL     1      -1.606  -0.609  25.020  0.00  0.00    +0.103 C 
BRANCH  13  17
ATOM      1  O   UNL     1      -0.842   1.436  25.942  0.00  0.00    -0.276 OA
ATOM      3  N   UNL     1       0.214   0.715  24.004  0.00  0.00    -0.299 N 
ATOM      4  N   UNL     1       2.601   0.621  22.422  0.00  0.00    -0.297 NA
ATOM     17  C   UNL     1      -0.716   0.609  25.037  0.00  0.00    +0.216 C 
ATOM     19  C   UNL     1       1.117   1.864  23.952  0.00  0.00    +0.123 C 
ATOM     20  C   UNL     1       0.300  -0.179  22.845  0.00  0.00    +0.123 C 
ATOM     21  C   UNL     1       2.550   1.430  23.649  0.00  0.00    +0.103 C 
ATOM     22  C   UNL     1       1.751  -0.571  22.557  0.00  0.00    +0.103 C 
BRANCH   4  24
ATOM     24  C   UNL     1       3.978   0.235  22.118  0.00  0.00    +0.112 C 
BRANCH  24  25
ATOM     25  C   UNL     1       4.946   0.751  23.168  0.00  0.00    +0.174 C 
BRANCH  25   2
ATOM      2  O   UNL     1       5.728  -0.329  23.661  0.00  0.00    -0.382 OA
ATOM     26  C   UNL     1       4.931  -1.475  23.922  0.00  0.00    +0.194 C 
ENDBRANCH  25   2
ENDBRANCH  24  25
ENDBRANCH   4  24
ENDBRANCH  13  17
ENDBRANCH   8  13
BRANCH   9  14
ATOM     14  C   UNL     1      -5.757   1.700  25.923  0.00  0.00    +0.126 C 
BRANCH  14  23
ATOM      5  N   UNL     1      -6.156   4.290  25.800  0.00  0.00    -0.197 NA
ATOM     23  C   UNL     1      -5.974   3.146  25.851  0.00  0.00    +0.063 C 
ENDBRANCH  14  23
ENDBRANCH   9  14
TORSDOF 8
ENDMDL
MODEL 3
REMARK VINA RESULT:      -1.1      2.070      3.684
REMARK  Name = 38029860
REMARK  12 active torsions:
REMARK  status: ('A' for Active; 'I' for Inactive)
REMARK    1  A    between atoms: O_2  and  C_25
REMARK    2  A    between atoms: O_2  and  C_26
REMARK    3  A    between atoms: N_4  and  C_24
REMARK    4  A    between atoms: C_6  and  C_10
REMARK    5  A    between atoms: C_8  and  C_13
REMARK    6  A    between atoms: C_9  and  C_14
REMARK    7  A    between atoms: C_10  and  C_15
REMARK    8  A    between atoms: C_10  and  C_16
REMARK    9  A    between atoms: C_11  and  C_18
REMARK   10  A    between atoms: C_13  and  C_17
REMARK   11  A    between atoms: C_14  and  C_23
REMARK   12  A    between atoms: C_24  and  C_25
REMARK                            x       y       z     vdW  Elec       q    Type
REMARK                         _______ _______ _______ _____ _____    ______ ____
ROOT
ATOM      6  C   UNL     1      -3.662   1.137  25.004  0.00  0.00    -0.000 C 
ATOM      7  C   UNL     1      -2.148   1.210  25.248  0.00  0.00    +0.012 C 
ATOM      8  C   UNL     1      -1.568   2.597  24.911  0.00  0.00    +0.023 C 
ATOM      9  C   UNL     1      -4.400   2.198  25.859  0.00  0.00    +0.029 C 
ATOM     11  C   UNL     1      -2.404   3.715  25.503  0.00  0.00    -0.073 C 
ATOM     12  C   UNL     1      -3.662   3.514  25.934  0.00  0.00    -0.023 C 
ATOM     18  C   UNL     1      -1.743   5.058  25.631  0.00  0.00    +0.039 C 
ENDROOT
BRANCH   6  10
ATOM     10  C   UNL     1      -4.168  -0.279  25.294  0.00  0.00    -0.013 C 
ATOM     15  C   UNL     1      -4.418  -1.032  23.991  0.00  0.00    +0.007 C 
ATOM     16  C   UNL     1      -3.171  -1.030  26.170  0.00  0.00    +0.007 C 
ENDBRANCH   6  10
BRANCH   8  13
ATOM     13  C   UNL     1      -1.407   2.776  23.398  0.00  0.00    +0.103 C 
BRANCH  13  17
ATOM      1  O   UNL     1      -1.935   0.916  22.026  0.00  0.00    -0.276 OA
ATOM      3  N   UNL     1       0.159   0.902  23.032  0.00  0.00    -0.299 N 
ATOM      4  N   UNL     1       2.911   0.115  22.914  0.00  0.00    -0.297 NA
ATOM     17  C   UNL     1      -1.094   1.448  22.755  0.00  0.00    +0.216 C 
ATOM     19  C   UNL     1       0.540  -0.381  22.443  0.00  0.00    +0.123 C 
ATOM     20  C   UNL     1       1.125   1.441  23.994  0.00  0.00    +0.123 C 
ATOM     21  C   UNL     1       1.962  -0.334  21.885  0.00  0.00    +0.103 C 
ATOM     22  C   UNL     1       2.539   1.448  23.409  0.00  0.00    +0.103 C 
BRANCH   4  24
ATOM     24  C   UNL     1       4.274   0.127  22.385  0.00  0.00    +0.112 C 
BRANCH  24  25
ATOM     25  C   UNL     1       5.273   0.592  23.429  0.00  0.00    +0.174 C 
BRANCH  25   2
ATOM      2  O   UNL     1       5.529  -0.467  24.343  0.00  0.00    -0.382 OA
ATOM     26  C   UNL     1       4.879  -1.667  23.948  0.00  0.00    +0.194 C 
ENDBRANCH  25   2
ENDBRANCH  24  25
ENDBRANCH   4  24
ENDBRANCH  13  17
ENDBRANCH   8  13
BRANCH   9  14
ATOM     14  C   UNL     1      -5.821   2.438  25.340  0.00  0.00    +0.126 C 
BRANCH  14  23
ATOM      5  N   UNL     1      -6.488   4.962  25.591  0.00  0.00    -0.197 NA
ATOM     23  C   UNL     1      -6.196   3.845  25.486  0.00  0.00    +0.063 C 
ENDBRANCH  14  23
ENDBRANCH   9  14
TORSDOF 8
ENDMDL
MODEL 4
REMARK VINA RESULT:      -1.0      2.057      4.200
REMARK  Name = 38029860
REMARK  12 active torsions:
REMARK  status: ('A' for Active; 'I' for Inactive)
REMARK    1  A    between atoms: O_2  and  C_25
REMARK    2  A    between atoms: O_2  and  C_26
REMARK    3  A    between atoms: N_4  and  C_24
REMARK    4  A    between atoms: C_6  and  C_10
REMARK    5  A    between atoms: C_8  and  C_13
REMARK    6  A    between atoms: C_9  and  C_14
REMARK    7  A    between atoms: C_10  and  C_15
REMARK    8  A    between atoms: C_10  and  C_16
REMARK    9  A    between atoms: C_11  and  C_18
REMARK   10  A    between atoms: C_13  and  C_17
REMARK   11  A    between atoms: C_14  and  C_23
REMARK   12  A    between atoms: C_24  and  C_25
REMARK                            x       y       z     vdW  Elec       q    Type
REMARK                         _______ _______ _______ _____ _____    ______ ____
ROOT
ATOM      6  C   UNL     1      -3.167   0.224  25.070  0.00  0.00    -0.000 C 
ATOM      7  C   UNL     1      -3.426   1.424  25.993  0.00  0.00    +0.012 C 
ATOM      8  C   UNL     1      -4.462   2.400  25.404  0.00  0.00    +0.023 C 
ATOM      9  C   UNL     1      -4.481  -0.555  24.813  0.00  0.00    +0.029 C 
ATOM     11  C   UNL     1      -5.685   1.673  24.879  0.00  0.00    -0.073 C 
ATOM     12  C   UNL     1      -5.678   0.350  24.635  0.00  0.00    -0.023 C 
ATOM     18  C   UNL     1      -6.929   2.493  24.688  0.00  0.00    +0.039 C 
ENDROOT
BRANCH   6  10
ATOM     10  C   UNL     1      -2.085  -0.675  25.677  0.00  0.00    -0.013 C 
ATOM     15  C   UNL     1      -0.922   0.168  26.194  0.00  0.00    +0.007 C 
ATOM     16  C   UNL     1      -2.671  -1.531  26.795  0.00  0.00    +0.007 C 
ENDBRANCH   6  10
BRANCH   8  13
ATOM     13  C   UNL     1      -3.838   3.278  24.314  0.00  0.00    +0.103 C 
BRANCH  13  17
ATOM      1  O   UNL     1      -2.230   4.456  25.596  0.00  0.00    -0.276 OA
ATOM      3  N   UNL     1      -1.407   3.001  23.984  0.00  0.00    -0.299 N 
ATOM      4  N   UNL     1       0.673   1.216  23.148  0.00  0.00    -0.297 NA
ATOM     17  C   UNL     1      -2.424   3.638  24.694  0.00  0.00    +0.216 C 
ATOM     19  C   UNL     1      -0.008   3.292  24.295  0.00  0.00    +0.123 C 
ATOM     20  C   UNL     1      -1.602   2.128  22.822  0.00  0.00    +0.123 C 
ATOM     21  C   UNL     1       0.820   2.010  24.376  0.00  0.00    +0.103 C 
ATOM     22  C   UNL     1      -0.739   0.869  22.927  0.00  0.00    +0.103 C 
BRANCH   4  24
ATOM     24  C   UNL     1       1.492   0.007  23.217  0.00  0.00    +0.112 C 
BRANCH  24  25
ATOM     25  C   UNL     1       2.755   0.141  22.385  0.00  0.00    +0.174 C 
BRANCH  25   2
ATOM      2  O   UNL     1       3.687   0.967  23.070  0.00  0.00    -0.382 OA
ATOM     26  C   UNL     1       4.942   0.320  23.227  0.00  0.00    +0.194 C 
ENDBRANCH  25   2
ENDBRANCH  24  25
ENDBRANCH   4  24
ENDBRANCH  13  17
ENDBRANCH   8  13
BRANCH   9  14
ATOM     14  C   UNL     1      -4.351  -1.475  23.594  0.00  0.00    +0.126 C 
BRANCH  14  23
ATOM      5  N   UNL     1      -3.451  -3.837  24.297  0.00  0.00    -0.197 NA
ATOM     23  C   UNL     1      -3.853  -2.793  23.991  0.00  0.00    +0.063 C 
ENDBRANCH  14  23
ENDBRANCH   9  14
TORSDOF 8
ENDMDL
MODEL 5
REMARK VINA RESULT:      -0.9      1.976      3.931
REMARK  Name = 38029860
REMARK  12 active torsions:
REMARK  status: ('A' for Active; 'I' for Inactive)
REMARK    1  A    between atoms: O_2  and  C_25
REMARK    2  A    between atoms: O_2  and  C_26
REMARK    3  A    between atoms: N_4  and  C_24
REMARK    4  A    between atoms: C_6  and  C_10
REMARK    5  A    between atoms: C_8  and  C_13
REMARK    6  A    between atoms: C_9  and  C_14
REMARK    7  A    between atoms: C_10  and  C_15
REMARK    8  A    between atoms: C_10  and  C_16
REMARK    9  A    between atoms: C_11  and  C_18
REMARK   10  A    between atoms: C_13  and  C_17
REMARK   11  A    between atoms: C_14  and  C_23
REMARK   12  A    between atoms: C_24  and  C_25
REMARK                            x       y       z     vdW  Elec       q    Type
REMARK                         _______ _______ _______ _____ _____    ______ ____
ROOT
ATOM      6  C   UNL     1      -2.681   0.085  25.034  0.00  0.00    -0.000 C 
ATOM      7  C   UNL     1      -2.042   1.227  25.838  0.00  0.00    +0.012 C 
ATOM      8  C   UNL     1      -2.440   2.614  25.296  0.00  0.00    +0.023 C 
ATOM      9  C   UNL     1      -4.226   0.198  25.065  0.00  0.00    +0.029 C 
ATOM     11  C   UNL     1      -3.931   2.714  25.045  0.00  0.00    -0.073 C 
ATOM     12  C   UNL     1      -4.715   1.624  24.959  0.00  0.00    -0.023 C 
ATOM     18  C   UNL     1      -4.509   4.097  24.943  0.00  0.00    +0.039 C 
ENDROOT
BRANCH   6  10
ATOM     10  C   UNL     1      -2.200  -1.265  25.577  0.00  0.00    -0.013 C 
ATOM     15  C   UNL     1      -0.679  -1.277  25.699  0.00  0.00    +0.007 C 
ATOM     16  C   UNL     1      -2.853  -1.558  26.925  0.00  0.00    +0.007 C 
ENDBRANCH   6  10
BRANCH   8  13
ATOM     13  C   UNL     1      -1.647   2.962  24.032  0.00  0.00    +0.103 C 
BRANCH  13  17
ATOM      1  O   UNL     1      -2.431   1.411  22.420  0.00  0.00    -0.276 OA
ATOM      3  N   UNL     1      -0.299   1.042  23.261  0.00  0.00    -0.299 N 
ATOM      4  N   UNL     1       2.351   0.042  22.827  0.00  0.00    -0.297 NA
ATOM     17  C   UNL     1      -1.503   1.737  23.164  0.00  0.00    +0.216 C 
ATOM     19  C   UNL     1      -0.079  -0.154  22.449  0.00  0.00    +0.123 C 
ATOM     20  C   UNL     1       0.767   1.324  24.228  0.00  0.00    +0.123 C 
ATOM     21  C   UNL     1       1.308  -0.143  21.808  0.00  0.00    +0.103 C 
ATOM     22  C   UNL     1       2.142   1.302  23.555  0.00  0.00    +0.103 C 
BRANCH   4  24
ATOM     24  C   UNL     1       3.678   0.019  22.213  0.00  0.00    +0.112 C 
BRANCH  24  25
ATOM     25  C   UNL     1       4.662   0.883  22.981  0.00  0.00    +0.174 C 
BRANCH  25   2
ATOM      2  O   UNL     1       5.784   0.096  23.361  0.00  0.00    -0.382 OA
ATOM     26  C   UNL     1       5.409  -0.963  24.231  0.00  0.00    +0.194 C 
ENDBRANCH  25   2
ENDBRANCH  24  25
ENDBRANCH   4  24
ENDBRANCH  13  17
ENDBRANCH   8  13
BRANCH   9  14
ATOM     14  C   UNL     1      -4.866  -0.645  23.957  0.00  0.00    +0.126 C 
BRANCH  14  23
ATOM      5  N   UNL     1      -3.871  -3.072  23.952  0.00  0.00    -0.197 NA
ATOM     23  C   UNL     1      -4.317  -2.002  23.956  0.00  0.00    +0.063 C 
ENDBRANCH  14  23
ENDBRANCH   9  14
TORSDOF 8
ENDMDL
MODEL 6
REMARK VINA RESULT:      -0.8      2.253      5.437
REMARK  Name = 38029860
REMARK  12 active torsions:
REMARK  status: ('A' for Active; 'I' for Inactive)
REMARK    1  A    between atoms: O_2  and  C_25
REMARK    2  A    between atoms: O_2  and  C_26
REMARK    3  A    between atoms: N_4  and  C_24
REMARK    4  A    between atoms: C_6  and  C_10
REMARK    5  A    between atoms: C_8  and  C_13
REMARK    6  A    between atoms: C_9  and  C_14
REMARK    7  A    between atoms: C_10  and  C_15
REMARK    8  A    between atoms: C_10  and  C_16
REMARK    9  A    between atoms: C_11  and  C_18
REMARK   10  A    between atoms: C_13  and  C_17
REMARK   11  A    between atoms: C_14  and  C_23
REMARK   12  A    between atoms: C_24  and  C_25
REMARK                            x       y       z     vdW  Elec       q    Type
REMARK                         _______ _______ _______ _____ _____    ______ ____
ROOT
ATOM      6  C   UNL     1      -1.116   0.302  24.645  0.00  0.00    -0.000 C 
ATOM      7  C   UNL     1      -2.057  -0.126  25.781  0.00  0.00    +0.012 C 
ATOM      8  C   UNL     1      -3.077  -1.188  25.326  0.00  0.00    +0.023 C 
ATOM      9  C   UNL     1      -0.338  -0.921  24.097  0.00  0.00    +0.029 C 
ATOM     11  C   UNL     1      -2.415  -2.302  24.539  0.00  0.00    -0.073 C 
ATOM     12  C   UNL     1      -1.186  -2.169  24.010  0.00  0.00    -0.023 C 
ATOM     18  C   UNL     1      -3.180  -3.590  24.415  0.00  0.00    +0.039 C 
ENDROOT
BRANCH   6  10
ATOM     10  C   UNL     1      -0.171   1.401  25.139  0.00  0.00    -0.013 C 
ATOM     15  C   UNL     1       0.217   2.325  23.988  0.00  0.00    +0.007 C 
ATOM     16  C   UNL     1      -0.821   2.191  26.271  0.00  0.00    +0.007 C 
ENDBRANCH   6  10
BRANCH   8  13
ATOM     13  C   UNL     1      -4.216  -0.552  24.522  0.00  0.00    +0.103 C 
BRANCH  13  17
ATOM      1  O   UNL     1      -5.389   0.404  26.346  0.00  0.00    -0.276 OA
ATOM      3  N   UNL     1      -4.606   1.877  24.730  0.00  0.00    -0.299 N 
ATOM      4  N   UNL     1      -3.617   4.489  24.091  0.00  0.00    -0.297 NA
ATOM     17  C   UNL     1      -4.794   0.613  25.286  0.00  0.00    +0.216 C 
ATOM     19  C   UNL     1      -5.132   3.059  25.413  0.00  0.00    +0.123 C 
ATOM     20  C   UNL     1      -4.022   2.146  23.413  0.00  0.00    +0.123 C 
ATOM     21  C   UNL     1      -4.101   4.186  25.446  0.00  0.00    +0.103 C 
ATOM     22  C   UNL     1      -3.014   3.296  23.481  0.00  0.00    +0.103 C 
BRANCH   4  24
ATOM     24  C   UNL     1      -2.656   5.590  24.124  0.00  0.00    +0.112 C 
BRANCH  24  25
ATOM     25  C   UNL     1      -1.763   5.514  25.349  0.00  0.00    +0.174 C 
BRANCH  25   2
ATOM      2  O   UNL     1      -0.429   5.237  24.946  0.00  0.00    -0.382 OA
ATOM     26  C   UNL     1      -0.281   5.319  23.535  0.00  0.00    +0.194 C 
ENDBRANCH  25   2
ENDBRANCH  24  25
ENDBRANCH   4  24
ENDBRANCH  13  17
ENDBRANCH   8  13
BRANCH   9  14
ATOM     14  C   UNL     1       0.271  -0.620  22.724  0.00  0.00    +0.126 C 
BRANCH  14  23
ATOM      5  N   UNL     1       2.823  -0.051  22.933  0.00  0.00    -0.197 NA
ATOM     23  C   UNL     1       1.695  -0.305  22.847  0.00  0.00    +0.063 C 
ENDBRANCH  14  23
ENDBRANCH   9  14
TORSDOF 8
ENDMDL
MODEL 7
REMARK VINA RESULT:      -0.6      1.850      3.054
REMARK  Name = 38029860
REMARK  12 active torsions:
REMARK  status: ('A' for Active; 'I' for Inactive)
REMARK    1  A    between atoms: O_2  and  C_25
REMARK    2  A    between atoms: O_2  and  C_26
REMARK    3  A    between atoms: N_4  and  C_24
REMARK    4  A    between atoms: C_6  and  C_10
REMARK    5  A    between atoms: C_8  and  C_13
REMARK    6  A    between atoms: C_9  and  C_14
REMARK    7  A    between atoms: C_10  and  C_15
REMARK    8  A    between atoms: C_10  and  C_16
REMARK    9  A    between atoms: C_11  and  C_18
REMARK   10  A    between atoms: C_13  and  C_17
REMARK   11  A    between atoms: C_14  and  C_23
REMARK   12  A    between atoms: C_24  and  C_25
REMARK                            x       y       z     vdW  Elec       q    Type
REMARK                         _______ _______ _______ _____ _____    ______ ____
ROOT
ATOM      6  C   UNL     1      -2.749   2.571  23.758  0.00  0.00    -0.000 C 
ATOM      7  C   UNL     1      -4.068   3.339  23.935  0.00  0.00    +0.012 C 
ATOM      8  C   UNL     1      -4.390   3.608  25.418  0.00  0.00    +0.023 C 
ATOM      9  C   UNL     1      -1.573   3.365  24.379  0.00  0.00    +0.029 C 
ATOM     11  C   UNL     1      -3.187   4.146  26.167  0.00  0.00    -0.073 C 
ATOM     12  C   UNL     1      -1.938   4.040  25.680  0.00  0.00    -0.023 C 
ATOM     18  C   UNL     1      -3.458   4.851  27.466  0.00  0.00    +0.039 C 
ENDROOT
BRANCH   6  10
ATOM     10  C   UNL     1      -2.515   2.278  22.273  0.00  0.00    -0.013 C 
ATOM     15  C   UNL     1      -2.586   0.777  22.009  0.00  0.00    +0.007 C 
ATOM     16  C   UNL     1      -3.533   3.025  21.417  0.00  0.00    +0.007 C 
ENDBRANCH   6  10
BRANCH   8  13
ATOM     13  C   UNL     1      -4.944   2.353  26.100  0.00  0.00    +0.103 C 
BRANCH  13  17
ATOM      1  O   UNL     1      -6.081   1.473  24.216  0.00  0.00    -0.276 OA
ATOM      3  N   UNL     1      -4.432   0.132  25.152  0.00  0.00    -0.299 N 
ATOM      4  N   UNL     1      -2.412  -1.865  24.774  0.00  0.00    -0.297 NA
ATOM     17  C   UNL     1      -5.210   1.285  25.069  0.00  0.00    +0.216 C 
ATOM     19  C   UNL     1      -4.626  -0.949  24.186  0.00  0.00    +0.123 C 
ATOM     20  C   UNL     1      -3.486  -0.178  26.228  0.00  0.00    +0.123 C 
ATOM     21  C   UNL     1      -3.290  -1.472  23.662  0.00  0.00    +0.103 C 
ATOM     22  C   UNL     1      -2.171  -0.722  25.667  0.00  0.00    +0.103 C 
BRANCH   4  24
ATOM     24  C   UNL     1      -1.147  -2.395  24.267  0.00  0.00    +0.112 C 
BRANCH  24  25
ATOM     25  C   UNL     1      -0.026  -1.380  24.395  0.00  0.00    +0.174 C 
BRANCH  25   2
ATOM      2  O   UNL     1       0.119  -0.679  23.166  0.00  0.00    -0.382 OA
ATOM     26  C   UNL     1       1.449  -0.214  22.985  0.00  0.00    +0.194 C 
ENDBRANCH  25   2
ENDBRANCH  24  25
ENDBRANCH   4  24
ENDBRANCH  13  17
ENDBRANCH   8  13
BRANCH   9  14
ATOM     14  C   UNL     1      -0.351   2.465  24.595  0.00  0.00    +0.126 C 
BRANCH  14  23
ATOM      5  N   UNL     1       0.349   2.463  27.123  0.00  0.00    -0.197 NA
ATOM     23  C   UNL     1       0.044   2.459  26.004  0.00  0.00    +0.063 C 
ENDBRANCH  14  23
ENDBRANCH   9  14
TORSDOF 8
ENDMDL
MODEL 8
REMARK VINA RESULT:      -0.0      2.206      4.788
REMARK  Name = 38029860
REMARK  12 active torsions:
REMARK  status: ('A' for Active; 'I' for Inactive)
REMARK    1  A    between atoms: O_2  and  C_25
REMARK    2  A    between atoms: O_2  and  C_26
REMARK    3  A    between atoms: N_4  and  C_24
REMARK    4  A    between atoms: C_6  and  C_10
REMARK    5  A    between atoms: C_8  and  C_13
REMARK    6  A    between atoms: C_9  and  C_14
REMARK    7  A    between atoms: C_10  and  C_15
REMARK    8  A    between atoms: C_10  and  C_16
REMARK    9  A    between atoms: C_11  and  C_18
REMARK   10  A    between atoms: C_13  and  C_17
REMARK   11  A    between atoms: C_14  and  C_23
REMARK   12  A    between atoms: C_24  and  C_25
REMARK                            x       y       z     vdW  Elec       q    Type
REMARK                         _______ _______ _______ _____ _____    ______ ____
ROOT
ATOM      6  C   UNL     1      -3.582   2.559  24.695  0.00  0.00    -0.000 C 
ATOM      7  C   UNL     1      -2.976   3.030  26.025  0.00  0.00    +0.012 C 
ATOM      8  C   UNL     1      -1.777   3.976  25.818  0.00  0.00    +0.023 C 
ATOM      9  C   UNL     1      -4.055   3.773  23.856  0.00  0.00    +0.029 C 
ATOM     11  C   UNL     1      -2.080   5.051  24.794  0.00  0.00    -0.073 C 
ATOM     12  C   UNL     1      -3.110   4.949  23.935  0.00  0.00    -0.023 C 
ATOM     18  C   UNL     1      -1.200   6.269  24.812  0.00  0.00    +0.039 C 
ENDROOT
BRANCH   6  10
ATOM     10  C   UNL     1      -4.724   1.575  24.963  0.00  0.00    -0.013 C 
ATOM     15  C   UNL     1      -4.197   0.327  25.666  0.00  0.00    +0.007 C 
ATOM     16  C   UNL     1      -5.816   2.242  25.793  0.00  0.00    +0.007 C 
ENDBRANCH   6  10
BRANCH   8  13
ATOM     13  C   UNL     1      -0.516   3.194  25.435  0.00  0.00    +0.103 C 
BRANCH  13  17
ATOM      1  O   UNL     1      -0.328   2.087  27.522  0.00  0.00    -0.276 OA
ATOM      3  N   UNL     1      -0.370   0.738  25.633  0.00  0.00    -0.299 N 
ATOM      4  N   UNL     1      -1.083  -1.772  24.449  0.00  0.00    -0.297 NA
ATOM     17  C   UNL     1      -0.394   1.963  26.297  0.00  0.00    +0.216 C 
ATOM     19  C   UNL     1      -0.258  -0.504  26.398  0.00  0.00    +0.123 C 
ATOM     20  C   UNL     1      -0.313   0.562  24.178  0.00  0.00    +0.123 C 
ATOM     21  C   UNL     1      -1.245  -1.557  25.894  0.00  0.00    +0.103 C 
ATOM     22  C   UNL     1      -1.295  -0.516  23.714  0.00  0.00    +0.103 C 
BRANCH   4  24
ATOM     24  C   UNL     1      -2.005  -2.803  23.977  0.00  0.00    +0.112 C 
BRANCH  24  25
ATOM     25  C   UNL     1      -3.174  -2.984  24.929  0.00  0.00    +0.174 C 
BRANCH  25   2
ATOM      2  O   UNL     1      -4.385  -3.040  24.187  0.00  0.00    -0.382 OA
ATOM     26  C   UNL     1      -4.590  -1.853  23.434  0.00  0.00    +0.194 C 
ENDBRANCH  25   2
ENDBRANCH  24  25
ENDBRANCH   4  24
ENDBRANCH  13  17
ENDBRANCH   8  13
BRANCH   9  14
ATOM     14  C   UNL     1      -4.265   3.384  22.388  0.00  0.00    +0.126 C 
BRANCH  14  23
ATOM      5  N   UNL     1      -2.271   1.913  21.527  0.00  0.00    -0.197 NA
ATOM     23  C   UNL     1      -3.151   2.569  21.904  0.00  0.00    +0.063 C 
ENDBRANCH  14  23
ENDBRANCH   9  14
TORSDOF 8
ENDMDL
MODEL 9
REMARK VINA RESULT:       0.1      2.293      5.867
REMARK  Name = 38029860
REMARK  12 active torsions:
REMARK  status: ('A' for Active; 'I' for Inactive)
REMARK    1  A    between atoms: O_2  and  C_25
REMARK    2  A    between atoms: O_2  and  C_26
REMARK    3  A    between atoms: N_4  and  C_24
REMARK    4  A    between atoms: C_6  and  C_10
REMARK    5  A    between atoms: C_8  and  C_13
REMARK    6  A    between atoms: C_9  and  C_14
REMARK    7  A    between atoms: C_10  and  C_15
REMARK    8  A    between atoms: C_10  and  C_16
REMARK    9  A    between atoms: C_11  and  C_18
REMARK   10  A    between atoms: C_13  and  C_17
REMARK   11  A    between atoms: C_14  and  C_23
REMARK   12  A    between atoms: C_24  and  C_25
REMARK                            x       y       z     vdW  Elec       q    Type
REMARK                         _______ _______ _______ _____ _____    ______ ____
ROOT
ATOM      6  C   UNL     1      -0.357   0.694  24.366  0.00  0.00    -0.000 C 
ATOM      7  C   UNL     1      -1.197   0.122  25.517  0.00  0.00    +0.012 C 
ATOM      8  C   UNL     1      -1.906  -1.189  25.126  0.00  0.00    +0.023 C 
ATOM      9  C   UNL     1       0.717  -0.330  23.918  0.00  0.00    +0.029 C 
ATOM     11  C   UNL     1      -0.964  -2.153  24.432  0.00  0.00    -0.073 C 
ATOM     12  C   UNL     1       0.209  -1.753  23.911  0.00  0.00    -0.023 C 
ATOM     18  C   UNL     1      -1.382  -3.596  24.392  0.00  0.00    +0.039 C 
ENDROOT
BRANCH   6  10
ATOM     10  C   UNL     1       0.270   2.025  24.791  0.00  0.00    -0.013 C 
ATOM     15  C   UNL     1      -0.135   3.135  23.826  0.00  0.00    +0.007 C 
ATOM     16  C   UNL     1      -0.140   2.373  26.218  0.00  0.00    +0.007 C 
ENDBRANCH   6  10
BRANCH   8  13
ATOM     13  C   UNL     1      -3.142  -0.914  24.264  0.00  0.00    +0.103 C 
BRANCH  13  17
ATOM      1  O   UNL     1      -4.747  -0.897  26.008  0.00  0.00    -0.276 OA
ATOM      3  N   UNL     1      -4.530   1.062  24.779  0.00  0.00    -0.299 N 
ATOM      4  N   UNL     1      -4.682   3.923  24.710  0.00  0.00    -0.297 NA
ATOM     17  C   UNL     1      -4.213  -0.257  25.098  0.00  0.00    +0.216 C 
ATOM     19  C   UNL     1      -5.555   1.771  25.545  0.00  0.00    +0.123 C 
ATOM     20  C   UNL     1      -4.011   1.804  23.626  0.00  0.00    +0.123 C 
ATOM     21  C   UNL     1      -5.098   3.182  25.911  0.00  0.00    +0.103 C 
ATOM     22  C   UNL     1      -3.588   3.219  24.025  0.00  0.00    +0.103 C 
BRANCH   4  24
ATOM     24  C   UNL     1      -4.277   5.283  25.061  0.00  0.00    +0.112 C 
BRANCH  24  25
ATOM     25  C   UNL     1      -3.288   5.290  26.212  0.00  0.00    +0.174 C 
BRANCH  25   2
ATOM      2  O   UNL     1      -2.015   4.863  25.745  0.00  0.00    -0.382 OA
ATOM     26  C   UNL     1      -1.387   5.860  24.952  0.00  0.00    +0.194 C 
ENDBRANCH  25   2
ENDBRANCH  24  25
ENDBRANCH   4  24
ENDBRANCH  13  17
ENDBRANCH   8  13
BRANCH   9  14
ATOM     14  C   UNL     1       1.275   0.021  22.535  0.00  0.00    +0.126 C 
BRANCH  14  23
ATOM      5  N   UNL     1       3.817   0.647  22.700  0.00  0.00    -0.197 NA
ATOM     23  C   UNL     1       2.694   0.367  22.621  0.00  0.00    +0.063 C 
ENDBRANCH  14  23
ENDBRANCH   9  14
TORSDOF 8
ENDMDL
