MODEL 1
REMARK VINA RESULT:       5.4      0.000      0.000
REMARK  Name = 51138105
REMARK  10 active torsions:
REMARK  status: ('A' for Active; 'I' for Inactive)
REMARK    1  A    between atoms: N_4  and  C_8
REMARK    2  A    between atoms: N_5  and  C_25
REMARK    3  A    between atoms: C_7  and  C_18
REMARK    4  A    between atoms: C_9  and  C_19
REMARK    5  A    between atoms: C_18  and  C_21
REMARK    6  A    between atoms: C_21  and  C_27
REMARK    7  A    between atoms: C_21  and  C_28
REMARK    8  A    between atoms: C_25  and  C_29
REMARK    9  A    between atoms: C_30  and  C_32
REMARK   10  A    between atoms: C_31  and  C_33
REMARK                            x       y       z     vdW  Elec       q    Type
REMARK                         _______ _______ _______ _____ _____    ______ ____
ROOT
ATOM      3  N   UNL     1       0.474  -0.857  23.357  0.00  0.00    -0.299 NA
ATOM      5  N   UNL     1      -2.112   2.842  25.620  0.00  0.00    -0.342 N 
ATOM      7  C   UNL     1      -0.943  -1.182  23.154  0.00  0.00    +0.085 C 
ATOM      9  C   UNL     1       0.873   0.457  22.874  0.00  0.00    +0.145 C 
ATOM     12  C   UNL     1       0.882   1.490  23.999  0.00  0.00    +0.065 C 
ATOM     13  C   UNL     1      -1.946  -0.302  23.908  0.00  0.00    -0.021 A 
ATOM     14  C   UNL     1      -1.651   0.965  24.489  0.00  0.00    +0.008 A 
ATOM     15  C   UNL     1      -0.469   1.781  24.563  0.00  0.00    -0.020 A 
ATOM     20  C   UNL     1      -2.663   1.678  25.142  0.00  0.00    +0.050 A 
ATOM     22  C   UNL     1      -0.796   2.918  25.273  0.00  0.00    +0.091 A 
ATOM     23  C   UNL     1      -3.299  -0.722  23.980  0.00  0.00    +0.006 A 
ATOM     24  C   UNL     1      -3.980   1.223  25.243  0.00  0.00    +0.026 A 
ATOM     26  C   UNL     1      -4.284   0.012  24.636  0.00  0.00    +0.002 A 
ATOM     34  H   UNL     1       0.742  -0.988  24.332  0.00  0.00    +0.123 HD
ENDROOT
BRANCH   9  19
ATOM      1  O   UNL     1       2.502  -0.315  21.310  0.00  0.00    -0.274 OA
ATOM      4  N   UNL     1       3.214   0.833  23.206  0.00  0.00    -0.311 N 
ATOM     19  C   UNL     1       2.270   0.279  22.359  0.00  0.00    +0.231 C 
ATOM     35  H   UNL     1       2.901   1.334  24.033  0.00  0.00    +0.149 HD
BRANCH   4   8
ATOM      8  C   UNL     1       4.633   0.776  22.950  0.00  0.00    +0.073 C 
ATOM     10  C   UNL     1       5.449   1.042  24.210  0.00  0.00    +0.022 C 
ATOM     11  C   UNL     1       5.076  -0.626  22.551  0.00  0.00    +0.022 C 
ATOM     16  C   UNL     1       5.511  -0.303  24.931  0.00  0.00    +0.002 C 
ATOM     17  C   UNL     1       5.230  -1.371  23.873  0.00  0.00    +0.002 C 
ENDBRANCH   4   8
ENDBRANCH   9  19
BRANCH   7  18
ATOM     18  C   UNL     1      -1.061  -2.669  23.534  0.00  0.00    +0.026 C 
BRANCH  18  21
ATOM     21  C   UNL     1      -1.160  -2.894  25.045  0.00  0.00    -0.015 C 
ATOM     27  C   UNL     1      -2.632  -3.022  25.442  0.00  0.00    +0.007 C 
ATOM     28  C   UNL     1      -0.504  -1.772  25.852  0.00  0.00    +0.007 C 
ENDBRANCH  18  21
ENDBRANCH   7  18
BRANCH   5  25
ATOM     25  C   UNL     1      -2.817   3.863  26.367  0.00  0.00    +0.162 C 
BRANCH  25  29
ATOM      2  O   UNL     1      -5.741   5.136  24.496  0.00  0.00    -0.359 OA
ATOM      6  N   UNL     1      -6.397   4.298  25.389  0.00  0.00    -0.083 NA
ATOM     29  C   UNL     1      -4.153   4.226  25.768  0.00  0.00    +0.037 A 
ATOM     30  C   UNL     1      -4.406   5.085  24.731  0.00  0.00    +0.139 A 
ATOM     31  C   UNL     1      -5.428   3.766  26.139  0.00  0.00    +0.086 A 
ATOM     32  C   UNL     1      -3.559   5.918  23.868  0.00  0.00    +0.089 C 
ATOM     33  C   UNL     1      -5.774   2.813  27.207  0.00  0.00    +0.069 C 
ENDBRANCH  25  29
ENDBRANCH   5  25
TORSDOF 6
ENDMDL
MODEL 2
REMARK VINA RESULT:       6.5      1.819      8.001
REMARK  Name = 51138105
REMARK  10 active torsions:
REMARK  status: ('A' for Active; 'I' for Inactive)
REMARK    1  A    between atoms: N_4  and  C_8
REMARK    2  A    between atoms: N_5  and  C_25
REMARK    3  A    between atoms: C_7  and  C_18
REMARK    4  A    between atoms: C_9  and  C_19
REMARK    5  A    between atoms: C_18  and  C_21
REMARK    6  A    between atoms: C_21  and  C_27
REMARK    7  A    between atoms: C_21  and  C_28
REMARK    8  A    between atoms: C_25  and  C_29
REMARK    9  A    between atoms: C_30  and  C_32
REMARK   10  A    between atoms: C_31  and  C_33
REMARK                            x       y       z     vdW  Elec       q    Type
REMARK                         _______ _______ _______ _____ _____    ______ ____
ROOT
ATOM      3  N   UNL     1      -2.926   0.312  25.073  0.00  0.00    -0.299 NA
ATOM      5  N   UNL     1       1.574  -0.375  22.887  0.00  0.00    -0.342 N 
ATOM      7  C   UNL     1      -2.230  -0.681  25.901  0.00  0.00    +0.085 C 
ATOM      9  C   UNL     1      -2.211   1.568  24.900  0.00  0.00    +0.145 C 
ATOM     12  C   UNL     1      -1.436   1.595  23.584  0.00  0.00    +0.065 C 
ATOM     13  C   UNL     1      -0.901  -1.203  25.344  0.00  0.00    -0.021 A 
ATOM     14  C   UNL     1      -0.145  -0.582  24.308  0.00  0.00    +0.008 A 
ATOM     15  C   UNL     1      -0.318   0.608  23.520  0.00  0.00    -0.020 A 
ATOM     20  C   UNL     1       1.065  -1.154  23.898  0.00  0.00    +0.050 A 
ATOM     22  C   UNL     1       0.754   0.690  22.655  0.00  0.00    +0.091 A 
ATOM     23  C   UNL     1      -0.317  -2.350  25.941  0.00  0.00    +0.006 A 
ATOM     24  C   UNL     1       1.599  -2.312  24.468  0.00  0.00    +0.026 A 
ATOM     26  C   UNL     1       0.891  -2.894  25.510  0.00  0.00    +0.002 A 
ATOM     34  H   UNL     1      -3.195  -0.087  24.174  0.00  0.00    +0.123 HD
ENDROOT
BRANCH   9  19
ATOM      1  O   UNL     1      -3.022   3.804  25.095  0.00  0.00    -0.274 OA
ATOM      4  N   UNL     1      -4.522   2.100  24.576  0.00  0.00    -0.311 N 
ATOM     19  C   UNL     1      -3.274   2.624  24.865  0.00  0.00    +0.231 C 
ATOM     35  H   UNL     1      -4.605   1.109  24.368  0.00  0.00    +0.149 HD
BRANCH   4   8
ATOM      8  C   UNL     1      -5.718   2.905  24.507  0.00  0.00    +0.073 C 
ATOM     10  C   UNL     1      -6.969   2.092  24.818  0.00  0.00    +0.022 C 
ATOM     11  C   UNL     1      -5.736   3.978  25.589  0.00  0.00    +0.022 C 
ATOM     16  C   UNL     1      -7.056   2.069  26.342  0.00  0.00    +0.002 C 
ATOM     17  C   UNL     1      -6.229   3.256  26.838  0.00  0.00    +0.002 C 
ENDBRANCH   4   8
ENDBRANCH   9  19
BRANCH   7  18
ATOM     18  C   UNL     1      -3.261  -1.804  26.114  0.00  0.00    +0.026 C 
BRANCH  18  21
ATOM     21  C   UNL     1      -3.850  -2.332  24.802  0.00  0.00    -0.015 C 
ATOM     27  C   UNL     1      -2.812  -3.211  24.101  0.00  0.00    +0.007 C 
ATOM     28  C   UNL     1      -4.296  -1.210  23.863  0.00  0.00    +0.007 C 
ENDBRANCH  18  21
ENDBRANCH   7  18
BRANCH   5  25
ATOM     25  C   UNL     1       2.810  -0.620  22.175  0.00  0.00    +0.162 C 
BRANCH  25  29
ATOM      2  O   UNL     1       5.637   1.163  23.756  0.00  0.00    -0.359 OA
ATOM      6  N   UNL     1       5.911  -0.124  24.200  0.00  0.00    -0.083 NA
ATOM     29  C   UNL     1       4.031  -0.135  22.914  0.00  0.00    +0.037 A 
ATOM     30  C   UNL     1       4.516   1.145  22.992  0.00  0.00    +0.139 A 
ATOM     31  C   UNL     1       4.939  -0.882  23.685  0.00  0.00    +0.086 A 
ATOM     32  C   UNL     1       4.082   2.434  22.438  0.00  0.00    +0.089 C 
ATOM     33  C   UNL     1       4.920  -2.328  23.960  0.00  0.00    +0.069 C 
ENDBRANCH  25  29
ENDBRANCH   5  25
TORSDOF 6
ENDMDL
MODEL 3
REMARK VINA RESULT:       9.2      1.781      7.577
REMARK  Name = 51138105
REMARK  10 active torsions:
REMARK  status: ('A' for Active; 'I' for Inactive)
REMARK    1  A    between atoms: N_4  and  C_8
REMARK    2  A    between atoms: N_5  and  C_25
REMARK    3  A    between atoms: C_7  and  C_18
REMARK    4  A    between atoms: C_9  and  C_19
REMARK    5  A    between atoms: C_18  and  C_21
REMARK    6  A    between atoms: C_21  and  C_27
REMARK    7  A    between atoms: C_21  and  C_28
REMARK    8  A    between atoms: C_25  and  C_29
REMARK    9  A    between atoms: C_30  and  C_32
REMARK   10  A    between atoms: C_31  and  C_33
REMARK                            x       y       z     vdW  Elec       q    Type
REMARK                         _______ _______ _______ _____ _____    ______ ____
ROOT
ATOM      3  N   UNL     1      -3.043   0.533  25.318  0.00  0.00    -0.299 NA
ATOM      5  N   UNL     1       1.370  -0.340  23.025  0.00  0.00    -0.342 N 
ATOM      7  C   UNL     1      -2.443  -0.602  26.030  0.00  0.00    +0.085 C 
ATOM      9  C   UNL     1      -2.213   1.728  25.269  0.00  0.00    +0.145 C 
ATOM     12  C   UNL     1      -1.440   1.819  23.955  0.00  0.00    +0.065 C 
ATOM     13  C   UNL     1      -1.170  -1.185  25.408  0.00  0.00    -0.021 A 
ATOM     14  C   UNL     1      -0.360  -0.532  24.435  0.00  0.00    +0.008 A 
ATOM     15  C   UNL     1      -0.421   0.744  23.776  0.00  0.00    -0.020 A 
ATOM     20  C   UNL     1       0.790  -1.170  23.954  0.00  0.00    +0.050 A 
ATOM     22  C   UNL     1       0.655   0.815  22.914  0.00  0.00    +0.091 A 
ATOM     23  C   UNL     1      -0.697  -2.438  25.876  0.00  0.00    +0.006 A 
ATOM     24  C   UNL     1       1.213  -2.426  24.395  0.00  0.00    +0.026 A 
ATOM     26  C   UNL     1       0.454  -3.045  25.378  0.00  0.00    +0.002 A 
ATOM     34  H   UNL     1      -3.349   0.258  24.385  0.00  0.00    +0.123 HD
ENDROOT
BRANCH   9  19
ATOM      1  O   UNL     1      -4.383   2.720  25.227  0.00  0.00    -0.274 OA
ATOM      4  N   UNL     1      -2.526   4.082  25.569  0.00  0.00    -0.311 N 
ATOM     19  C   UNL     1      -3.172   2.876  25.356  0.00  0.00    +0.231 C 
ATOM     35  H   UNL     1      -1.518   4.086  25.696  0.00  0.00    +0.149 HD
BRANCH   4   8
ATOM      8  C   UNL     1      -3.222   5.342  25.668  0.00  0.00    +0.073 C 
ATOM     10  C   UNL     1      -2.381   6.498  25.140  0.00  0.00    +0.022 C 
ATOM     11  C   UNL     1      -4.450   5.378  24.765  0.00  0.00    +0.022 C 
ATOM     16  C   UNL     1      -2.594   6.484  23.628  0.00  0.00    +0.002 C 
ATOM     17  C   UNL     1      -3.901   5.728  23.385  0.00  0.00    +0.002 C 
ENDBRANCH   4   8
ENDBRANCH   9  19
BRANCH   7  18
ATOM     18  C   UNL     1      -3.576  -1.640  26.136  0.00  0.00    +0.026 C 
BRANCH  18  21
ATOM     21  C   UNL     1      -4.189  -1.996  24.779  0.00  0.00    -0.015 C 
ATOM     27  C   UNL     1      -3.510  -3.254  24.233  0.00  0.00    +0.007 C 
ATOM     28  C   UNL     1      -4.068  -0.860  23.761  0.00  0.00    +0.007 C 
ENDBRANCH  18  21
ENDBRANCH   7  18
BRANCH   5  25
ATOM     25  C   UNL     1       2.577  -0.624  22.278  0.00  0.00    +0.162 C 
BRANCH  25  29
ATOM      2  O   UNL     1       5.508   1.082  23.751  0.00  0.00    -0.359 OA
ATOM      6  N   UNL     1       5.740  -0.205  24.222  0.00  0.00    -0.083 NA
ATOM     29  C   UNL     1       3.833  -0.170  22.978  0.00  0.00    +0.037 A 
ATOM     30  C   UNL     1       4.370   1.091  23.012  0.00  0.00    +0.139 A 
ATOM     31  C   UNL     1       4.727  -0.934  23.747  0.00  0.00    +0.086 A 
ATOM     32  C   UNL     1       3.975   2.382  22.436  0.00  0.00    +0.089 C 
ATOM     33  C   UNL     1       4.657  -2.372  24.059  0.00  0.00    +0.069 C 
ENDBRANCH  25  29
ENDBRANCH   5  25
TORSDOF 6
ENDMDL
