MODEL 1
REMARK VINA RESULT:      -0.8      0.000      0.000
REMARK  Name = 45784274
REMARK  5 active torsions:
REMARK  status: ('A' for Active; 'I' for Inactive)
REMARK    1  A    between atoms: N_7  and  C_15
REMARK    2  A    between atoms: C_10  and  C_14
REMARK    3  A    between atoms: C_15  and  C_16
REMARK    4  A    between atoms: C_23  and  C_28
REMARK    5  A    between atoms: C_27  and  C_29
REMARK                            x       y       z     vdW  Elec       q    Type
REMARK                         _______ _______ _______ _____ _____    ______ ____
ROOT
ATOM      7  N   UNL     1      -3.423  -0.826  24.638  0.00  0.00    -0.297 NA
ATOM     10  C   UNL     1      -1.297  -1.432  23.851  0.00  0.00    +0.070 C 
ATOM     11  C   UNL     1      -1.530  -2.057  25.238  0.00  0.00    +0.028 C 
ATOM     12  C   UNL     1      -2.380  -0.351  23.725  0.00  0.00    +0.096 C 
ATOM     13  C   UNL     1      -2.703  -1.283  25.827  0.00  0.00    +0.085 C 
ENDROOT
BRANCH  10  14
ATOM      8  N   UNL     1       1.201  -1.589  24.037  0.00  0.00    -0.342 N 
ATOM      9  N   UNL     1       0.420   0.231  23.029  0.00  0.00    -0.232 NA
ATOM     14  C   UNL     1       0.098  -0.897  23.622  0.00  0.00    +0.113 A 
ATOM     17  C   UNL     1       2.308  -0.858  23.691  0.00  0.00    +0.067 A 
ATOM     18  C   UNL     1       1.794   0.273  23.064  0.00  0.00    +0.089 A 
ATOM     19  C   UNL     1       3.674  -1.083  23.867  0.00  0.00    +0.040 A 
ATOM     22  C   UNL     1       2.681   1.249  22.577  0.00  0.00    +0.030 A 
ATOM     23  C   UNL     1       4.542  -0.103  23.376  0.00  0.00    +0.057 A 
ATOM     24  C   UNL     1       4.056   1.044  22.743  0.00  0.00    +0.014 A 
ATOM     30  H   UNL     1       1.203  -2.480  24.515  0.00  0.00    +0.167 HD
BRANCH  23  28
ATOM      1  F   UNL     1       6.352  -1.255  24.434  0.00  0.00    -0.166 F 
ATOM      2  F   UNL     1       6.640   0.848  23.966  0.00  0.00    -0.166 F 
ATOM      3  F   UNL     1       6.648  -0.636  22.377  0.00  0.00    -0.166 F 
ATOM     28  C   UNL     1       6.016  -0.285  23.535  0.00  0.00    +0.417 C 
ENDBRANCH  23  28
ENDBRANCH  10  14
BRANCH   7  15
ATOM     15  C   UNL     1      -4.404   0.204  24.946  0.00  0.00    +0.119 C 
BRANCH  15  16
ATOM     16  C   UNL     1      -3.787   1.576  24.965  0.00  0.00    -0.033 A 
ATOM     20  C   UNL     1      -2.482   1.749  25.425  0.00  0.00    +0.005 A 
ATOM     21  C   UNL     1      -4.522   2.678  24.524  0.00  0.00    +0.005 A 
ATOM     25  C   UNL     1      -1.910   3.021  25.442  0.00  0.00    +0.012 A 
ATOM     26  C   UNL     1      -3.951   3.950  24.541  0.00  0.00    +0.012 A 
ATOM     27  C   UNL     1      -2.644   4.121  25.000  0.00  0.00    +0.055 A 
BRANCH  27  29
ATOM      4  F   UNL     1      -2.456   6.234  26.073  0.00  0.00    -0.166 F 
ATOM      5  F   UNL     1      -0.669   5.468  25.099  0.00  0.00    -0.166 F 
ATOM      6  F   UNL     1      -2.315   6.222  23.903  0.00  0.00    -0.166 F 
ATOM     29  C   UNL     1      -2.033   5.482  25.016  0.00  0.00    +0.417 C 
ENDBRANCH  27  29
ENDBRANCH  15  16
ENDBRANCH   7  15
TORSDOF 5
ENDMDL
MODEL 2
REMARK VINA RESULT:       0.5      1.347      2.291
REMARK  Name = 45784274
REMARK  5 active torsions:
REMARK  status: ('A' for Active; 'I' for Inactive)
REMARK    1  A    between atoms: N_7  and  C_15
REMARK    2  A    between atoms: C_10  and  C_14
REMARK    3  A    between atoms: C_15  and  C_16
REMARK    4  A    between atoms: C_23  and  C_28
REMARK    5  A    between atoms: C_27  and  C_29
REMARK                            x       y       z     vdW  Elec       q    Type
REMARK                         _______ _______ _______ _____ _____    ______ ____
ROOT
ATOM      7  N   UNL     1      -4.822  -0.003  24.861  0.00  0.00    -0.297 NA
ATOM     10  C   UNL     1      -2.913  -1.264  24.340  0.00  0.00    +0.070 C 
ATOM     11  C   UNL     1      -3.352  -1.567  25.784  0.00  0.00    +0.028 C 
ATOM     12  C   UNL     1      -3.659   0.025  23.970  0.00  0.00    +0.096 C 
ATOM     13  C   UNL     1      -4.292  -0.428  26.157  0.00  0.00    +0.085 C 
ENDROOT
BRANCH  10  14
ATOM      8  N   UNL     1      -0.869  -0.127  23.430  0.00  0.00    -0.342 N 
ATOM      9  N   UNL     1      -0.504  -1.985  24.594  0.00  0.00    -0.232 NA
ATOM     14  C   UNL     1      -1.418  -1.157  24.141  0.00  0.00    +0.113 A 
ATOM     17  C   UNL     1       0.491  -0.302  23.424  0.00  0.00    +0.067 A 
ATOM     18  C   UNL     1       0.694  -1.468  24.157  0.00  0.00    +0.089 A 
ATOM     19  C   UNL     1       1.530   0.437  22.857  0.00  0.00    +0.040 A 
ATOM     22  C   UNL     1       2.005  -1.939  24.346  0.00  0.00    +0.030 A 
ATOM     23  C   UNL     1       2.828  -0.046  23.055  0.00  0.00    +0.057 A 
ATOM     24  C   UNL     1       3.062  -1.213  23.786  0.00  0.00    +0.014 A 
ATOM     30  H   UNL     1      -1.372   0.629  22.986  0.00  0.00    +0.167 HD
BRANCH  23  28
ATOM      1  F   UNL     1       3.983   2.031  22.779  0.00  0.00    -0.166 F 
ATOM      2  F   UNL     1       4.015   0.637  21.111  0.00  0.00    -0.166 F 
ATOM      3  F   UNL     1       5.197   0.238  22.892  0.00  0.00    -0.166 F 
ATOM     28  C   UNL     1       3.983   0.701  22.473  0.00  0.00    +0.417 C 
ENDBRANCH  23  28
ENDBRANCH  10  14
BRANCH   7  15
ATOM     15  C   UNL     1      -5.498   1.283  24.933  0.00  0.00    +0.119 C 
BRANCH  15  16
ATOM     16  C   UNL     1      -4.524   2.430  24.908  0.00  0.00    -0.033 A 
ATOM     20  C   UNL     1      -3.927   2.814  23.707  0.00  0.00    +0.005 A 
ATOM     21  C   UNL     1      -4.219   3.112  26.086  0.00  0.00    +0.005 A 
ATOM     25  C   UNL     1      -3.026   3.877  23.683  0.00  0.00    +0.012 A 
ATOM     26  C   UNL     1      -3.317   4.176  26.063  0.00  0.00    +0.012 A 
ATOM     27  C   UNL     1      -2.721   4.559  24.861  0.00  0.00    +0.055 A 
BRANCH  27  29
ATOM      4  F   UNL     1      -0.459   5.288  24.916  0.00  0.00    -0.166 F 
ATOM      5  F   UNL     1      -1.835   6.455  23.702  0.00  0.00    -0.166 F 
ATOM      6  F   UNL     1      -1.928   6.580  25.865  0.00  0.00    -0.166 F 
ATOM     29  C   UNL     1      -1.759   5.698  24.836  0.00  0.00    +0.417 C 
ENDBRANCH  27  29
ENDBRANCH  15  16
ENDBRANCH   7  15
TORSDOF 5
ENDMDL
