MODEL 1
REMARK VINA RESULT:      -3.6      0.000      0.000
REMARK  Name = 26743260
REMARK  8 active torsions:
REMARK  status: ('A' for Active; 'I' for Inactive)
REMARK    1  A    between atoms: N_5  and  C_25
REMARK    2  A    between atoms: C_7  and  C_12
REMARK    3  A    between atoms: C_8  and  C_14
REMARK    4  A    between atoms: C_11  and  C_19
REMARK    5  A    between atoms: C_12  and  C_21
REMARK    6  A    between atoms: C_14  and  C_24
REMARK    7  A    between atoms: C_19  and  C_22
REMARK    8  A    between atoms: C_25  and  C_26
REMARK                            x       y       z     vdW  Elec       q    Type
REMARK                         _______ _______ _______ _____ _____    ______ ____
ROOT
ATOM      3  N   UNL     1      -0.303   5.279  24.649  0.00  0.00    -0.316 NA
ATOM      7  C   UNL     1      -1.458   3.406  25.801  0.00  0.00    +0.012 C 
ATOM      8  C   UNL     1      -2.776   4.216  25.860  0.00  0.00    +0.004 C 
ATOM      9  C   UNL     1      -2.444   5.716  25.800  0.00  0.00    +0.019 C 
ATOM     10  C   UNL     1      -0.576   3.842  24.619  0.00  0.00    +0.085 C 
ATOM     13  C   UNL     1      -1.534   6.066  24.624  0.00  0.00    +0.081 C 
ATOM     31  H   UNL     1       0.275   5.529  23.848  0.00  0.00    +0.122 HD
ENDROOT
BRANCH   7  12
ATOM     12  C   UNL     1      -1.684   1.894  25.774  0.00  0.00    +0.064 C 
BRANCH  12  21
ATOM      1  O   UNL     1      -0.660   0.308  22.708  0.00  0.00    -0.359 OA
ATOM      4  N   UNL     1      -1.624   0.841  23.555  0.00  0.00    -0.083 NA
ATOM     21  C   UNL     1      -0.949   1.252  24.632  0.00  0.00    +0.084 A 
ATOM     22  C   UNL     1       0.559   0.410  23.297  0.00  0.00    +0.138 A 
ATOM     23  C   UNL     1       0.430   1.005  24.524  0.00  0.00    +0.071 A 
BRANCH  22  19
ATOM     19  C   UNL     1       1.701  -0.109  22.535  0.00  0.00    +0.080 C 
BRANCH  19  11
ATOM     11  C   UNL     1       3.017  -0.048  23.307  0.00  0.00    -0.004 C 
ATOM     15  C   UNL     1       3.661  -1.439  23.392  0.00  0.00    +0.004 C 
ATOM     16  C   UNL     1       3.978   0.960  22.661  0.00  0.00    +0.004 C 
ATOM     17  C   UNL     1       5.006  -1.394  24.113  0.00  0.00    +0.000 C 
ATOM     18  C   UNL     1       5.323   1.001  23.384  0.00  0.00    +0.000 C 
ATOM     20  C   UNL     1       5.955  -0.385  23.474  0.00  0.00    +0.000 C 
ENDBRANCH  19  11
ENDBRANCH  22  19
ENDBRANCH  12  21
ENDBRANCH   7  12
BRANCH   8  14
ATOM     14  C   UNL     1      -3.790   3.836  24.776  0.00  0.00    +0.099 C 
BRANCH  14  24
ATOM      2  O   UNL     1      -5.520   2.853  26.151  0.00  0.00    -0.276 OA
ATOM      5  N   UNL     1      -4.552   1.589  24.458  0.00  0.00    -0.311 N 
ATOM     24  C   UNL     1      -4.723   2.732  25.224  0.00  0.00    +0.214 C 
ATOM     32  H   UNL     1      -3.851   1.585  23.722  0.00  0.00    +0.149 HD
BRANCH   5  25
ATOM     25  C   UNL     1      -5.311   0.377  24.668  0.00  0.00    +0.141 C 
BRANCH  25  26
ATOM      6  N   UNL     1      -3.687  -2.907  23.731  0.00  0.00    -0.263 NA
ATOM     26  C   UNL     1      -4.427  -0.835  24.733  0.00  0.00    -0.012 A 
ATOM     27  C   UNL     1      -3.558  -1.032  25.800  0.00  0.00    +0.008 A 
ATOM     28  C   UNL     1      -4.453  -1.794  23.733  0.00  0.00    +0.115 A 
ATOM     29  C   UNL     1      -2.753  -2.165  25.835  0.00  0.00    +0.020 A 
ATOM     30  C   UNL     1      -2.855  -3.064  24.785  0.00  0.00    +0.111 A 
ENDBRANCH  25  26
ENDBRANCH   5  25
ENDBRANCH  14  24
ENDBRANCH   8  14
TORSDOF 8
ENDMDL
MODEL 2
REMARK VINA RESULT:      -2.7      1.809      6.595
REMARK  Name = 26743260
REMARK  8 active torsions:
REMARK  status: ('A' for Active; 'I' for Inactive)
REMARK    1  A    between atoms: N_5  and  C_25
REMARK    2  A    between atoms: C_7  and  C_12
REMARK    3  A    between atoms: C_8  and  C_14
REMARK    4  A    between atoms: C_11  and  C_19
REMARK    5  A    between atoms: C_12  and  C_21
REMARK    6  A    between atoms: C_14  and  C_24
REMARK    7  A    between atoms: C_19  and  C_22
REMARK    8  A    between atoms: C_25  and  C_26
REMARK                            x       y       z     vdW  Elec       q    Type
REMARK                         _______ _______ _______ _____ _____    ______ ____
ROOT
ATOM      3  N   UNL     1      -0.446   3.132  27.197  0.00  0.00    -0.316 NA
ATOM      7  C   UNL     1      -1.100   3.820  24.902  0.00  0.00    +0.012 C 
ATOM      8  C   UNL     1      -0.200   2.723  24.285  0.00  0.00    +0.004 C 
ATOM      9  C   UNL     1       0.916   2.370  25.283  0.00  0.00    +0.019 C 
ATOM     10  C   UNL     1      -1.572   3.439  26.315  0.00  0.00    +0.085 C 
ATOM     13  C   UNL     1       0.373   2.041  26.672  0.00  0.00    +0.081 C 
ATOM     31  H   UNL     1      -0.799   2.876  28.118  0.00  0.00    +0.122 HD
ENDROOT
BRANCH   7  12
ATOM     12  C   UNL     1      -2.292   4.186  24.017  0.00  0.00    +0.064 C 
BRANCH  12  21
ATOM      1  O   UNL     1      -5.435   2.763  25.048  0.00  0.00    -0.359 OA
ATOM      4  N   UNL     1      -4.538   3.819  24.944  0.00  0.00    -0.083 NA
ATOM     21  C   UNL     1      -3.478   3.312  24.309  0.00  0.00    +0.084 A 
ATOM     22  C   UNL     1      -4.892   1.657  24.477  0.00  0.00    +0.138 A 
ATOM     23  C   UNL     1      -3.646   1.953  23.991  0.00  0.00    +0.071 A 
BRANCH  22  19
ATOM     19  C   UNL     1      -5.711   0.440  24.499  0.00  0.00    +0.080 C 
BRANCH  19  11
ATOM     11  C   UNL     1      -4.927  -0.807  24.904  0.00  0.00    -0.004 C 
ATOM     15  C   UNL     1      -4.514  -1.615  23.667  0.00  0.00    +0.004 C 
ATOM     16  C   UNL     1      -3.699  -0.425  25.742  0.00  0.00    +0.004 C 
ATOM     17  C   UNL     1      -3.682  -2.838  24.044  0.00  0.00    +0.000 C 
ATOM     18  C   UNL     1      -2.868  -1.651  26.116  0.00  0.00    +0.000 C 
ATOM     20  C   UNL     1      -2.467  -2.456  24.884  0.00  0.00    +0.000 C 
ENDBRANCH  19  11
ENDBRANCH  22  19
ENDBRANCH  12  21
ENDBRANCH   7  12
BRANCH   8  14
ATOM     14  C   UNL     1      -0.960   1.465  23.848  0.00  0.00    +0.099 C 
BRANCH  14  24
ATOM      2  O   UNL     1      -0.011  -0.725  24.237  0.00  0.00    -0.276 OA
ATOM      5  N   UNL     1       0.775   0.561  22.468  0.00  0.00    -0.311 N 
ATOM     24  C   UNL     1      -0.032   0.303  23.566  0.00  0.00    +0.214 C 
ATOM     32  H   UNL     1       0.691   1.453  21.989  0.00  0.00    +0.149 HD
BRANCH   5  25
ATOM     25  C   UNL     1       1.759  -0.375  21.974  0.00  0.00    +0.141 C 
BRANCH  25  26
ATOM      6  N   UNL     1       4.782  -1.218  24.082  0.00  0.00    -0.263 NA
ATOM     26  C   UNL     1       3.075  -0.233  22.682  0.00  0.00    -0.012 A 
ATOM     27  C   UNL     1       3.798   0.952  22.621  0.00  0.00    +0.008 A 
ATOM     28  C   UNL     1       3.606  -1.280  23.420  0.00  0.00    +0.115 A 
ATOM     29  C   UNL     1       5.013   1.055  23.289  0.00  0.00    +0.020 A 
ATOM     30  C   UNL     1       5.457  -0.050  24.000  0.00  0.00    +0.111 A 
ENDBRANCH  25  26
ENDBRANCH   5  25
ENDBRANCH  14  24
ENDBRANCH   8  14
TORSDOF 8
ENDMDL
MODEL 3
REMARK VINA RESULT:      -2.6      1.262      4.907
REMARK  Name = 26743260
REMARK  8 active torsions:
REMARK  status: ('A' for Active; 'I' for Inactive)
REMARK    1  A    between atoms: N_5  and  C_25
REMARK    2  A    between atoms: C_7  and  C_12
REMARK    3  A    between atoms: C_8  and  C_14
REMARK    4  A    between atoms: C_11  and  C_19
REMARK    5  A    between atoms: C_12  and  C_21
REMARK    6  A    between atoms: C_14  and  C_24
REMARK    7  A    between atoms: C_19  and  C_22
REMARK    8  A    between atoms: C_25  and  C_26
REMARK                            x       y       z     vdW  Elec       q    Type
REMARK                         _______ _______ _______ _____ _____    ______ ____
ROOT
ATOM      3  N   UNL     1      -2.941  -3.655  24.544  0.00  0.00    -0.316 NA
ATOM      7  C   UNL     1      -2.290  -1.260  24.471  0.00  0.00    +0.012 C 
ATOM      8  C   UNL     1      -3.738  -0.846  24.117  0.00  0.00    +0.004 C 
ATOM      9  C   UNL     1      -4.450  -2.035  23.450  0.00  0.00    +0.019 C 
ATOM     10  C   UNL     1      -2.252  -2.580  25.259  0.00  0.00    +0.085 C 
ATOM     13  C   UNL     1      -4.337  -3.318  24.271  0.00  0.00    +0.081 C 
ATOM     31  H   UNL     1      -2.903  -4.508  25.100  0.00  0.00    +0.122 HD
ENDROOT
BRANCH   7  12
ATOM     12  C   UNL     1      -1.518  -0.169  25.215  0.00  0.00    +0.064 C 
BRANCH  12  21
ATOM      1  O   UNL     1       1.424   1.455  23.923  0.00  0.00    -0.359 OA
ATOM      4  N   UNL     1       0.383   1.341  24.836  0.00  0.00    -0.083 NA
ATOM     21  C   UNL     1      -0.304   0.264  24.445  0.00  0.00    +0.084 A 
ATOM     22  C   UNL     1       1.333   0.452  23.013  0.00  0.00    +0.138 A 
ATOM     23  C   UNL     1       0.250  -0.335  23.301  0.00  0.00    +0.071 A 
BRANCH  22  19
ATOM     19  C   UNL     1       2.362   0.421  21.967  0.00  0.00    +0.080 C 
BRANCH  19  11
ATOM     11  C   UNL     1       3.700  -0.132  22.454  0.00  0.00    -0.004 C 
ATOM     15  C   UNL     1       4.571   0.989  23.038  0.00  0.00    +0.004 C 
ATOM     16  C   UNL     1       3.482  -1.247  23.486  0.00  0.00    +0.004 C 
ATOM     17  C   UNL     1       5.893   0.451  23.581  0.00  0.00    +0.000 C 
ATOM     18  C   UNL     1       4.806  -1.781  24.029  0.00  0.00    +0.000 C 
ATOM     20  C   UNL     1       5.671  -0.663  24.599  0.00  0.00    +0.000 C 
ENDBRANCH  19  11
ENDBRANCH  22  19
ENDBRANCH  12  21
ENDBRANCH   7  12
BRANCH   8  14
ATOM     14  C   UNL     1      -4.547  -0.325  25.310  0.00  0.00    +0.099 C 
BRANCH  14  24
ATOM      2  O   UNL     1      -5.509   1.778  26.019  0.00  0.00    -0.276 OA
ATOM      5  N   UNL     1      -4.144   1.724  24.139  0.00  0.00    -0.311 N 
ATOM     24  C   UNL     1      -4.803   1.164  25.223  0.00  0.00    +0.214 C 
ATOM     32  H   UNL     1      -3.596   1.125  23.528  0.00  0.00    +0.149 HD
BRANCH   5  25
ATOM     25  C   UNL     1      -4.214   3.130  23.813  0.00  0.00    +0.141 C 
BRANCH  25  26
ATOM      6  N   UNL     1      -0.554   4.073  23.946  0.00  0.00    -0.263 NA
ATOM     26  C   UNL     1      -2.951   3.855  24.179  0.00  0.00    -0.012 A 
ATOM     27  C   UNL     1      -2.971   4.934  25.055  0.00  0.00    +0.008 A 
ATOM     28  C   UNL     1      -1.727   3.467  23.657  0.00  0.00    +0.115 A 
ATOM     29  C   UNL     1      -1.785   5.584  25.378  0.00  0.00    +0.020 A 
ATOM     30  C   UNL     1      -0.614   5.118  24.801  0.00  0.00    +0.111 A 
ENDBRANCH  25  26
ENDBRANCH   5  25
ENDBRANCH  14  24
ENDBRANCH   8  14
TORSDOF 8
ENDMDL
MODEL 4
REMARK VINA RESULT:      -2.2      1.616      6.864
REMARK  Name = 26743260
REMARK  8 active torsions:
REMARK  status: ('A' for Active; 'I' for Inactive)
REMARK    1  A    between atoms: N_5  and  C_25
REMARK    2  A    between atoms: C_7  and  C_12
REMARK    3  A    between atoms: C_8  and  C_14
REMARK    4  A    between atoms: C_11  and  C_19
REMARK    5  A    between atoms: C_12  and  C_21
REMARK    6  A    between atoms: C_14  and  C_24
REMARK    7  A    between atoms: C_19  and  C_22
REMARK    8  A    between atoms: C_25  and  C_26
REMARK                            x       y       z     vdW  Elec       q    Type
REMARK                         _______ _______ _______ _____ _____    ______ ____
ROOT
ATOM      3  N   UNL     1      -2.968  -3.394  24.982  0.00  0.00    -0.316 NA
ATOM      7  C   UNL     1      -3.839  -1.072  24.850  0.00  0.00    +0.012 C 
ATOM      8  C   UNL     1      -2.409  -0.514  24.655  0.00  0.00    +0.004 C 
ATOM      9  C   UNL     1      -1.398  -1.506  25.255  0.00  0.00    +0.019 C 
ATOM     10  C   UNL     1      -3.957  -2.521  24.349  0.00  0.00    +0.085 C 
ATOM     13  C   UNL     1      -1.602  -2.930  24.741  0.00  0.00    +0.081 C 
ATOM     31  H   UNL     1      -3.072  -4.340  24.619  0.00  0.00    +0.122 HD
ENDROOT
BRANCH   7  12
ATOM     12  C   UNL     1      -4.918  -0.194  24.213  0.00  0.00    +0.064 C 
BRANCH  12  21
ATOM      1  O   UNL     1      -5.828   2.849  25.909  0.00  0.00    -0.359 OA
ATOM      4  N   UNL     1      -6.120   1.588  25.402  0.00  0.00    -0.083 NA
ATOM     21  C   UNL     1      -4.976   1.158  24.864  0.00  0.00    +0.084 A 
ATOM     22  C   UNL     1      -4.526   3.140  25.662  0.00  0.00    +0.138 A 
ATOM     23  C   UNL     1      -3.937   2.095  24.999  0.00  0.00    +0.071 A 
BRANCH  22  19
ATOM     19  C   UNL     1      -4.045   4.444  26.133  0.00  0.00    +0.080 C 
BRANCH  19  11
ATOM     11  C   UNL     1      -2.524   4.580  26.079  0.00  0.00    -0.004 C 
ATOM     15  C   UNL     1      -1.853   3.202  26.155  0.00  0.00    +0.004 C 
ATOM     16  C   UNL     1      -2.093   5.328  24.810  0.00  0.00    +0.004 C 
ATOM     17  C   UNL     1      -0.333   3.309  26.048  0.00  0.00    +0.000 C 
ATOM     18  C   UNL     1      -0.572   5.432  24.705  0.00  0.00    +0.000 C 
ATOM     20  C   UNL     1       0.091   4.061  24.791  0.00  0.00    +0.000 C 
ENDBRANCH  19  11
ENDBRANCH  22  19
ENDBRANCH  12  21
ENDBRANCH   7  12
BRANCH   8  14
ATOM     14  C   UNL     1      -2.058  -0.193  23.197  0.00  0.00    +0.099 C 
BRANCH  14  24
ATOM      2  O   UNL     1      -1.372   2.110  22.925  0.00  0.00    -0.276 OA
ATOM      5  N   UNL     1       0.245   0.461  23.179  0.00  0.00    -0.311 N 
ATOM     24  C   UNL     1      -1.055   0.935  23.084  0.00  0.00    +0.214 C 
ATOM     32  H   UNL     1       0.402  -0.536  23.294  0.00  0.00    +0.149 HD
BRANCH   5  25
ATOM     25  C   UNL     1       1.405   1.319  23.102  0.00  0.00    +0.141 C 
BRANCH  25  26
ATOM      6  N   UNL     1       3.787  -1.555  23.707  0.00  0.00    -0.263 NA
ATOM     26  C   UNL     1       2.685   0.545  23.239  0.00  0.00    -0.012 A 
ATOM     27  C   UNL     1       3.917   1.157  23.043  0.00  0.00    +0.008 A 
ATOM     28  C   UNL     1       2.675  -0.801  23.566  0.00  0.00    +0.115 A 
ATOM     29  C   UNL     1       5.086   0.416  23.179  0.00  0.00    +0.020 A 
ATOM     30  C   UNL     1       4.967  -0.925  23.509  0.00  0.00    +0.111 A 
ENDBRANCH  25  26
ENDBRANCH   5  25
ENDBRANCH  14  24
ENDBRANCH   8  14
TORSDOF 8
ENDMDL
MODEL 5
REMARK VINA RESULT:      -1.3      2.103      7.658
REMARK  Name = 26743260
REMARK  8 active torsions:
REMARK  status: ('A' for Active; 'I' for Inactive)
REMARK    1  A    between atoms: N_5  and  C_25
REMARK    2  A    between atoms: C_7  and  C_12
REMARK    3  A    between atoms: C_8  and  C_14
REMARK    4  A    between atoms: C_11  and  C_19
REMARK    5  A    between atoms: C_12  and  C_21
REMARK    6  A    between atoms: C_14  and  C_24
REMARK    7  A    between atoms: C_19  and  C_22
REMARK    8  A    between atoms: C_25  and  C_26
REMARK                            x       y       z     vdW  Elec       q    Type
REMARK                         _______ _______ _______ _____ _____    ______ ____
ROOT
ATOM      3  N   UNL     1      -3.298  -1.837  25.618  0.00  0.00    -0.316 NA
ATOM      7  C   UNL     1      -0.993  -0.977  25.953  0.00  0.00    +0.012 C 
ATOM      8  C   UNL     1      -0.617  -1.330  24.494  0.00  0.00    +0.004 C 
ATOM      9  C   UNL     1      -1.540  -2.456  23.997  0.00  0.00    +0.019 C 
ATOM     10  C   UNL     1      -2.500  -0.710  26.103  0.00  0.00    +0.085 C 
ATOM     13  C   UNL     1      -3.018  -2.137  24.215  0.00  0.00    +0.081 C 
ATOM     31  H   UNL     1      -4.288  -1.620  25.726  0.00  0.00    +0.122 HD
ENDROOT
BRANCH   7  12
ATOM     12  C   UNL     1      -0.183   0.193  26.514  0.00  0.00    +0.064 C 
BRANCH  12  21
ATOM      1  O   UNL     1      -0.418   3.489  25.087  0.00  0.00    -0.359 OA
ATOM      4  N   UNL     1       0.302   2.434  25.633  0.00  0.00    -0.083 NA
ATOM     21  C   UNL     1      -0.610   1.497  25.905  0.00  0.00    +0.084 A 
ATOM     22  C   UNL     1      -1.734   3.160  25.046  0.00  0.00    +0.138 A 
ATOM     23  C   UNL     1      -1.910   1.900  25.555  0.00  0.00    +0.071 A 
BRANCH  22  19
ATOM     19  C   UNL     1      -2.646   4.168  24.493  0.00  0.00    +0.080 C 
BRANCH  19  11
ATOM     11  C   UNL     1      -4.107   3.723  24.493  0.00  0.00    -0.004 C 
ATOM     15  C   UNL     1      -4.218   2.226  24.176  0.00  0.00    +0.004 C 
ATOM     16  C   UNL     1      -4.772   4.048  25.837  0.00  0.00    +0.004 C 
ATOM     17  C   UNL     1      -5.667   1.746  24.224  0.00  0.00    +0.000 C 
ATOM     18  C   UNL     1      -6.221   3.565  25.882  0.00  0.00    +0.000 C 
ATOM     20  C   UNL     1      -6.328   2.079  25.558  0.00  0.00    +0.000 C 
ENDBRANCH  19  11
ENDBRANCH  22  19
ENDBRANCH  12  21
ENDBRANCH   7  12
BRANCH   8  14
ATOM     14  C   UNL     1      -0.649  -0.135  23.534  0.00  0.00    +0.099 C 
BRANCH  14  24
ATOM      2  O   UNL     1       0.818  -0.676  21.690  0.00  0.00    -0.276 OA
ATOM      5  N   UNL     1       1.497   0.891  23.265  0.00  0.00    -0.311 N 
ATOM     24  C   UNL     1       0.616  -0.026  22.712  0.00  0.00    +0.214 C 
ATOM     32  H   UNL     1       1.242   1.367  24.126  0.00  0.00    +0.149 HD
BRANCH   5  25
ATOM     25  C   UNL     1       2.787   1.194  22.689  0.00  0.00    +0.141 C 
BRANCH  25  26
ATOM      6  N   UNL     1       4.558  -1.891  23.969  0.00  0.00    -0.263 NA
ATOM     26  C   UNL     1       3.868   0.306  23.232  0.00  0.00    -0.012 A 
ATOM     27  C   UNL     1       5.137   0.804  23.505  0.00  0.00    +0.008 A 
ATOM     28  C   UNL     1       3.632  -1.037  23.480  0.00  0.00    +0.115 A 
ATOM     29  C   UNL     1       6.118  -0.043  24.010  0.00  0.00    +0.020 A 
ATOM     30  C   UNL     1       5.780  -1.370  24.223  0.00  0.00    +0.111 A 
ENDBRANCH  25  26
ENDBRANCH   5  25
ENDBRANCH  14  24
ENDBRANCH   8  14
TORSDOF 8
ENDMDL
MODEL 6
REMARK VINA RESULT:      -0.3     14.787     18.016
REMARK  Name = 26743260
REMARK  8 active torsions:
REMARK  status: ('A' for Active; 'I' for Inactive)
REMARK    1  A    between atoms: N_5  and  C_25
REMARK    2  A    between atoms: C_7  and  C_12
REMARK    3  A    between atoms: C_8  and  C_14
REMARK    4  A    between atoms: C_11  and  C_19
REMARK    5  A    between atoms: C_12  and  C_21
REMARK    6  A    between atoms: C_14  and  C_24
REMARK    7  A    between atoms: C_19  and  C_22
REMARK    8  A    between atoms: C_25  and  C_26
REMARK                            x       y       z     vdW  Elec       q    Type
REMARK                         _______ _______ _______ _____ _____    ______ ____
ROOT
ATOM      3  N   UNL     1     -10.718  -7.246  11.014  0.00  0.00    -0.316 NA
ATOM      7  C   UNL     1      -9.653  -9.461  10.661  0.00  0.00    +0.012 C 
ATOM      8  C   UNL     1      -8.889  -8.931   9.424  0.00  0.00    +0.004 C 
ATOM      9  C   UNL     1      -9.656  -7.734   8.838  0.00  0.00    +0.019 C 
ATOM     10  C   UNL     1      -9.978  -8.334  11.655  0.00  0.00    +0.085 C 
ATOM     13  C   UNL     1      -9.978  -6.675   9.890  0.00  0.00    +0.081 C 
ATOM     31  H   UNL     1     -10.906  -6.517  11.700  0.00  0.00    +0.122 HD
ENDROOT
BRANCH   7  12
ATOM     12  C   UNL     1      -8.928 -10.608  11.369  0.00  0.00    +0.064 C 
BRANCH  12  21
ATOM      1  O   UNL     1     -10.416 -10.637  14.647  0.00  0.00    -0.359 OA
ATOM      4  N   UNL     1     -10.496 -10.625  13.260  0.00  0.00    -0.083 NA
ATOM     21  C   UNL     1      -9.228 -10.619  12.840  0.00  0.00    +0.084 A 
ATOM     22  C   UNL     1      -9.111 -10.636  15.020  0.00  0.00    +0.138 A 
ATOM     23  C   UNL     1      -8.313 -10.626  13.906  0.00  0.00    +0.071 A 
BRANCH  22  19
ATOM     19  C   UNL     1      -8.842 -10.648  16.462  0.00  0.00    +0.080 C 
BRANCH  19  11
ATOM     11  C   UNL     1      -7.448 -10.134  16.819  0.00  0.00    -0.004 C 
ATOM     15  C   UNL     1      -7.138 -10.390  18.300  0.00  0.00    +0.004 C 
ATOM     16  C   UNL     1      -6.386 -10.779  15.919  0.00  0.00    +0.004 C 
ATOM     17  C   UNL     1      -5.728  -9.932  18.667  0.00  0.00    +0.000 C 
ATOM     18  C   UNL     1      -4.977 -10.321  16.290  0.00  0.00    +0.000 C 
ATOM     20  C   UNL     1      -4.676 -10.569  17.765  0.00  0.00    +0.000 C 
ENDBRANCH  19  11
ENDBRANCH  22  19
ENDBRANCH  12  21
ENDBRANCH   7  12
BRANCH   8  14
ATOM     14  C   UNL     1      -7.429  -8.560   9.705  0.00  0.00    +0.099 C 
BRANCH  14  24
ATOM      2  O   UNL     1      -6.358 -10.663   9.174  0.00  0.00    -0.276 OA
ATOM      5  N   UNL     1      -6.082  -9.745  11.291  0.00  0.00    -0.311 N 
ATOM     24  C   UNL     1      -6.574  -9.775   9.994  0.00  0.00    +0.214 C 
ATOM     32  H   UNL     1      -6.334  -8.971  11.899  0.00  0.00    +0.149 HD
BRANCH   5  25
ATOM     25  C   UNL     1      -5.237 -10.781  11.839  0.00  0.00    +0.141 C 
BRANCH  25  26
ATOM      6  N   UNL     1      -1.865  -9.335  10.925  0.00  0.00    -0.263 NA
ATOM     26  C   UNL     1      -3.808 -10.336  11.958  0.00  0.00    -0.012 A 
ATOM     27  C   UNL     1      -3.105 -10.493  13.146  0.00  0.00    +0.008 A 
ATOM     28  C   UNL     1      -3.148  -9.756  10.886  0.00  0.00    +0.115 A 
ATOM     29  C   UNL     1      -1.782 -10.073  13.227  0.00  0.00    +0.020 A 
ATOM     30  C   UNL     1      -1.213  -9.505  12.097  0.00  0.00    +0.111 A 
ENDBRANCH  25  26
ENDBRANCH   5  25
ENDBRANCH  14  24
ENDBRANCH   8  14
TORSDOF 8
ENDMDL
MODEL 7
REMARK VINA RESULT:       0.3      1.954      6.512
REMARK  Name = 26743260
REMARK  8 active torsions:
REMARK  status: ('A' for Active; 'I' for Inactive)
REMARK    1  A    between atoms: N_5  and  C_25
REMARK    2  A    between atoms: C_7  and  C_12
REMARK    3  A    between atoms: C_8  and  C_14
REMARK    4  A    between atoms: C_11  and  C_19
REMARK    5  A    between atoms: C_12  and  C_21
REMARK    6  A    between atoms: C_14  and  C_24
REMARK    7  A    between atoms: C_19  and  C_22
REMARK    8  A    between atoms: C_25  and  C_26
REMARK                            x       y       z     vdW  Elec       q    Type
REMARK                         _______ _______ _______ _____ _____    ______ ____
ROOT
ATOM      3  N   UNL     1       3.704   1.154  22.223  0.00  0.00    -0.316 NA
ATOM      7  C   UNL     1       1.514   1.498  23.340  0.00  0.00    +0.012 C 
ATOM      8  C   UNL     1       1.042   0.086  22.917  0.00  0.00    +0.004 C 
ATOM      9  C   UNL     1       1.825  -0.350  21.668  0.00  0.00    +0.019 C 
ATOM     10  C   UNL     1       3.044   1.574  23.460  0.00  0.00    +0.085 C 
ATOM     13  C   UNL     1       3.335  -0.210  21.847  0.00  0.00    +0.081 C 
ATOM     31  H   UNL     1       4.714   1.209  22.344  0.00  0.00    +0.122 HD
ENDROOT
BRANCH   7  12
ATOM     12  C   UNL     1       0.849   1.992  24.627  0.00  0.00    +0.064 C 
BRANCH  12  21
ATOM      1  O   UNL     1      -2.553   2.488  23.559  0.00  0.00    -0.359 OA
ATOM      4  N   UNL     1      -1.363   1.771  23.582  0.00  0.00    -0.083 NA
ATOM     21  C   UNL     1      -0.548   2.479  24.368  0.00  0.00    +0.084 A 
ATOM     22  C   UNL     1      -2.420   3.601  24.325  0.00  0.00    +0.138 A 
ATOM     23  C   UNL     1      -1.161   3.642  24.864  0.00  0.00    +0.071 A 
BRANCH  22  19
ATOM     19  C   UNL     1      -3.591   4.480  24.413  0.00  0.00    +0.080 C 
BRANCH  19  11
ATOM     11  C   UNL     1      -4.840   3.770  24.930  0.00  0.00    -0.004 C 
ATOM     15  C   UNL     1      -5.173   2.552  24.057  0.00  0.00    +0.004 C 
ATOM     16  C   UNL     1      -4.661   3.358  26.397  0.00  0.00    +0.004 C 
ATOM     17  C   UNL     1      -6.388   1.794  24.587  0.00  0.00    +0.000 C 
ATOM     18  C   UNL     1      -5.877   2.598  26.923  0.00  0.00    +0.000 C 
ATOM     20  C   UNL     1      -6.209   1.394  26.048  0.00  0.00    +0.000 C 
ENDBRANCH  19  11
ENDBRANCH  22  19
ENDBRANCH  12  21
ENDBRANCH   7  12
BRANCH   8  14
ATOM     14  C   UNL     1       1.152  -0.967  24.026  0.00  0.00    +0.099 C 
BRANCH  14  24
ATOM      2  O   UNL     1      -0.859  -2.306  23.934  0.00  0.00    -0.276 OA
ATOM      5  N   UNL     1      -0.592  -0.767  25.654  0.00  0.00    -0.311 N 
ATOM     24  C   UNL     1      -0.203  -1.439  24.505  0.00  0.00    +0.214 C 
ATOM     32  H   UNL     1       0.018  -0.052  26.040  0.00  0.00    +0.149 HD
BRANCH   5  25
ATOM     25  C   UNL     1      -1.845  -1.016  26.329  0.00  0.00    +0.141 C 
BRANCH  25  26
ATOM      6  N   UNL     1      -4.101  -3.380  24.427  0.00  0.00    -0.263 NA
ATOM     26  C   UNL     1      -2.902  -1.512  25.386  0.00  0.00    -0.012 A 
ATOM     27  C   UNL     1      -3.645  -0.629  24.612  0.00  0.00    +0.008 A 
ATOM     28  C   UNL     1      -3.166  -2.867  25.257  0.00  0.00    +0.115 A 
ATOM     29  C   UNL     1      -4.617  -1.118  23.745  0.00  0.00    +0.020 A 
ATOM     30  C   UNL     1      -4.803  -2.491  23.690  0.00  0.00    +0.111 A 
ENDBRANCH  25  26
ENDBRANCH   5  25
ENDBRANCH  14  24
ENDBRANCH   8  14
TORSDOF 8
ENDMDL
