MODEL 1
REMARK VINA RESULT:      -1.6      0.000      0.000
REMARK  Name = 51136657
REMARK  8 active torsions:
REMARK  status: ('A' for Active; 'I' for Inactive)
REMARK    1  A    between atoms: O_3  and  C_18
REMARK    2  A    between atoms: O_5  and  C_26
REMARK    3  A    between atoms: O_5  and  C_32
REMARK    4  A    between atoms: C_8  and  C_13
REMARK    5  A    between atoms: C_9  and  C_14
REMARK    6  A    between atoms: C_13  and  C_15
REMARK    7  A    between atoms: C_14  and  C_18
REMARK    8  A    between atoms: C_16  and  C_22
REMARK                            x       y       z     vdW  Elec       q    Type
REMARK                         _______ _______ _______ _____ _____    ______ ____
ROOT
ATOM      2  O   UNL     1      -5.934   0.896  26.491  0.00  0.00    -0.270 OA
ATOM      6  N   UNL     1      -4.567   2.038  24.974  0.00  0.00    -0.297 N 
ATOM      8  C   UNL     1      -2.321   2.868  24.306  0.00  0.00    +0.016 C 
ATOM      9  C   UNL     1      -2.758   4.288  24.748  0.00  0.00    +0.006 C 
ATOM     10  C   UNL     1      -3.849   4.234  25.830  0.00  0.00    +0.023 C 
ATOM     11  C   UNL     1      -3.556   2.040  23.906  0.00  0.00    +0.112 C 
ATOM     12  C   UNL     1      -5.022   3.363  25.389  0.00  0.00    +0.108 C 
ATOM     16  C   UNL     1      -5.093   0.903  25.594  0.00  0.00    +0.247 C 
ENDROOT
BRANCH  16  22
ATOM      1  F   UNL     1      -3.254  -4.105  23.900  0.00  0.00    -0.205 F 
ATOM     22  C   UNL     1      -4.611  -0.411  25.150  0.00  0.00    +0.037 A 
ATOM     27  C   UNL     1      -4.843  -0.833  23.841  0.00  0.00    +0.016 A 
ATOM     28  C   UNL     1      -3.920  -1.237  26.037  0.00  0.00    +0.016 A 
ATOM     29  C   UNL     1      -4.385  -2.080  23.418  0.00  0.00    +0.039 A 
ATOM     30  C   UNL     1      -3.462  -2.485  25.615  0.00  0.00    +0.039 A 
ATOM     31  C   UNL     1      -3.695  -2.906  24.306  0.00  0.00    +0.123 A 
ENDBRANCH  16  22
BRANCH   8  13
ATOM     13  C   UNL     1      -1.494   2.116  25.356  0.00  0.00    +0.061 C 
BRANCH  13  15
ATOM      7  N   UNL     1      -1.674  -0.226  24.856  0.00  0.00    -0.287 NA
ATOM     15  C   UNL     1      -0.948   0.841  24.763  0.00  0.00    +0.044 C 
ATOM     17  C   UNL     1       0.387   0.867  24.114  0.00  0.00    -0.001 A 
ATOM     19  C   UNL     1       1.024  -0.367  23.928  0.00  0.00    -0.033 A 
ATOM     20  C   UNL     1       0.334  -1.611  24.403  0.00  0.00    +0.059 C 
ATOM     21  C   UNL     1      -1.171  -1.451  24.227  0.00  0.00    +0.146 C 
ATOM     23  C   UNL     1       1.008   2.051  23.711  0.00  0.00    +0.013 A 
ATOM     24  C   UNL     1       2.300  -0.407  23.360  0.00  0.00    +0.050 A 
ATOM     25  C   UNL     1       2.276   2.000  23.130  0.00  0.00    +0.046 A 
ATOM     26  C   UNL     1       2.921   0.776  22.958  0.00  0.00    +0.120 A 
BRANCH  26   5
ATOM      5  O   UNL     1       4.161   0.735  22.396  0.00  0.00    -0.495 OA
ATOM     32  C   UNL     1       5.204   0.143  23.168  0.00  0.00    +0.277 C 
ENDBRANCH  26   5
ENDBRANCH  13  15
ENDBRANCH   8  13
BRANCH   9  14
ATOM     14  C   UNL     1      -1.590   5.162  25.203  0.00  0.00    +0.124 C 
BRANCH  14  18
ATOM      4  O   UNL     1      -0.020   4.986  23.346  0.00  0.00    -0.251 OA
ATOM     18  C   UNL     1      -0.309   4.779  24.516  0.00  0.00    +0.305 C 
BRANCH  18   3
ATOM      3  O   UNL     1       0.513   4.150  25.394  0.00  0.00    -0.481 OA
ATOM     33  H   UNL     1       0.012   3.626  26.054  0.00  0.00    +0.295 HD
ENDBRANCH  18   3
ENDBRANCH  14  18
ENDBRANCH   9  14
TORSDOF 7
ENDMDL
MODEL 2
REMARK VINA RESULT:      -1.5      2.716      5.059
REMARK  Name = 51136657
REMARK  8 active torsions:
REMARK  status: ('A' for Active; 'I' for Inactive)
REMARK    1  A    between atoms: O_3  and  C_18
REMARK    2  A    between atoms: O_5  and  C_26
REMARK    3  A    between atoms: O_5  and  C_32
REMARK    4  A    between atoms: C_8  and  C_13
REMARK    5  A    between atoms: C_9  and  C_14
REMARK    6  A    between atoms: C_13  and  C_15
REMARK    7  A    between atoms: C_14  and  C_18
REMARK    8  A    between atoms: C_16  and  C_22
REMARK                            x       y       z     vdW  Elec       q    Type
REMARK                         _______ _______ _______ _____ _____    ______ ____
ROOT
ATOM      2  O   UNL     1      -5.992   2.390  23.678  0.00  0.00    -0.270 OA
ATOM      6  N   UNL     1      -4.845   0.807  24.963  0.00  0.00    -0.297 N 
ATOM      8  C   UNL     1      -2.933  -0.755  25.244  0.00  0.00    +0.016 C 
ATOM      9  C   UNL     1      -3.896  -1.929  24.934  0.00  0.00    +0.006 C 
ATOM     10  C   UNL     1      -5.079  -1.474  24.063  0.00  0.00    +0.023 C 
ATOM     11  C   UNL     1      -3.721   0.430  25.832  0.00  0.00    +0.112 C 
ATOM     12  C   UNL     1      -5.789  -0.272  24.678  0.00  0.00    +0.108 C 
ATOM     16  C   UNL     1      -5.056   2.072  24.410  0.00  0.00    +0.247 C 
ENDROOT
BRANCH  16  22
ATOM      1  F   UNL     1      -1.358   6.104  25.585  0.00  0.00    -0.205 F 
ATOM     22  C   UNL     1      -4.087   3.130  24.719  0.00  0.00    +0.037 A 
ATOM     27  C   UNL     1      -4.014   3.655  26.008  0.00  0.00    +0.016 A 
ATOM     28  C   UNL     1      -3.238   3.610  23.721  0.00  0.00    +0.016 A 
ATOM     29  C   UNL     1      -3.092   4.659  26.302  0.00  0.00    +0.039 A 
ATOM     30  C   UNL     1      -2.316   4.615  24.014  0.00  0.00    +0.039 A 
ATOM     31  C   UNL     1      -2.244   5.139  25.304  0.00  0.00    +0.123 A 
ENDBRANCH  16  22
BRANCH   8  13
ATOM     13  C   UNL     1      -2.102  -0.297  24.040  0.00  0.00    +0.061 C 
BRANCH  13  15
ATOM      7  N   UNL     1      -1.292   1.479  25.439  0.00  0.00    -0.287 NA
ATOM     15  C   UNL     1      -1.010   0.641  24.495  0.00  0.00    +0.044 C 
ATOM     17  C   UNL     1       0.320   0.563  23.840  0.00  0.00    -0.001 A 
ATOM     19  C   UNL     1       1.167   1.667  23.998  0.00  0.00    -0.033 A 
ATOM     20  C   UNL     1       0.678   2.842  24.792  0.00  0.00    +0.059 C 
ATOM     21  C   UNL     1      -0.215   2.349  25.923  0.00  0.00    +0.146 C 
ATOM     23  C   UNL     1       0.727  -0.539  23.085  0.00  0.00    +0.013 A 
ATOM     24  C   UNL     1       2.417   1.674  23.372  0.00  0.00    +0.050 A 
ATOM     25  C   UNL     1       1.983  -0.530  22.477  0.00  0.00    +0.046 A 
ATOM     26  C   UNL     1       2.824   0.574  22.618  0.00  0.00    +0.120 A 
BRANCH  26   5
ATOM      5  O   UNL     1       4.046   0.577  22.015  0.00  0.00    -0.495 OA
ATOM     32  C   UNL     1       5.168   0.223  22.821  0.00  0.00    +0.277 C 
ENDBRANCH  26   5
ENDBRANCH  13  15
ENDBRANCH   8  13
BRANCH   9  14
ATOM     14  C   UNL     1      -3.195  -3.133  24.306  0.00  0.00    +0.124 C 
BRANCH  14  18
ATOM      4  O   UNL     1      -1.070  -2.783  25.447  0.00  0.00    -0.251 OA
ATOM     18  C   UNL     1      -1.700  -3.032  24.431  0.00  0.00    +0.305 C 
BRANCH  18   3
ATOM      3  O   UNL     1      -1.122  -3.262  23.224  0.00  0.00    -0.481 OA
ATOM     33  H   UNL     1      -0.260  -3.718  23.311  0.00  0.00    +0.295 HD
ENDBRANCH  18   3
ENDBRANCH  14  18
ENDBRANCH   9  14
TORSDOF 7
ENDMDL
MODEL 3
REMARK VINA RESULT:      -0.1      2.384      6.102
REMARK  Name = 51136657
REMARK  8 active torsions:
REMARK  status: ('A' for Active; 'I' for Inactive)
REMARK    1  A    between atoms: O_3  and  C_18
REMARK    2  A    between atoms: O_5  and  C_26
REMARK    3  A    between atoms: O_5  and  C_32
REMARK    4  A    between atoms: C_8  and  C_13
REMARK    5  A    between atoms: C_9  and  C_14
REMARK    6  A    between atoms: C_13  and  C_15
REMARK    7  A    between atoms: C_14  and  C_18
REMARK    8  A    between atoms: C_16  and  C_22
REMARK                            x       y       z     vdW  Elec       q    Type
REMARK                         _______ _______ _______ _____ _____    ______ ____
ROOT
ATOM      2  O   UNL     1      -2.220  -2.773  23.464  0.00  0.00    -0.270 OA
ATOM      6  N   UNL     1      -0.722  -1.252  24.422  0.00  0.00    -0.297 N 
ATOM      8  C   UNL     1       0.350   0.990  24.435  0.00  0.00    +0.016 C 
ATOM      9  C   UNL     1       1.626   0.340  23.843  0.00  0.00    +0.006 C 
ATOM     10  C   UNL     1       1.295  -0.932  23.044  0.00  0.00    +0.023 C 
ATOM     11  C   UNL     1      -0.450  -0.056  25.233  0.00  0.00    +0.112 C 
ATOM     12  C   UNL     1       0.465  -1.906  23.875  0.00  0.00    +0.108 C 
ATOM     16  C   UNL     1      -1.987  -1.777  24.147  0.00  0.00    +0.247 C 
ENDROOT
BRANCH  16  22
ATOM      1  F   UNL     1      -6.442   0.833  26.306  0.00  0.00    -0.205 F 
ATOM     22  C   UNL     1      -3.155  -1.092  24.713  0.00  0.00    +0.037 A 
ATOM     27  C   UNL     1      -4.277  -0.855  23.919  0.00  0.00    +0.016 A 
ATOM     28  C   UNL     1      -3.143  -0.679  26.046  0.00  0.00    +0.016 A 
ATOM     29  C   UNL     1      -5.387  -0.205  24.457  0.00  0.00    +0.039 A 
ATOM     30  C   UNL     1      -4.254  -0.028  26.584  0.00  0.00    +0.039 A 
ATOM     31  C   UNL     1      -5.375   0.208  25.789  0.00  0.00    +0.123 A 
ENDBRANCH  16  22
BRANCH   8  13
ATOM     13  C   UNL     1      -0.548   1.664  23.391  0.00  0.00    +0.061 C 
BRANCH  13  15
ATOM      7  N   UNL     1      -0.001   3.952  23.871  0.00  0.00    -0.287 NA
ATOM     15  C   UNL     1      -0.926   3.049  23.855  0.00  0.00    +0.044 C 
ATOM     17  C   UNL     1      -2.327   3.306  24.277  0.00  0.00    -0.001 A 
ATOM     19  C   UNL     1      -2.554   4.451  25.050  0.00  0.00    -0.033 A 
ATOM     20  C   UNL     1      -1.385   5.320  25.410  0.00  0.00    +0.059 C 
ATOM     21  C   UNL     1      -0.381   5.313  24.265  0.00  0.00    +0.146 C 
ATOM     23  C   UNL     1      -3.383   2.456  23.943  0.00  0.00    +0.013 A 
ATOM     24  C   UNL     1      -3.843   4.728  25.513  0.00  0.00    +0.050 A 
ATOM     25  C   UNL     1      -4.670   2.748  24.396  0.00  0.00    +0.046 A 
ATOM     26  C   UNL     1      -4.899   3.878  25.181  0.00  0.00    +0.120 A 
BRANCH  26   5
ATOM      5  O   UNL     1      -6.157   4.153  25.625  0.00  0.00    -0.495 OA
ATOM     32  C   UNL     1      -6.626   5.490  25.461  0.00  0.00    +0.277 C 
ENDBRANCH  26   5
ENDBRANCH  13  15
ENDBRANCH   8  13
BRANCH   9  14
ATOM     14  C   UNL     1       2.456   1.306  22.998  0.00  0.00    +0.124 C 
BRANCH  14  18
ATOM      4  O   UNL     1       4.662   0.343  23.387  0.00  0.00    -0.251 OA
ATOM     18  C   UNL     1       3.785   0.713  22.620  0.00  0.00    +0.305 C 
BRANCH  18   3
ATOM      3  O   UNL     1       3.888   0.641  21.268  0.00  0.00    -0.481 OA
ATOM     33  H   UNL     1       4.569  -0.004  20.986  0.00  0.00    +0.295 HD
ENDBRANCH  18   3
ENDBRANCH  14  18
ENDBRANCH   9  14
TORSDOF 7
ENDMDL
MODEL 4
REMARK VINA RESULT:       0.1      2.185      5.532
REMARK  Name = 51136657
REMARK  8 active torsions:
REMARK  status: ('A' for Active; 'I' for Inactive)
REMARK    1  A    between atoms: O_3  and  C_18
REMARK    2  A    between atoms: O_5  and  C_26
REMARK    3  A    between atoms: O_5  and  C_32
REMARK    4  A    between atoms: C_8  and  C_13
REMARK    5  A    between atoms: C_9  and  C_14
REMARK    6  A    between atoms: C_13  and  C_15
REMARK    7  A    between atoms: C_14  and  C_18
REMARK    8  A    between atoms: C_16  and  C_22
REMARK                            x       y       z     vdW  Elec       q    Type
REMARK                         _______ _______ _______ _____ _____    ______ ____
ROOT
ATOM      2  O   UNL     1      -2.268   5.282  25.533  0.00  0.00    -0.270 OA
ATOM      6  N   UNL     1      -1.494   3.600  24.104  0.00  0.00    -0.297 N 
ATOM      8  C   UNL     1      -0.554   1.322  23.775  0.00  0.00    +0.016 C 
ATOM      9  C   UNL     1       0.827   1.974  23.508  0.00  0.00    +0.006 C 
ATOM     10  C   UNL     1       0.953   3.338  24.206  0.00  0.00    +0.023 C 
ATOM     11  C   UNL     1      -1.679   2.312  23.419  0.00  0.00    +0.112 C 
ATOM     12  C   UNL     1      -0.213   4.253  23.846  0.00  0.00    +0.108 C 
ATOM     16  C   UNL     1      -2.420   4.208  24.953  0.00  0.00    +0.247 C 
ENDROOT
BRANCH  16  22
ATOM      1  F   UNL     1      -7.283   1.587  25.851  0.00  0.00    -0.205 F 
ATOM     22  C   UNL     1      -3.696   3.521  25.189  0.00  0.00    +0.037 A 
ATOM     27  C   UNL     1      -4.247   3.493  26.469  0.00  0.00    +0.016 A 
ATOM     28  C   UNL     1      -4.356   2.895  24.131  0.00  0.00    +0.016 A 
ATOM     29  C   UNL     1      -5.458   2.840  26.694  0.00  0.00    +0.039 A 
ATOM     30  C   UNL     1      -5.568   2.241  24.355  0.00  0.00    +0.039 A 
ATOM     31  C   UNL     1      -6.119   2.214  25.636  0.00  0.00    +0.123 A 
ENDBRANCH  16  22
BRANCH   8  13
ATOM     13  C   UNL     1      -0.733   0.807  25.208  0.00  0.00    +0.061 C 
BRANCH  13  15
ATOM      7  N   UNL     1       0.050  -1.435  25.563  0.00  0.00    -0.287 NA
ATOM     15  C   UNL     1      -0.938  -0.688  25.195  0.00  0.00    +0.044 C 
ATOM     17  C   UNL     1      -2.251  -1.226  24.755  0.00  0.00    -0.001 A 
ATOM     19  C   UNL     1      -2.288  -2.577  24.386  0.00  0.00    -0.033 A 
ATOM     20  C   UNL     1      -1.019  -3.373  24.442  0.00  0.00    +0.059 C 
ATOM     21  C   UNL     1      -0.169  -2.885  25.608  0.00  0.00    +0.146 C 
ATOM     23  C   UNL     1      -3.405  -0.442  24.691  0.00  0.00    +0.013 A 
ATOM     24  C   UNL     1      -3.484  -3.133  23.924  0.00  0.00    +0.050 A 
ATOM     25  C   UNL     1      -4.599  -1.011  24.243  0.00  0.00    +0.046 A 
ATOM     26  C   UNL     1      -4.637  -2.351  23.858  0.00  0.00    +0.120 A 
BRANCH  26   5
ATOM      5  O   UNL     1      -5.804  -2.897  23.416  0.00  0.00    -0.495 OA
ATOM     32  C   UNL     1      -5.706  -4.038  22.567  0.00  0.00    +0.277 C 
ENDBRANCH  26   5
ENDBRANCH  13  15
ENDBRANCH   8  13
BRANCH   9  14
ATOM     14  C   UNL     1       2.001   1.067  23.878  0.00  0.00    +0.124 C 
BRANCH  14  18
ATOM      4  O   UNL     1       3.989   0.824  22.489  0.00  0.00    -0.251 OA
ATOM     18  C   UNL     1       2.791   0.659  22.666  0.00  0.00    +0.305 C 
BRANCH  18   3
ATOM      3  O   UNL     1       1.971   0.064  21.762  0.00  0.00    -0.481 OA
ATOM     33  H   UNL     1       1.683   0.687  21.063  0.00  0.00    +0.295 HD
ENDBRANCH  18   3
ENDBRANCH  14  18
ENDBRANCH   9  14
TORSDOF 7
ENDMDL
MODEL 5
REMARK VINA RESULT:       0.6      3.237      7.265
REMARK  Name = 51136657
REMARK  8 active torsions:
REMARK  status: ('A' for Active; 'I' for Inactive)
REMARK    1  A    between atoms: O_3  and  C_18
REMARK    2  A    between atoms: O_5  and  C_26
REMARK    3  A    between atoms: O_5  and  C_32
REMARK    4  A    between atoms: C_8  and  C_13
REMARK    5  A    between atoms: C_9  and  C_14
REMARK    6  A    between atoms: C_13  and  C_15
REMARK    7  A    between atoms: C_14  and  C_18
REMARK    8  A    between atoms: C_16  and  C_22
REMARK                            x       y       z     vdW  Elec       q    Type
REMARK                         _______ _______ _______ _____ _____    ______ ____
ROOT
ATOM      2  O   UNL     1      -0.079   0.910  27.587  0.00  0.00    -0.270 OA
ATOM      6  N   UNL     1      -0.206  -0.038  25.452  0.00  0.00    -0.297 N 
ATOM      8  C   UNL     1      -1.569  -0.892  23.558  0.00  0.00    +0.016 C 
ATOM      9  C   UNL     1      -1.226  -2.333  24.012  0.00  0.00    +0.006 C 
ATOM     10  C   UNL     1      -0.921  -2.395  25.517  0.00  0.00    +0.023 C 
ATOM     11  C   UNL     1      -0.462   0.078  24.009  0.00  0.00    +0.112 C 
ATOM     12  C   UNL     1       0.151  -1.381  25.906  0.00  0.00    +0.108 C 
ATOM     16  C   UNL     1      -0.286   1.004  26.379  0.00  0.00    +0.247 C 
ENDROOT
BRANCH  16  22
ATOM      1  F   UNL     1      -1.669   6.091  24.499  0.00  0.00    -0.205 F 
ATOM     22  C   UNL     1      -0.648   2.338  25.886  0.00  0.00    +0.037 A 
ATOM     27  C   UNL     1       0.037   2.892  24.805  0.00  0.00    +0.016 A 
ATOM     28  C   UNL     1      -1.679   3.052  26.498  0.00  0.00    +0.016 A 
ATOM     29  C   UNL     1      -0.307   4.159  24.336  0.00  0.00    +0.039 A 
ATOM     30  C   UNL     1      -2.023   4.320  26.030  0.00  0.00    +0.039 A 
ATOM     31  C   UNL     1      -1.337   4.873  24.949  0.00  0.00    +0.123 A 
ENDBRANCH  16  22
BRANCH   8  13
ATOM     13  C   UNL     1      -2.939  -0.397  24.038  0.00  0.00    +0.061 C 
BRANCH  13  15
ATOM      7  N   UNL     1      -2.732   1.188  22.246  0.00  0.00    -0.287 NA
ATOM     15  C   UNL     1      -3.258   0.932  23.399  0.00  0.00    +0.044 C 
ATOM     17  C   UNL     1      -4.148   1.878  24.119  0.00  0.00    -0.001 A 
ATOM     19  C   UNL     1      -4.114   3.216  23.706  0.00  0.00    -0.033 A 
ATOM     20  C   UNL     1      -3.187   3.602  22.592  0.00  0.00    +0.059 C 
ATOM     21  C   UNL     1      -3.090   2.453  21.597  0.00  0.00    +0.146 C 
ATOM     23  C   UNL     1      -4.977   1.483  25.171  0.00  0.00    +0.013 A 
ATOM     24  C   UNL     1      -4.897   4.164  24.370  0.00  0.00    +0.050 A 
ATOM     25  C   UNL     1      -5.768   2.433  25.818  0.00  0.00    +0.046 A 
ATOM     26  C   UNL     1      -5.726   3.770  25.422  0.00  0.00    +0.120 A 
BRANCH  26   5
ATOM      5  O   UNL     1      -6.495   4.693  26.063  0.00  0.00    -0.495 OA
ATOM     32  C   UNL     1      -6.584   5.987  25.472  0.00  0.00    +0.277 C 
ENDBRANCH  26   5
ENDBRANCH  13  15
ENDBRANCH   8  13
BRANCH   9  14
ATOM     14  C   UNL     1      -2.301  -3.354  23.637  0.00  0.00    +0.124 C 
BRANCH  14  18
ATOM      4  O   UNL     1      -3.701  -3.100  25.616  0.00  0.00    -0.251 OA
ATOM     18  C   UNL     1      -3.575  -3.124  24.401  0.00  0.00    +0.305 C 
BRANCH  18   3
ATOM      3  O   UNL     1      -4.604  -2.942  23.534  0.00  0.00    -0.481 OA
ATOM     33  H   UNL     1      -4.526  -2.096  23.046  0.00  0.00    +0.295 HD
ENDBRANCH  18   3
ENDBRANCH  14  18
ENDBRANCH   9  14
TORSDOF 7
ENDMDL
MODEL 6
REMARK VINA RESULT:       1.9      2.157      6.368
REMARK  Name = 51136657
REMARK  8 active torsions:
REMARK  status: ('A' for Active; 'I' for Inactive)
REMARK    1  A    between atoms: O_3  and  C_18
REMARK    2  A    between atoms: O_5  and  C_26
REMARK    3  A    between atoms: O_5  and  C_32
REMARK    4  A    between atoms: C_8  and  C_13
REMARK    5  A    between atoms: C_9  and  C_14
REMARK    6  A    between atoms: C_13  and  C_15
REMARK    7  A    between atoms: C_14  and  C_18
REMARK    8  A    between atoms: C_16  and  C_22
REMARK                            x       y       z     vdW  Elec       q    Type
REMARK                         _______ _______ _______ _____ _____    ______ ____
ROOT
ATOM      2  O   UNL     1       0.135   5.062  25.113  0.00  0.00    -0.270 OA
ATOM      6  N   UNL     1      -0.007   3.203  23.699  0.00  0.00    -0.297 N 
ATOM      8  C   UNL     1      -0.136   0.740  23.393  0.00  0.00    +0.016 C 
ATOM      9  C   UNL     1       1.357   0.753  22.975  0.00  0.00    +0.006 C 
ATOM     10  C   UNL     1       2.108   1.943  23.596  0.00  0.00    +0.023 C 
ATOM     11  C   UNL     1      -0.777   2.107  23.093  0.00  0.00    +0.112 C 
ATOM     12  C   UNL     1       1.398   3.260  23.299  0.00  0.00    +0.108 C 
ATOM     16  C   UNL     1      -0.506   4.147  24.599  0.00  0.00    +0.247 C 
ENDROOT
BRANCH  16  22
ATOM      1  F   UNL     1      -5.903   3.803  26.042  0.00  0.00    -0.205 F 
ATOM     22  C   UNL     1      -1.922   4.057  24.977  0.00  0.00    +0.037 A 
ATOM     27  C   UNL     1      -2.276   3.870  26.313  0.00  0.00    +0.016 A 
ATOM     28  C   UNL     1      -2.913   4.157  24.001  0.00  0.00    +0.016 A 
ATOM     29  C   UNL     1      -3.620   3.785  26.673  0.00  0.00    +0.039 A 
ATOM     30  C   UNL     1      -4.258   4.071  24.361  0.00  0.00    +0.039 A 
ATOM     31  C   UNL     1      -4.611   3.885  25.697  0.00  0.00    +0.123 A 
ENDBRANCH  16  22
BRANCH   8  13
ATOM     13  C   UNL     1      -0.368   0.353  24.859  0.00  0.00    +0.061 C 
BRANCH  13  15
ATOM      7  N   UNL     1      -0.945  -1.962  25.128  0.00  0.00    -0.287 NA
ATOM     15  C   UNL     1      -1.383  -0.760  24.941  0.00  0.00    +0.044 C 
ATOM     17  C   UNL     1      -2.824  -0.429  24.798  0.00  0.00    -0.001 A 
ATOM     19  C   UNL     1      -3.688  -1.488  24.492  0.00  0.00    -0.033 A 
ATOM     20  C   UNL     1      -3.111  -2.861  24.318  0.00  0.00    +0.059 C 
ATOM     21  C   UNL     1      -1.933  -3.036  25.268  0.00  0.00    +0.146 C 
ATOM     23  C   UNL     1      -3.317   0.870  24.941  0.00  0.00    +0.013 A 
ATOM     24  C   UNL     1      -5.050  -1.235  24.304  0.00  0.00    +0.050 A 
ATOM     25  C   UNL     1      -4.681   1.110  24.767  0.00  0.00    +0.046 A 
ATOM     26  C   UNL     1      -5.544   0.062  24.446  0.00  0.00    +0.120 A 
BRANCH  26   5
ATOM      5  O   UNL     1      -6.872   0.306  24.271  0.00  0.00    -0.495 OA
ATOM     32  C   UNL     1      -7.288   1.670  24.281  0.00  0.00    +0.277 C 
ENDBRANCH  26   5
ENDBRANCH  13  15
ENDBRANCH   8  13
BRANCH   9  14
ATOM     14  C   UNL     1       2.079  -0.559  23.281  0.00  0.00    +0.124 C 
BRANCH  14  18
ATOM      4  O   UNL     1       4.157   0.396  22.439  0.00  0.00    -0.251 OA
ATOM     18  C   UNL     1       3.568  -0.423  23.129  0.00  0.00    +0.305 C 
BRANCH  18   3
ATOM      3  O   UNL     1       4.194  -1.362  23.883  0.00  0.00    -0.481 OA
ATOM     33  H   UNL     1       3.576  -2.058  24.190  0.00  0.00    +0.295 HD
ENDBRANCH  18   3
ENDBRANCH  14  18
ENDBRANCH   9  14
TORSDOF 7
ENDMDL
MODEL 7
REMARK VINA RESULT:       2.2      2.794      5.383
REMARK  Name = 51136657
REMARK  8 active torsions:
REMARK  status: ('A' for Active; 'I' for Inactive)
REMARK    1  A    between atoms: O_3  and  C_18
REMARK    2  A    between atoms: O_5  and  C_26
REMARK    3  A    between atoms: O_5  and  C_32
REMARK    4  A    between atoms: C_8  and  C_13
REMARK    5  A    between atoms: C_9  and  C_14
REMARK    6  A    between atoms: C_13  and  C_15
REMARK    7  A    between atoms: C_14  and  C_18
REMARK    8  A    between atoms: C_16  and  C_22
REMARK                            x       y       z     vdW  Elec       q    Type
REMARK                         _______ _______ _______ _____ _____    ______ ____
ROOT
ATOM      2  O   UNL     1      -1.352  -2.713  23.964  0.00  0.00    -0.270 OA
ATOM      6  N   UNL     1      -2.763  -0.904  23.504  0.00  0.00    -0.297 N 
ATOM      8  C   UNL     1      -3.846   1.214  24.224  0.00  0.00    +0.016 C 
ATOM      9  C   UNL     1      -5.169   0.427  24.413  0.00  0.00    +0.006 C 
ATOM     10  C   UNL     1      -4.905  -1.059  24.711  0.00  0.00    +0.023 C 
ATOM     11  C   UNL     1      -2.965   0.514  23.173  0.00  0.00    +0.112 C 
ATOM     12  C   UNL     1      -3.992  -1.680  23.658  0.00  0.00    +0.108 C 
ATOM     16  C   UNL     1      -1.527  -1.529  23.681  0.00  0.00    +0.247 C 
ENDROOT
BRANCH  16  22
ATOM      1  F   UNL     1       3.095   1.566  23.063  0.00  0.00    -0.205 F 
ATOM     22  C   UNL     1      -0.315  -0.718  23.519  0.00  0.00    +0.037 A 
ATOM     27  C   UNL     1       0.532  -0.937  22.432  0.00  0.00    +0.016 A 
ATOM     28  C   UNL     1      -0.009   0.274  24.452  0.00  0.00    +0.016 A 
ATOM     29  C   UNL     1       1.683  -0.166  22.278  0.00  0.00    +0.039 A 
ATOM     30  C   UNL     1       1.143   1.045  24.298  0.00  0.00    +0.039 A 
ATOM     31  C   UNL     1       1.988   0.825  23.211  0.00  0.00    +0.123 A 
ENDBRANCH  16  22
BRANCH   8  13
ATOM     13  C   UNL     1      -3.058   1.428  25.522  0.00  0.00    +0.061 C 
BRANCH  13  15
ATOM      7  N   UNL     1      -2.622   3.605  24.605  0.00  0.00    -0.287 NA
ATOM     15  C   UNL     1      -2.220   2.678  25.413  0.00  0.00    +0.044 C 
ATOM     17  C   UNL     1      -0.981   2.782  26.225  0.00  0.00    -0.001 A 
ATOM     19  C   UNL     1      -0.044   3.745  25.827  0.00  0.00    -0.033 A 
ATOM     20  C   UNL     1      -0.343   4.583  24.619  0.00  0.00    +0.059 C 
ATOM     21  C   UNL     1      -1.841   4.844  24.544  0.00  0.00    +0.146 C 
ATOM     23  C   UNL     1      -0.729   1.963  27.327  0.00  0.00    +0.013 A 
ATOM     24  C   UNL     1       1.161   3.866  26.524  0.00  0.00    +0.050 A 
ATOM     25  C   UNL     1       0.471   2.102  28.027  0.00  0.00    +0.046 A 
ATOM     26  C   UNL     1       1.414   3.048  27.625  0.00  0.00    +0.120 A 
BRANCH  26   5
ATOM      5  O   UNL     1       2.585   3.172  28.309  0.00  0.00    -0.495 OA
ATOM     32  C   UNL     1       2.673   2.511  29.570  0.00  0.00    +0.277 C 
ENDBRANCH  26   5
ENDBRANCH  13  15
ENDBRANCH   8  13
BRANCH   9  14
ATOM     14  C   UNL     1      -6.084   1.036  25.476  0.00  0.00    +0.124 C 
BRANCH  14  18
ATOM      4  O   UNL     1      -5.813   3.295  24.601  0.00  0.00    -0.251 OA
ATOM     18  C   UNL     1      -5.935   2.530  25.546  0.00  0.00    +0.305 C 
BRANCH  18   3
ATOM      3  O   UNL     1      -5.952   2.932  26.843  0.00  0.00    -0.481 OA
ATOM     33  H   UNL     1      -5.268   3.610  27.026  0.00  0.00    +0.295 HD
ENDBRANCH  18   3
ENDBRANCH  14  18
ENDBRANCH   9  14
TORSDOF 7
ENDMDL
