MODEL 1
REMARK VINA RESULT:      -3.1      0.000      0.000
REMARK  Name = 44716346
REMARK  9 active torsions:
REMARK  status: ('A' for Active; 'I' for Inactive)
REMARK    1  A    between atoms: O_1  and  C_29
REMARK    2  A    between atoms: O_1  and  C_30
REMARK    3  A    between atoms: N_3  and  C_22
REMARK    4  A    between atoms: N_4  and  C_14
REMARK    5  A    between atoms: N_4  and  C_23
REMARK    6  A    between atoms: C_7  and  C_13
REMARK    7  A    between atoms: C_8  and  C_14
REMARK    8  A    between atoms: C_16  and  C_17
REMARK    9  A    between atoms: C_23  and  C_24
REMARK                            x       y       z     vdW  Elec       q    Type
REMARK                         _______ _______ _______ _____ _____    ______ ____
ROOT
ATOM      2  N   UNL     1      -3.703  -0.657  25.939  0.00  0.00    -0.298 NA
ATOM      6  C   UNL     1      -2.509  -2.178  24.194  0.00  0.00    +0.002 C 
ATOM      7  C   UNL     1      -1.466  -1.371  25.016  0.00  0.00    +0.055 C 
ATOM      8  C   UNL     1      -4.314  -0.467  24.597  0.00  0.00    +0.071 C 
ATOM      9  C   UNL     1      -3.491  -1.199  23.515  0.00  0.00    +0.024 C 
ATOM     10  C   UNL     1      -2.253  -0.347  25.885  0.00  0.00    +0.094 C 
ATOM     11  C   UNL     1      -3.325  -3.010  25.206  0.00  0.00    +0.019 C 
ATOM     12  C   UNL     1      -3.858  -2.084  26.311  0.00  0.00    +0.085 C 
ENDROOT
BRANCH   7  13
ATOM      3  N   UNL     1      -0.362   0.544  23.768  0.00  0.00    -0.271 N 
ATOM      5  N   UNL     1       0.764   0.929  23.143  0.00  0.00    -0.176 NA
ATOM     13  C   UNL     1      -0.308  -0.724  24.269  0.00  0.00    +0.044 A 
ATOM     15  C   UNL     1       0.939  -1.200  23.950  0.00  0.00    +0.048 A 
ATOM     17  C   UNL     1       1.555  -0.140  23.258  0.00  0.00    +0.066 A 
ATOM     22  C   UNL     1      -1.474   1.462  23.846  0.00  0.00    +0.172 C 
BRANCH  17  16
ATOM     16  C   UNL     1       2.949  -0.110  22.671  0.00  0.00    +0.040 C 
ATOM     18  C   UNL     1       3.661   1.234  22.914  0.00  0.00    +0.010 C 
ATOM     19  C   UNL     1       3.899  -1.192  23.223  0.00  0.00    +0.010 C 
ATOM     20  C   UNL     1       5.121   0.864  23.124  0.00  0.00    +0.001 C 
ATOM     21  C   UNL     1       5.036  -0.437  23.903  0.00  0.00    +0.001 C 
ENDBRANCH  17  16
ENDBRANCH   7  13
BRANCH   8  14
ATOM     14  C   UNL     1      -4.521   1.010  24.253  0.00  0.00    +0.100 C 
BRANCH  14   4
ATOM      4  N   UNL     1      -5.845   1.453  24.656  0.00  0.00    -0.311 NA
ATOM     31  H   UNL     1      -6.320   0.683  25.129  0.00  0.00    +0.122 HD
BRANCH   4  23
ATOM     23  C   UNL     1      -5.763   2.590  25.565  0.00  0.00    +0.116 C 
BRANCH  23  24
ATOM     24  C   UNL     1      -4.470   3.344  25.404  0.00  0.00    -0.033 A 
ATOM     25  C   UNL     1      -3.585   3.450  26.476  0.00  0.00    +0.008 A 
ATOM     26  C   UNL     1      -4.158   3.938  24.181  0.00  0.00    +0.008 A 
ATOM     27  C   UNL     1      -2.387   4.149  26.327  0.00  0.00    +0.046 A 
ATOM     28  C   UNL     1      -2.960   4.636  24.031  0.00  0.00    +0.046 A 
ATOM     29  C   UNL     1      -2.075   4.742  25.104  0.00  0.00    +0.120 A 
BRANCH  29   1
ATOM      1  O   UNL     1      -0.906   5.423  24.957  0.00  0.00    -0.495 OA
ATOM     30  C   UNL     1       0.089   4.833  24.121  0.00  0.00    +0.277 C 
ENDBRANCH  29   1
ENDBRANCH  23  24
ENDBRANCH   4  23
ENDBRANCH  14   4
ENDBRANCH   8  14
TORSDOF 7
ENDMDL
MODEL 2
REMARK VINA RESULT:      -1.2      2.098      6.446
REMARK  Name = 44716346
REMARK  9 active torsions:
REMARK  status: ('A' for Active; 'I' for Inactive)
REMARK    1  A    between atoms: O_1  and  C_29
REMARK    2  A    between atoms: O_1  and  C_30
REMARK    3  A    between atoms: N_3  and  C_22
REMARK    4  A    between atoms: N_4  and  C_14
REMARK    5  A    between atoms: N_4  and  C_23
REMARK    6  A    between atoms: C_7  and  C_13
REMARK    7  A    between atoms: C_8  and  C_14
REMARK    8  A    between atoms: C_16  and  C_17
REMARK    9  A    between atoms: C_23  and  C_24
REMARK                            x       y       z     vdW  Elec       q    Type
REMARK                         _______ _______ _______ _____ _____    ______ ____
ROOT
ATOM      2  N   UNL     1      -2.793  -2.500  23.939  0.00  0.00    -0.298 NA
ATOM      6  C   UNL     1      -2.960  -1.112  26.137  0.00  0.00    +0.002 C 
ATOM      7  C   UNL     1      -3.823  -0.465  25.018  0.00  0.00    +0.055 C 
ATOM      8  C   UNL     1      -1.432  -2.221  24.470  0.00  0.00    +0.071 C 
ATOM      9  C   UNL     1      -1.499  -1.229  25.651  0.00  0.00    +0.024 C 
ATOM     10  C   UNL     1      -3.513  -1.226  23.697  0.00  0.00    +0.094 C 
ATOM     11  C   UNL     1      -3.490  -2.549  26.333  0.00  0.00    +0.019 C 
ATOM     12  C   UNL     1      -3.535  -3.262  24.971  0.00  0.00    +0.085 C 
ENDROOT
BRANCH   7  13
ATOM      3  N   UNL     1      -4.827   1.866  25.057  0.00  0.00    -0.271 N 
ATOM      5  N   UNL     1      -4.563   3.167  24.849  0.00  0.00    -0.176 NA
ATOM     13  C   UNL     1      -3.758   1.046  24.844  0.00  0.00    +0.044 A 
ATOM     15  C   UNL     1      -2.723   1.867  24.470  0.00  0.00    +0.048 A 
ATOM     17  C   UNL     1      -3.277   3.162  24.491  0.00  0.00    +0.066 A 
ATOM     22  C   UNL     1      -6.155   1.472  25.466  0.00  0.00    +0.172 C 
BRANCH  17  16
ATOM     16  C   UNL     1      -2.582   4.465  24.165  0.00  0.00    +0.040 C 
ATOM     18  C   UNL     1      -2.406   5.365  25.402  0.00  0.00    +0.010 C 
ATOM     19  C   UNL     1      -1.172   4.306  23.561  0.00  0.00    +0.010 C 
ATOM     20  C   UNL     1      -1.069   6.057  25.189  0.00  0.00    +0.001 C 
ATOM     21  C   UNL     1      -0.220   4.972  24.547  0.00  0.00    +0.001 C 
ENDBRANCH  17  16
ENDBRANCH   7  13
BRANCH   8  14
ATOM     14  C   UNL     1      -0.468  -1.745  23.380  0.00  0.00    +0.100 C 
BRANCH  14   4
ATOM      4  N   UNL     1       0.199  -0.518  23.783  0.00  0.00    -0.311 NA
ATOM     31  H   UNL     1       0.808  -0.719  24.577  0.00  0.00    +0.122 HD
BRANCH   4  23
ATOM     23  C   UNL     1       1.003   0.024  22.693  0.00  0.00    +0.116 C 
BRANCH  23  24
ATOM     24  C   UNL     1       2.476  -0.050  22.993  0.00  0.00    -0.033 A 
ATOM     25  C   UNL     1       3.016  -1.204  23.558  0.00  0.00    +0.008 A 
ATOM     26  C   UNL     1       3.300   1.038  22.706  0.00  0.00    +0.008 A 
ATOM     27  C   UNL     1       4.382  -1.272  23.837  0.00  0.00    +0.046 A 
ATOM     28  C   UNL     1       4.665   0.970  22.983  0.00  0.00    +0.046 A 
ATOM     29  C   UNL     1       5.206  -0.184  23.549  0.00  0.00    +0.120 A 
BRANCH  29   1
ATOM      1  O   UNL     1       6.538  -0.250  23.819  0.00  0.00    -0.495 OA
ATOM     30  C   UNL     1       7.399  -0.635  22.747  0.00  0.00    +0.277 C 
ENDBRANCH  29   1
ENDBRANCH  23  24
ENDBRANCH   4  23
ENDBRANCH  14   4
ENDBRANCH   8  14
TORSDOF 7
ENDMDL
MODEL 3
REMARK VINA RESULT:      -1.1      2.131      4.525
REMARK  Name = 44716346
REMARK  9 active torsions:
REMARK  status: ('A' for Active; 'I' for Inactive)
REMARK    1  A    between atoms: O_1  and  C_29
REMARK    2  A    between atoms: O_1  and  C_30
REMARK    3  A    between atoms: N_3  and  C_22
REMARK    4  A    between atoms: N_4  and  C_14
REMARK    5  A    between atoms: N_4  and  C_23
REMARK    6  A    between atoms: C_7  and  C_13
REMARK    7  A    between atoms: C_8  and  C_14
REMARK    8  A    between atoms: C_16  and  C_17
REMARK    9  A    between atoms: C_23  and  C_24
REMARK                            x       y       z     vdW  Elec       q    Type
REMARK                         _______ _______ _______ _____ _____    ______ ____
ROOT
ATOM      2  N   UNL     1      -2.587   3.953  24.141  0.00  0.00    -0.298 NA
ATOM      6  C   UNL     1      -0.753   3.032  25.744  0.00  0.00    +0.002 C 
ATOM      7  C   UNL     1      -0.212   3.117  24.290  0.00  0.00    +0.055 C 
ATOM      8  C   UNL     1      -3.140   2.844  24.962  0.00  0.00    +0.071 C 
ATOM      9  C   UNL     1      -2.019   2.149  25.766  0.00  0.00    +0.024 C 
ATOM     10  C   UNL     1      -1.413   3.477  23.369  0.00  0.00    +0.094 C 
ATOM     11  C   UNL     1      -1.187   4.459  26.141  0.00  0.00    +0.019 C 
ATOM     12  C   UNL     1      -2.132   5.019  25.066  0.00  0.00    +0.085 C 
ENDROOT
BRANCH   7  13
ATOM      3  N   UNL     1       0.018   0.816  23.243  0.00  0.00    -0.271 N 
ATOM      5  N   UNL     1       0.904  -0.103  22.822  0.00  0.00    -0.176 NA
ATOM     13  C   UNL     1       0.595   1.943  23.753  0.00  0.00    +0.044 A 
ATOM     15  C   UNL     1       1.950   1.746  23.659  0.00  0.00    +0.048 A 
ATOM     17  C   UNL     1       2.082   0.470  23.078  0.00  0.00    +0.066 A 
ATOM     22  C   UNL     1      -1.394   0.540  23.125  0.00  0.00    +0.172 C 
BRANCH  17  16
ATOM     16  C   UNL     1       3.362  -0.260  22.740  0.00  0.00    +0.040 C 
ATOM     18  C   UNL     1       4.561   0.694  22.584  0.00  0.00    +0.010 C 
ATOM     19  C   UNL     1       3.797  -1.308  23.785  0.00  0.00    +0.010 C 
ATOM     20  C   UNL     1       5.747  -0.083  23.134  0.00  0.00    +0.001 C 
ATOM     21  C   UNL     1       5.148  -0.836  24.309  0.00  0.00    +0.001 C 
ENDBRANCH  17  16
ENDBRANCH   7  13
BRANCH   8  14
ATOM     14  C   UNL     1      -3.944   1.845  24.126  0.00  0.00    +0.100 C 
BRANCH  14   4
ATOM      4  N   UNL     1      -5.325   1.789  24.576  0.00  0.00    -0.311 NA
ATOM     31  H   UNL     1      -5.927   2.156  23.839  0.00  0.00    +0.122 HD
BRANCH   4  23
ATOM     23  C   UNL     1      -5.723   0.420  24.878  0.00  0.00    +0.116 C 
BRANCH  23  24
ATOM     24  C   UNL     1      -4.541  -0.511  24.920  0.00  0.00    -0.033 A 
ATOM     25  C   UNL     1      -4.334  -1.423  23.886  0.00  0.00    +0.008 A 
ATOM     26  C   UNL     1      -3.654  -0.463  25.995  0.00  0.00    +0.008 A 
ATOM     27  C   UNL     1      -3.238  -2.287  23.925  0.00  0.00    +0.046 A 
ATOM     28  C   UNL     1      -2.558  -1.324  26.035  0.00  0.00    +0.046 A 
ATOM     29  C   UNL     1      -2.350  -2.237  25.001  0.00  0.00    +0.120 A 
BRANCH  29   1
ATOM      1  O   UNL     1      -1.281  -3.078  25.039  0.00  0.00    -0.495 OA
ATOM     30  C   UNL     1      -0.016  -2.505  25.369  0.00  0.00    +0.277 C 
ENDBRANCH  29   1
ENDBRANCH  23  24
ENDBRANCH   4  23
ENDBRANCH  14   4
ENDBRANCH   8  14
TORSDOF 7
ENDMDL
MODEL 4
REMARK VINA RESULT:      -1.1      2.254      7.228
REMARK  Name = 44716346
REMARK  9 active torsions:
REMARK  status: ('A' for Active; 'I' for Inactive)
REMARK    1  A    between atoms: O_1  and  C_29
REMARK    2  A    between atoms: O_1  and  C_30
REMARK    3  A    between atoms: N_3  and  C_22
REMARK    4  A    between atoms: N_4  and  C_14
REMARK    5  A    between atoms: N_4  and  C_23
REMARK    6  A    between atoms: C_7  and  C_13
REMARK    7  A    between atoms: C_8  and  C_14
REMARK    8  A    between atoms: C_16  and  C_17
REMARK    9  A    between atoms: C_23  and  C_24
REMARK                            x       y       z     vdW  Elec       q    Type
REMARK                         _______ _______ _______ _____ _____    ______ ____
ROOT
ATOM      2  N   UNL     1      -0.301   3.893  25.409  0.00  0.00    -0.298 NA
ATOM      6  C   UNL     1      -2.342   3.788  23.794  0.00  0.00    +0.002 C 
ATOM      7  C   UNL     1      -2.708   3.174  25.174  0.00  0.00    +0.055 C 
ATOM      8  C   UNL     1       0.111   3.305  24.106  0.00  0.00    +0.071 C 
ATOM      9  C   UNL     1      -1.121   3.043  23.213  0.00  0.00    +0.024 C 
ATOM     10  C   UNL     1      -1.395   3.088  26.005  0.00  0.00    +0.094 C 
ATOM     11  C   UNL     1      -1.903   5.244  24.057  0.00  0.00    +0.019 C 
ATOM     12  C   UNL     1      -0.819   5.257  25.148  0.00  0.00    +0.085 C 
ENDROOT
BRANCH   7  13
ATOM      3  N   UNL     1      -4.835   1.812  25.426  0.00  0.00    -0.271 N 
ATOM      5  N   UNL     1      -5.336   0.565  25.403  0.00  0.00    -0.176 NA
ATOM     13  C   UNL     1      -3.491   1.869  25.195  0.00  0.00    +0.044 A 
ATOM     15  C   UNL     1      -3.087   0.570  25.008  0.00  0.00    +0.048 A 
ATOM     17  C   UNL     1      -4.264  -0.189  25.147  0.00  0.00    +0.066 A 
ATOM     22  C   UNL     1      -5.720   2.923  25.683  0.00  0.00    +0.172 C 
BRANCH  17  16
ATOM     16  C   UNL     1      -4.410  -1.690  25.036  0.00  0.00    +0.040 C 
ATOM     18  C   UNL     1      -4.495  -2.168  23.575  0.00  0.00    +0.010 C 
ATOM     19  C   UNL     1      -3.257  -2.494  25.672  0.00  0.00    +0.010 C 
ATOM     20  C   UNL     1      -3.768  -3.503  23.563  0.00  0.00    +0.001 C 
ATOM     21  C   UNL     1      -2.619  -3.276  24.530  0.00  0.00    +0.001 C 
ENDBRANCH  17  16
ENDBRANCH   7  13
BRANCH   8  14
ATOM     14  C   UNL     1       0.967   2.049  24.278  0.00  0.00    +0.100 C 
BRANCH  14   4
ATOM      4  N   UNL     1       0.261   0.873  23.796  0.00  0.00    -0.311 NA
ATOM     31  H   UNL     1      -0.667   1.153  23.478  0.00  0.00    +0.122 HD
BRANCH   4  23
ATOM     23  C   UNL     1       0.975   0.251  22.688  0.00  0.00    +0.116 C 
BRANCH  23  24
ATOM     24  C   UNL     1       2.434   0.051  23.003  0.00  0.00    -0.033 A 
ATOM     25  C   UNL     1       2.876  -1.164  23.523  0.00  0.00    +0.008 A 
ATOM     26  C   UNL     1       3.343   1.084  22.774  0.00  0.00    +0.008 A 
ATOM     27  C   UNL     1       4.227  -1.349  23.815  0.00  0.00    +0.046 A 
ATOM     28  C   UNL     1       4.694   0.900  23.065  0.00  0.00    +0.046 A 
ATOM     29  C   UNL     1       5.137  -0.316  23.585  0.00  0.00    +0.120 A 
BRANCH  29   1
ATOM      1  O   UNL     1       6.456  -0.496  23.868  0.00  0.00    -0.495 OA
ATOM     30  C   UNL     1       7.343  -0.648  22.761  0.00  0.00    +0.277 C 
ENDBRANCH  29   1
ENDBRANCH  23  24
ENDBRANCH   4  23
ENDBRANCH  14   4
ENDBRANCH   8  14
TORSDOF 7
ENDMDL
MODEL 5
REMARK VINA RESULT:      -0.8      2.361      3.357
REMARK  Name = 44716346
REMARK  9 active torsions:
REMARK  status: ('A' for Active; 'I' for Inactive)
REMARK    1  A    between atoms: O_1  and  C_29
REMARK    2  A    between atoms: O_1  and  C_30
REMARK    3  A    between atoms: N_3  and  C_22
REMARK    4  A    between atoms: N_4  and  C_14
REMARK    5  A    between atoms: N_4  and  C_23
REMARK    6  A    between atoms: C_7  and  C_13
REMARK    7  A    between atoms: C_8  and  C_14
REMARK    8  A    between atoms: C_16  and  C_17
REMARK    9  A    between atoms: C_23  and  C_24
REMARK                            x       y       z     vdW  Elec       q    Type
REMARK                         _______ _______ _______ _____ _____    ______ ____
ROOT
ATOM      2  N   UNL     1      -4.238  -1.265  25.336  0.00  0.00    -0.298 NA
ATOM      6  C   UNL     1      -2.545  -0.252  23.635  0.00  0.00    +0.002 C 
ATOM      7  C   UNL     1      -1.850  -0.525  24.998  0.00  0.00    +0.055 C 
ATOM      8  C   UNL     1      -4.814  -0.046  24.710  0.00  0.00    +0.071 C 
ATOM      9  C   UNL     1      -3.753   0.684  23.858  0.00  0.00    +0.024 C 
ATOM     10  C   UNL     1      -2.959  -0.933  26.010  0.00  0.00    +0.094 C 
ATOM     11  C   UNL     1      -3.103  -1.603  23.142  0.00  0.00    +0.019 C 
ATOM     12  C   UNL     1      -3.952  -2.239  24.255  0.00  0.00    +0.085 C 
ENDROOT
BRANCH   7  13
ATOM      3  N   UNL     1       0.026   1.175  24.806  0.00  0.00    -0.271 N 
ATOM      5  N   UNL     1       0.742   2.085  25.487  0.00  0.00    -0.176 NA
ATOM     13  C   UNL     1      -0.921   0.544  25.558  0.00  0.00    +0.044 A 
ATOM     15  C   UNL     1      -0.818   1.079  26.818  0.00  0.00    +0.048 A 
ATOM     17  C   UNL     1       0.221   2.023  26.715  0.00  0.00    +0.066 A 
ATOM     22  C   UNL     1       0.313   0.955  23.407  0.00  0.00    +0.172 C 
BRANCH  17  16
ATOM     16  C   UNL     1       0.765   2.918  27.807  0.00  0.00    +0.040 C 
ATOM     18  C   UNL     1       0.432   2.395  29.217  0.00  0.00    +0.010 C 
ATOM     19  C   UNL     1       2.296   3.102  27.781  0.00  0.00    +0.010 C 
ATOM     20  C   UNL     1       1.647   2.754  30.059  0.00  0.00    +0.001 C 
ATOM     21  C   UNL     1       2.804   2.532  29.101  0.00  0.00    +0.001 C 
ENDBRANCH  17  16
ENDBRANCH   7  13
BRANCH   8  14
ATOM     14  C   UNL     1      -5.460   0.887  25.736  0.00  0.00    +0.100 C 
BRANCH  14   4
ATOM      4  N   UNL     1      -6.265   1.902  25.077  0.00  0.00    -0.311 NA
ATOM     31  H   UNL     1      -7.250   1.660  25.180  0.00  0.00    +0.122 HD
BRANCH   4  23
ATOM     23  C   UNL     1      -6.035   3.217  25.664  0.00  0.00    +0.116 C 
BRANCH  23  24
ATOM     24  C   UNL     1      -4.614   3.677  25.470  0.00  0.00    -0.033 A 
ATOM     25  C   UNL     1      -4.101   3.829  24.182  0.00  0.00    +0.008 A 
ATOM     26  C   UNL     1      -3.813   3.950  26.577  0.00  0.00    +0.008 A 
ATOM     27  C   UNL     1      -2.784   4.255  24.002  0.00  0.00    +0.046 A 
ATOM     28  C   UNL     1      -2.498   4.377  26.398  0.00  0.00    +0.046 A 
ATOM     29  C   UNL     1      -1.983   4.529  25.111  0.00  0.00    +0.120 A 
BRANCH  29   1
ATOM      1  O   UNL     1      -0.699   4.946  24.935  0.00  0.00    -0.495 OA
ATOM     30  C   UNL     1      -0.133   4.775  23.637  0.00  0.00    +0.277 C 
ENDBRANCH  29   1
ENDBRANCH  23  24
ENDBRANCH   4  23
ENDBRANCH  14   4
ENDBRANCH   8  14
TORSDOF 7
ENDMDL
MODEL 6
REMARK VINA RESULT:       0.9      2.122      4.878
REMARK  Name = 44716346
REMARK  9 active torsions:
REMARK  status: ('A' for Active; 'I' for Inactive)
REMARK    1  A    between atoms: O_1  and  C_29
REMARK    2  A    between atoms: O_1  and  C_30
REMARK    3  A    between atoms: N_3  and  C_22
REMARK    4  A    between atoms: N_4  and  C_14
REMARK    5  A    between atoms: N_4  and  C_23
REMARK    6  A    between atoms: C_7  and  C_13
REMARK    7  A    between atoms: C_8  and  C_14
REMARK    8  A    between atoms: C_16  and  C_17
REMARK    9  A    between atoms: C_23  and  C_24
REMARK                            x       y       z     vdW  Elec       q    Type
REMARK                         _______ _______ _______ _____ _____    ______ ____
ROOT
ATOM      2  N   UNL     1      -4.864   4.270  24.902  0.00  0.00    -0.298 NA
ATOM      6  C   UNL     1      -2.701   3.664  26.220  0.00  0.00    +0.002 C 
ATOM      7  C   UNL     1      -2.407   3.737  24.696  0.00  0.00    +0.055 C 
ATOM      8  C   UNL     1      -5.137   3.146  25.838  0.00  0.00    +0.071 C 
ATOM      9  C   UNL     1      -3.826   2.637  26.474  0.00  0.00    +0.024 C 
ATOM     10  C   UNL     1      -3.773   3.899  23.968  0.00  0.00    +0.094 C 
ATOM     11  C   UNL     1      -3.248   5.047  26.634  0.00  0.00    +0.019 C 
ATOM     12  C   UNL     1      -4.412   5.431  25.706  0.00  0.00    +0.085 C 
ENDROOT
BRANCH   7  13
ATOM      3  N   UNL     1      -1.936   1.926  22.981  0.00  0.00    -0.271 N 
ATOM      5  N   UNL     1      -1.037   1.006  22.590  0.00  0.00    -0.176 NA
ATOM     13  C   UNL     1      -1.550   2.642  24.077  0.00  0.00    +0.044 A 
ATOM     15  C   UNL     1      -0.314   2.157  24.426  0.00  0.00    +0.048 A 
ATOM     17  C   UNL     1      -0.049   1.152  23.476  0.00  0.00    +0.066 A 
ATOM     22  C   UNL     1      -3.170   2.064  22.243  0.00  0.00    +0.172 C 
BRANCH  17  16
ATOM     16  C   UNL     1       1.183   0.279  23.378  0.00  0.00    +0.040 C 
ATOM     18  C   UNL     1       1.400  -0.275  21.958  0.00  0.00    +0.010 C 
ATOM     19  C   UNL     1       2.501   0.987  23.755  0.00  0.00    +0.010 C 
ATOM     20  C   UNL     1       2.910  -0.302  21.781  0.00  0.00    +0.001 C 
ATOM     21  C   UNL     1       3.361   0.959  22.498  0.00  0.00    +0.001 C 
ENDBRANCH  17  16
ENDBRANCH   7  13
BRANCH   8  14
ATOM     14  C   UNL     1      -5.926   2.015  25.175  0.00  0.00    +0.100 C 
BRANCH  14   4
ATOM      4  N   UNL     1      -5.063   1.217  24.320  0.00  0.00    -0.311 NA
ATOM     31  H   UNL     1      -4.091   1.415  24.555  0.00  0.00    +0.122 HD
BRANCH   4  23
ATOM     23  C   UNL     1      -5.316  -0.207  24.503  0.00  0.00    +0.116 C 
BRANCH  23  24
ATOM     24  C   UNL     1      -4.038  -0.989  24.653  0.00  0.00    -0.033 A 
ATOM     25  C   UNL     1      -2.969  -0.448  25.366  0.00  0.00    +0.008 A 
ATOM     26  C   UNL     1      -3.924  -2.253  24.077  0.00  0.00    +0.008 A 
ATOM     27  C   UNL     1      -1.785  -1.172  25.505  0.00  0.00    +0.046 A 
ATOM     28  C   UNL     1      -2.741  -2.978  24.215  0.00  0.00    +0.046 A 
ATOM     29  C   UNL     1      -1.671  -2.438  24.929  0.00  0.00    +0.120 A 
BRANCH  29   1
ATOM      1  O   UNL     1      -0.516  -3.145  25.065  0.00  0.00    -0.495 OA
ATOM     30  C   UNL     1       0.625  -2.438  25.549  0.00  0.00    +0.277 C 
ENDBRANCH  29   1
ENDBRANCH  23  24
ENDBRANCH   4  23
ENDBRANCH  14   4
ENDBRANCH   8  14
TORSDOF 7
ENDMDL
