MODEL 1
REMARK VINA RESULT:      -5.0      0.000      0.000
REMARK  Name = 75367193
REMARK  7 active torsions:
REMARK  status: ('A' for Active; 'I' for Inactive)
REMARK    1  A    between atoms: N_3  and  C_12
REMARK    2  A    between atoms: C_6  and  C_9
REMARK    3  A    between atoms: C_10  and  C_11
REMARK    4  A    between atoms: C_10  and  C_15
REMARK    5  A    between atoms: C_10  and  C_16
REMARK    6  A    between atoms: C_10  and  C_17
REMARK    7  A    between atoms: C_12  and  C_18
REMARK                            x       y       z     vdW  Elec       q    Type
REMARK                         _______ _______ _______ _____ _____    ______ ____
ROOT
ATOM      2  O   UNL     1       2.233   1.342  23.270  0.00  0.00    -0.377 OA
ATOM      3  N   UNL     1      -0.106   0.026  24.268  0.00  0.00    -0.285 NA
ATOM      6  C   UNL     1       0.307   1.359  24.776  0.00  0.00    +0.149 C 
ATOM      7  C   UNL     1       1.109   2.112  23.696  0.00  0.00    +0.186 C 
ATOM      8  C   UNL     1       1.065  -0.711  23.762  0.00  0.00    +0.113 C 
ATOM     13  C   UNL     1       1.804   0.104  22.710  0.00  0.00    +0.175 C 
ENDROOT
BRANCH   6   9
ATOM      4  N   UNL     1      -2.055   2.211  24.560  0.00  0.00    -0.344 N 
ATOM      5  N   UNL     1      -0.875   3.066  26.236  0.00  0.00    -0.239 NA
ATOM      9  C   UNL     1      -0.859   2.230  25.221  0.00  0.00    +0.127 A 
ATOM     11  C   UNL     1      -2.889   3.090  25.194  0.00  0.00    +0.041 A 
ATOM     14  C   UNL     1      -2.138   3.605  26.225  0.00  0.00    +0.134 A 
ATOM     24  H   UNL     1      -2.283   1.645  23.753  0.00  0.00    +0.167 HD
BRANCH  11  10
ATOM     10  C   UNL     1      -4.271   3.332  24.754  0.00  0.00    +0.004 C 
ATOM     15  C   UNL     1      -5.308   2.192  25.069  0.00  0.00    +0.017 C 
ATOM     16  C   UNL     1      -4.880   4.616  25.416  0.00  0.00    +0.017 C 
ATOM     17  C   UNL     1      -4.364   3.535  23.203  0.00  0.00    +0.017 C 
ENDBRANCH  11  10
ENDBRANCH   6   9
BRANCH   3  12
ATOM     12  C   UNL     1      -0.771  -0.777  25.300  0.00  0.00    +0.120 C 
BRANCH  12  18
ATOM      1  F   UNL     1      -5.552  -3.083  23.409  0.00  0.00    -0.205 F 
ATOM     18  C   UNL     1      -2.049  -1.393  24.795  0.00  0.00    -0.033 A 
ATOM     19  C   UNL     1      -3.134  -0.580  24.472  0.00  0.00    +0.008 A 
ATOM     20  C   UNL     1      -2.146  -2.777  24.651  0.00  0.00    +0.008 A 
ATOM     21  C   UNL     1      -4.318  -1.150  24.003  0.00  0.00    +0.038 A 
ATOM     22  C   UNL     1      -3.330  -3.347  24.183  0.00  0.00    +0.038 A 
ATOM     23  C   UNL     1      -4.416  -2.534  23.860  0.00  0.00    +0.123 A 
ENDBRANCH  12  18
ENDBRANCH   3  12
TORSDOF 4
ENDMDL
MODEL 2
REMARK VINA RESULT:      -4.3      1.881      5.073
REMARK  Name = 75367193
REMARK  7 active torsions:
REMARK  status: ('A' for Active; 'I' for Inactive)
REMARK    1  A    between atoms: N_3  and  C_12
REMARK    2  A    between atoms: C_6  and  C_9
REMARK    3  A    between atoms: C_10  and  C_11
REMARK    4  A    between atoms: C_10  and  C_15
REMARK    5  A    between atoms: C_10  and  C_16
REMARK    6  A    between atoms: C_10  and  C_17
REMARK    7  A    between atoms: C_12  and  C_18
REMARK                            x       y       z     vdW  Elec       q    Type
REMARK                         _______ _______ _______ _____ _____    ______ ____
ROOT
ATOM      2  O   UNL     1      -1.517   4.909  25.376  0.00  0.00    -0.377 OA
ATOM      3  N   UNL     1      -2.754   2.405  24.743  0.00  0.00    -0.285 NA
ATOM      6  C   UNL     1      -1.405   2.753  24.229  0.00  0.00    +0.149 C 
ATOM      7  C   UNL     1      -0.713   3.745  25.185  0.00  0.00    +0.186 C 
ATOM      8  C   UNL     1      -3.530   3.630  25.006  0.00  0.00    +0.113 C 
ATOM     13  C   UNL     1      -2.775   4.557  25.948  0.00  0.00    +0.175 C 
ENDROOT
BRANCH   6   9
ATOM      4  N   UNL     1       0.717   1.662  23.417  0.00  0.00    -0.344 N 
ATOM      5  N   UNL     1      -0.745   0.308  24.398  0.00  0.00    -0.239 NA
ATOM      9  C   UNL     1      -0.499   1.546  24.031  0.00  0.00    +0.127 A 
ATOM     11  C   UNL     1       1.284   0.418  23.391  0.00  0.00    +0.041 A 
ATOM     14  C   UNL     1       0.363  -0.400  24.003  0.00  0.00    +0.134 A 
ATOM     24  H   UNL     1       1.124   2.513  23.053  0.00  0.00    +0.167 HD
BRANCH  11  10
ATOM     10  C   UNL     1       2.605   0.159  22.801  0.00  0.00    +0.004 C 
ATOM     15  C   UNL     1       3.618   1.363  22.816  0.00  0.00    +0.017 C 
ATOM     16  C   UNL     1       3.359  -1.002  23.537  0.00  0.00    +0.017 C 
ATOM     17  C   UNL     1       2.502  -0.252  21.292  0.00  0.00    +0.017 C 
ENDBRANCH  11  10
ENDBRANCH   6   9
BRANCH   3  12
ATOM     12  C   UNL     1      -3.500   1.555  23.808  0.00  0.00    +0.120 C 
BRANCH  12  18
ATOM      1  F   UNL     1      -3.717  -3.797  25.555  0.00  0.00    -0.205 F 
ATOM     18  C   UNL     1      -3.559   0.125  24.275  0.00  0.00    -0.033 A 
ATOM     19  C   UNL     1      -3.889  -0.888  23.376  0.00  0.00    +0.008 A 
ATOM     20  C   UNL     1      -3.281  -0.186  25.606  0.00  0.00    +0.008 A 
ATOM     21  C   UNL     1      -3.943  -2.214  23.808  0.00  0.00    +0.038 A 
ATOM     22  C   UNL     1      -3.336  -1.511  26.039  0.00  0.00    +0.038 A 
ATOM     23  C   UNL     1      -3.666  -2.525  25.140  0.00  0.00    +0.123 A 
ENDBRANCH  12  18
ENDBRANCH   3  12
TORSDOF 4
ENDMDL
MODEL 3
REMARK VINA RESULT:      -3.4      2.167      4.887
REMARK  Name = 75367193
REMARK  7 active torsions:
REMARK  status: ('A' for Active; 'I' for Inactive)
REMARK    1  A    between atoms: N_3  and  C_12
REMARK    2  A    between atoms: C_6  and  C_9
REMARK    3  A    between atoms: C_10  and  C_11
REMARK    4  A    between atoms: C_10  and  C_15
REMARK    5  A    between atoms: C_10  and  C_16
REMARK    6  A    between atoms: C_10  and  C_17
REMARK    7  A    between atoms: C_12  and  C_18
REMARK                            x       y       z     vdW  Elec       q    Type
REMARK                         _______ _______ _______ _____ _____    ______ ____
ROOT
ATOM      2  O   UNL     1      -4.552   4.764  25.375  0.00  0.00    -0.377 OA
ATOM      3  N   UNL     1      -4.093   2.031  24.657  0.00  0.00    -0.285 NA
ATOM      6  C   UNL     1      -3.101   3.089  24.342  0.00  0.00    +0.149 C 
ATOM      7  C   UNL     1      -3.221   4.247  25.353  0.00  0.00    +0.186 C 
ATOM      8  C   UNL     1      -5.444   2.611  24.753  0.00  0.00    +0.113 C 
ATOM     13  C   UNL     1      -5.474   3.749  25.762  0.00  0.00    +0.175 C 
ENDROOT
BRANCH   6   9
ATOM      4  N   UNL     1      -1.311   1.442  23.682  0.00  0.00    -0.344 N 
ATOM      5  N   UNL     1      -0.627   3.165  24.905  0.00  0.00    -0.239 NA
ATOM      9  C   UNL     1      -1.662   2.593  24.330  0.00  0.00    +0.127 A 
ATOM     11  C   UNL     1       0.034   1.269  23.853  0.00  0.00    +0.041 A 
ATOM     14  C   UNL     1       0.433   2.344  24.611  0.00  0.00    +0.134 A 
ATOM     24  H   UNL     1      -1.933   0.833  23.166  0.00  0.00    +0.167 HD
BRANCH  11  10
ATOM     10  C   UNL     1       0.765   0.124  23.289  0.00  0.00    +0.004 C 
ATOM     15  C   UNL     1       0.362  -0.303  21.829  0.00  0.00    +0.017 C 
ATOM     16  C   UNL     1       2.308   0.395  23.211  0.00  0.00    +0.017 C 
ATOM     17  C   UNL     1       0.576  -1.173  24.147  0.00  0.00    +0.017 C 
ENDBRANCH  11  10
ENDBRANCH   6   9
BRANCH   3  12
ATOM     12  C   UNL     1      -4.098   0.961  23.654  0.00  0.00    +0.120 C 
BRANCH  12  18
ATOM      1  F   UNL     1      -3.192  -4.096  25.968  0.00  0.00    -0.205 F 
ATOM     18  C   UNL     1      -3.857  -0.391  24.272  0.00  0.00    -0.033 A 
ATOM     19  C   UNL     1      -4.098  -1.548  23.533  0.00  0.00    +0.008 A 
ATOM     20  C   UNL     1      -3.391  -0.484  25.583  0.00  0.00    +0.008 A 
ATOM     21  C   UNL     1      -3.874  -2.800  24.106  0.00  0.00    +0.038 A 
ATOM     22  C   UNL     1      -3.167  -1.736  26.156  0.00  0.00    +0.038 A 
ATOM     23  C   UNL     1      -3.409  -2.894  25.418  0.00  0.00    +0.123 A 
ENDBRANCH  12  18
ENDBRANCH   3  12
TORSDOF 4
ENDMDL
MODEL 4
REMARK VINA RESULT:      -3.2      2.108      5.000
REMARK  Name = 75367193
REMARK  7 active torsions:
REMARK  status: ('A' for Active; 'I' for Inactive)
REMARK    1  A    between atoms: N_3  and  C_12
REMARK    2  A    between atoms: C_6  and  C_9
REMARK    3  A    between atoms: C_10  and  C_11
REMARK    4  A    between atoms: C_10  and  C_15
REMARK    5  A    between atoms: C_10  and  C_16
REMARK    6  A    between atoms: C_10  and  C_17
REMARK    7  A    between atoms: C_12  and  C_18
REMARK                            x       y       z     vdW  Elec       q    Type
REMARK                         _______ _______ _______ _____ _____    ______ ____
ROOT
ATOM      2  O   UNL     1       0.147   4.878  24.360  0.00  0.00    -0.377 OA
ATOM      3  N   UNL     1      -2.346   3.470  24.418  0.00  0.00    -0.285 NA
ATOM      6  C   UNL     1      -1.126   2.857  23.835  0.00  0.00    +0.149 C 
ATOM      7  C   UNL     1       0.134   3.456  24.492  0.00  0.00    +0.186 C 
ATOM      8  C   UNL     1      -2.265   4.940  24.339  0.00  0.00    +0.113 C 
ATOM     13  C   UNL     1      -0.992   5.448  25.000  0.00  0.00    +0.175 C 
ENDROOT
BRANCH   6   9
ATOM      4  N   UNL     1      -2.189   0.625  24.322  0.00  0.00    -0.344 N 
ATOM      5  N   UNL     1      -0.036   0.566  23.785  0.00  0.00    -0.239 NA
ATOM      9  C   UNL     1      -1.080   1.342  23.972  0.00  0.00    +0.127 A 
ATOM     11  C   UNL     1      -1.830  -0.694  24.361  0.00  0.00    +0.041 A 
ATOM     14  C   UNL     1      -0.497  -0.705  24.025  0.00  0.00    +0.134 A 
ATOM     24  H   UNL     1      -3.109   1.001  24.513  0.00  0.00    +0.167 HD
BRANCH  11  10
ATOM     10  C   UNL     1      -2.777  -1.765  24.705  0.00  0.00    +0.004 C 
ATOM     15  C   UNL     1      -4.060  -1.872  23.801  0.00  0.00    +0.017 C 
ATOM     16  C   UNL     1      -2.114  -3.183  24.621  0.00  0.00    +0.017 C 
ATOM     17  C   UNL     1      -3.332  -1.610  26.163  0.00  0.00    +0.017 C 
ENDBRANCH  11  10
ENDBRANCH   6   9
BRANCH   3  12
ATOM     12  C   UNL     1      -3.568   3.019  23.743  0.00  0.00    +0.120 C 
BRANCH  12  18
ATOM      1  F   UNL     1      -7.466   1.265  27.414  0.00  0.00    -0.205 F 
ATOM     18  C   UNL     1      -4.610   2.550  24.723  0.00  0.00    -0.033 A 
ATOM     19  C   UNL     1      -5.103   1.248  24.647  0.00  0.00    +0.008 A 
ATOM     20  C   UNL     1      -5.082   3.419  25.708  0.00  0.00    +0.008 A 
ATOM     21  C   UNL     1      -6.068   0.813  25.556  0.00  0.00    +0.038 A 
ATOM     22  C   UNL     1      -6.047   2.984  26.616  0.00  0.00    +0.038 A 
ATOM     23  C   UNL     1      -6.540   1.681  26.540  0.00  0.00    +0.123 A 
ENDBRANCH  12  18
ENDBRANCH   3  12
TORSDOF 4
ENDMDL
MODEL 5
REMARK VINA RESULT:      -3.0      1.781      2.052
REMARK  Name = 75367193
REMARK  7 active torsions:
REMARK  status: ('A' for Active; 'I' for Inactive)
REMARK    1  A    between atoms: N_3  and  C_12
REMARK    2  A    between atoms: C_6  and  C_9
REMARK    3  A    between atoms: C_10  and  C_11
REMARK    4  A    between atoms: C_10  and  C_15
REMARK    5  A    between atoms: C_10  and  C_16
REMARK    6  A    between atoms: C_10  and  C_17
REMARK    7  A    between atoms: C_12  and  C_18
REMARK                            x       y       z     vdW  Elec       q    Type
REMARK                         _______ _______ _______ _____ _____    ______ ____
ROOT
ATOM      2  O   UNL     1       2.778   0.661  22.450  0.00  0.00    -0.377 OA
ATOM      3  N   UNL     1       0.245  -0.175  23.492  0.00  0.00    -0.285 NA
ATOM      6  C   UNL     1       1.091   0.809  24.214  0.00  0.00    +0.149 C 
ATOM      7  C   UNL     1       1.987   1.570  23.216  0.00  0.00    +0.186 C 
ATOM      8  C   UNL     1       1.083  -1.046  22.648  0.00  0.00    +0.113 C 
ATOM     13  C   UNL     1       1.942  -0.218  21.702  0.00  0.00    +0.175 C 
ENDROOT
BRANCH   6   9
ATOM      4  N   UNL     1      -0.745   2.516  24.477  0.00  0.00    -0.344 N 
ATOM      5  N   UNL     1       0.479   2.134  26.290  0.00  0.00    -0.239 NA
ATOM      9  C   UNL     1       0.292   1.817  25.028  0.00  0.00    +0.127 A 
ATOM     11  C   UNL     1      -1.254   3.331  25.450  0.00  0.00    +0.041 A 
ATOM     14  C   UNL     1      -0.482   3.077  26.559  0.00  0.00    +0.134 A 
ATOM     24  H   UNL     1      -1.078   2.440  23.525  0.00  0.00    +0.167 HD
BRANCH  11  10
ATOM     10  C   UNL     1      -2.389   4.235  25.214  0.00  0.00    +0.004 C 
ATOM     15  C   UNL     1      -3.493   4.267  26.334  0.00  0.00    +0.017 C 
ATOM     16  C   UNL     1      -1.929   5.728  25.070  0.00  0.00    +0.017 C 
ATOM     17  C   UNL     1      -3.165   3.872  23.903  0.00  0.00    +0.017 C 
ENDBRANCH  11  10
ENDBRANCH   6   9
BRANCH   3  12
ATOM     12  C   UNL     1      -0.541  -1.007  24.409  0.00  0.00    +0.120 C 
BRANCH  12  18
ATOM      1  F   UNL     1      -5.845   0.831  24.896  0.00  0.00    -0.205 F 
ATOM     18  C   UNL     1      -1.958  -0.516  24.539  0.00  0.00    -0.033 A 
ATOM     19  C   UNL     1      -2.532   0.234  23.514  0.00  0.00    +0.008 A 
ATOM     20  C   UNL     1      -2.696  -0.811  25.685  0.00  0.00    +0.008 A 
ATOM     21  C   UNL     1      -3.846   0.690  23.633  0.00  0.00    +0.038 A 
ATOM     22  C   UNL     1      -4.009  -0.355  25.806  0.00  0.00    +0.038 A 
ATOM     23  C   UNL     1      -4.584   0.395  24.780  0.00  0.00    +0.123 A 
ENDBRANCH  12  18
ENDBRANCH   3  12
TORSDOF 4
ENDMDL
MODEL 6
REMARK VINA RESULT:      -2.8      2.580      5.153
REMARK  Name = 75367193
REMARK  7 active torsions:
REMARK  status: ('A' for Active; 'I' for Inactive)
REMARK    1  A    between atoms: N_3  and  C_12
REMARK    2  A    between atoms: C_6  and  C_9
REMARK    3  A    between atoms: C_10  and  C_11
REMARK    4  A    between atoms: C_10  and  C_15
REMARK    5  A    between atoms: C_10  and  C_16
REMARK    6  A    between atoms: C_10  and  C_17
REMARK    7  A    between atoms: C_12  and  C_18
REMARK                            x       y       z     vdW  Elec       q    Type
REMARK                         _______ _______ _______ _____ _____    ______ ____
ROOT
ATOM      2  O   UNL     1      -5.864   4.312  25.616  0.00  0.00    -0.377 OA
ATOM      3  N   UNL     1      -5.257   1.540  25.229  0.00  0.00    -0.285 NA
ATOM      6  C   UNL     1      -4.722   2.583  24.318  0.00  0.00    +0.149 C 
ATOM      7  C   UNL     1      -4.605   3.928  25.062  0.00  0.00    +0.186 C 
ATOM      8  C   UNL     1      -6.515   1.999  25.846  0.00  0.00    +0.113 C 
ATOM     13  C   UNL     1      -6.316   3.335  26.550  0.00  0.00    +0.175 C 
ENDROOT
BRANCH   6   9
ATOM      4  N   UNL     1      -2.287   1.961  24.511  0.00  0.00    -0.344 N 
ATOM      5  N   UNL     1      -3.070   2.146  22.441  0.00  0.00    -0.239 NA
ATOM      9  C   UNL     1      -3.368   2.232  23.719  0.00  0.00    +0.127 A 
ATOM     11  C   UNL     1      -1.233   1.685  23.686  0.00  0.00    +0.041 A 
ATOM     14  C   UNL     1      -1.741   1.805  22.414  0.00  0.00    +0.134 A 
ATOM     24  H   UNL     1      -2.273   1.961  25.522  0.00  0.00    +0.167 HD
BRANCH  11  10
ATOM     10  C   UNL     1       0.105   1.346  24.194  0.00  0.00    +0.004 C 
ATOM     15  C   UNL     1       1.319   2.013  23.446  0.00  0.00    +0.017 C 
ATOM     16  C   UNL     1       0.286   1.765  25.694  0.00  0.00    +0.017 C 
ATOM     17  C   UNL     1       0.389  -0.193  24.116  0.00  0.00    +0.017 C 
ENDBRANCH  11  10
ENDBRANCH   6   9
BRANCH   3  12
ATOM     12  C   UNL     1      -5.498   0.270  24.536  0.00  0.00    +0.120 C 
BRANCH  12  18
ATOM      1  F   UNL     1      -1.224  -3.337  25.218  0.00  0.00    -0.205 F 
ATOM     18  C   UNL     1      -4.357  -0.695  24.718  0.00  0.00    -0.033 A 
ATOM     19  C   UNL     1      -4.145  -1.708  23.785  0.00  0.00    +0.008 A 
ATOM     20  C   UNL     1      -3.510  -0.573  25.821  0.00  0.00    +0.008 A 
ATOM     21  C   UNL     1      -3.087  -2.602  23.953  0.00  0.00    +0.038 A 
ATOM     22  C   UNL     1      -2.453  -1.466  25.989  0.00  0.00    +0.038 A 
ATOM     23  C   UNL     1      -2.241  -2.481  25.056  0.00  0.00    +0.123 A 
ENDBRANCH  12  18
ENDBRANCH   3  12
TORSDOF 4
ENDMDL
MODEL 7
REMARK VINA RESULT:      -2.7      2.689      5.418
REMARK  Name = 75367193
REMARK  7 active torsions:
REMARK  status: ('A' for Active; 'I' for Inactive)
REMARK    1  A    between atoms: N_3  and  C_12
REMARK    2  A    between atoms: C_6  and  C_9
REMARK    3  A    between atoms: C_10  and  C_11
REMARK    4  A    between atoms: C_10  and  C_15
REMARK    5  A    between atoms: C_10  and  C_16
REMARK    6  A    between atoms: C_10  and  C_17
REMARK    7  A    between atoms: C_12  and  C_18
REMARK                            x       y       z     vdW  Elec       q    Type
REMARK                         _______ _______ _______ _____ _____    ______ ____
ROOT
ATOM      2  O   UNL     1      -2.720   5.184  25.530  0.00  0.00    -0.377 OA
ATOM      3  N   UNL     1      -1.096   2.897  24.955  0.00  0.00    -0.285 NA
ATOM      6  C   UNL     1      -2.476   2.752  25.485  0.00  0.00    +0.149 C 
ATOM      7  C   UNL     1      -3.328   3.973  25.084  0.00  0.00    +0.186 C 
ATOM      8  C   UNL     1      -0.526   4.192  25.365  0.00  0.00    +0.113 C 
ATOM     13  C   UNL     1      -1.431   5.340  24.941  0.00  0.00    +0.175 C 
ENDROOT
BRANCH   6   9
ATOM      4  N   UNL     1      -2.615   0.253  25.193  0.00  0.00    -0.344 N 
ATOM      5  N   UNL     1      -4.347   1.408  24.420  0.00  0.00    -0.239 NA
ATOM      9  C   UNL     1      -3.178   1.485  25.018  0.00  0.00    +0.127 A 
ATOM     11  C   UNL     1      -3.480  -0.671  24.675  0.00  0.00    +0.041 A 
ATOM     14  C   UNL     1      -4.541   0.066  24.204  0.00  0.00    +0.134 A 
ATOM     24  H   UNL     1      -1.724   0.060  25.631  0.00  0.00    +0.167 HD
BRANCH  11  10
ATOM     10  C   UNL     1      -3.200  -2.115  24.688  0.00  0.00    +0.004 C 
ATOM     15  C   UNL     1      -1.795  -2.553  24.134  0.00  0.00    +0.017 C 
ATOM     16  C   UNL     1      -3.259  -2.710  26.138  0.00  0.00    +0.017 C 
ATOM     17  C   UNL     1      -4.234  -2.919  23.826  0.00  0.00    +0.017 C 
ENDBRANCH  11  10
ENDBRANCH   6   9
BRANCH   3  12
ATOM     12  C   UNL     1      -0.213   1.817  25.408  0.00  0.00    +0.120 C 
BRANCH  12  18
ATOM      1  F   UNL     1       2.755  -0.397  21.162  0.00  0.00    -0.205 F 
ATOM     18  C   UNL     1       0.580   1.226  24.273  0.00  0.00    -0.033 A 
ATOM     19  C   UNL     1       1.866   1.693  24.005  0.00  0.00    +0.008 A 
ATOM     20  C   UNL     1       0.029   0.211  23.492  0.00  0.00    +0.008 A 
ATOM     21  C   UNL     1       2.602   1.145  22.953  0.00  0.00    +0.038 A 
ATOM     22  C   UNL     1       0.764  -0.336  22.440  0.00  0.00    +0.038 A 
ATOM     23  C   UNL     1       2.050   0.131  22.171  0.00  0.00    +0.123 A 
ENDBRANCH  12  18
ENDBRANCH   3  12
TORSDOF 4
ENDMDL
