MODEL 1
REMARK VINA RESULT:       1.1      0.000      0.000
REMARK  Name = 11887318
REMARK  8 active torsions:
REMARK  status: ('A' for Active; 'I' for Inactive)
REMARK    1  A    between atoms: O_4  and  C_26
REMARK    2  A    between atoms: O_4  and  C_33
REMARK    3  A    between atoms: O_5  and  C_31
REMARK    4  A    between atoms: N_7  and  C_14
REMARK    5  A    between atoms: N_8  and  C_15
REMARK    6  A    between atoms: C_18  and  C_20
REMARK    7  A    between atoms: C_19  and  C_21
REMARK    8  A    between atoms: C_24  and  C_31
REMARK                            x       y       z     vdW  Elec       q    Type
REMARK                         _______ _______ _______ _____ _____    ______ ____
ROOT
ATOM      1  O   UNL     1      14.387  -7.849  28.683  0.00  0.00    -0.370 OA
ATOM      2  O   UNL     1      16.900  -6.420  29.921  0.00  0.00    -0.370 OA
ATOM     12  C   UNL     1      15.505  -6.079  29.823  0.00  0.00    +0.176 C 
ATOM     13  C   UNL     1      15.016  -6.575  28.476  0.00  0.00    +0.171 C 
ATOM     14  C   UNL     1      14.708  -6.875  30.839  0.00  0.00    +0.168 C 
ATOM     15  C   UNL     1      16.277  -6.739  27.658  0.00  0.00    +0.130 C 
ATOM     16  C   UNL     1      14.371  -8.155  30.084  0.00  0.00    +0.190 C 
ATOM     17  C   UNL     1      17.306  -7.086  28.717  0.00  0.00    +0.185 C 
ENDROOT
BRANCH  14   7
ATOM      7  N   UNL     1      13.551  -6.134  31.350  0.00  0.00    -0.217 N 
ATOM      9  N   UNL     1      13.527  -4.797  31.306  0.00  0.00    -0.043 NA
ATOM     10  N   UNL     1      11.650  -5.581  32.218  0.00  0.00    -0.108 NA
ATOM     11  N   UNL     1      12.360  -4.464  31.840  0.00  0.00    -0.023 NA
ATOM     18  C   UNL     1      12.409  -6.606  31.904  0.00  0.00    +0.182 A 
BRANCH  18  20
ATOM     20  C   UNL     1      12.108  -8.000  32.103  0.00  0.00    +0.024 A 
ATOM     22  C   UNL     1      10.800  -8.462  31.954  0.00  0.00    +0.057 A 
ATOM     23  C   UNL     1      13.125  -8.892  32.448  0.00  0.00    +0.012 A 
ATOM     26  C   UNL     1      10.509  -9.813  32.147  0.00  0.00    +0.121 A 
ATOM     27  C   UNL     1      12.835 -10.243  32.640  0.00  0.00    +0.004 A 
ATOM     30  C   UNL     1      11.526 -10.703  32.490  0.00  0.00    +0.045 A 
BRANCH  26   4
ATOM      4  O   UNL     1       9.233 -10.262  31.999  0.00  0.00    -0.495 OA
ATOM     33  C   UNL     1       8.200  -9.501  32.621  0.00  0.00    +0.277 C 
ENDBRANCH  26   4
ENDBRANCH  18  20
ENDBRANCH  14   7
BRANCH  15   8
ATOM      3  O   UNL     1      14.769  -5.454  25.580  0.00  0.00    -0.270 OA
ATOM      8  N   UNL     1      16.620  -5.515  26.976  0.00  0.00    -0.304 N 
ATOM     19  C   UNL     1      15.825  -4.969  25.980  0.00  0.00    +0.245 C 
ATOM     34  H   UNL     1      17.460  -5.020  27.263  0.00  0.00    +0.149 HD
BRANCH  19  21
ATOM     21  C   UNL     1      16.331  -3.719  25.356  0.00  0.00    +0.051 A 
ATOM     24  C   UNL     1      16.940  -3.755  24.117  0.00  0.00    +0.071 A 
ATOM     25  C   UNL     1      16.166  -2.540  26.056  0.00  0.00    +0.014 A 
ATOM     28  C   UNL     1      17.405  -2.566  23.557  0.00  0.00    +0.016 A 
ATOM     29  C   UNL     1      16.631  -1.350  25.496  0.00  0.00    +0.001 A 
ATOM     32  C   UNL     1      17.250  -1.363  24.246  0.00  0.00    +0.001 A 
BRANCH  24  31
ATOM      6  O   UNL     1      17.212  -5.083  22.145  0.00  0.00    -0.245 OA
ATOM     31  C   UNL     1      17.118  -4.995  23.373  0.00  0.00    +0.338 C 
BRANCH  31   5
ATOM      5  O   UNL     1      17.176  -6.084  24.186  0.00  0.00    -0.477 OA
ATOM     35  H   UNL     1      17.965  -6.063  24.767  0.00  0.00    +0.295 HD
ENDBRANCH  31   5
ENDBRANCH  24  31
ENDBRANCH  19  21
ENDBRANCH  15   8
TORSDOF 7
ENDMDL
MODEL 2
REMARK VINA RESULT:       4.3     15.854     17.564
REMARK  Name = 11887318
REMARK  8 active torsions:
REMARK  status: ('A' for Active; 'I' for Inactive)
REMARK    1  A    between atoms: O_4  and  C_26
REMARK    2  A    between atoms: O_4  and  C_33
REMARK    3  A    between atoms: O_5  and  C_31
REMARK    4  A    between atoms: N_7  and  C_14
REMARK    5  A    between atoms: N_8  and  C_15
REMARK    6  A    between atoms: C_18  and  C_20
REMARK    7  A    between atoms: C_19  and  C_21
REMARK    8  A    between atoms: C_24  and  C_31
REMARK                            x       y       z     vdW  Elec       q    Type
REMARK                         _______ _______ _______ _____ _____    ______ ____
ROOT
ATOM      1  O   UNL     1      -3.035  -0.889  23.364  0.00  0.00    -0.370 OA
ATOM      2  O   UNL     1      -1.559  -1.041  26.137  0.00  0.00    -0.370 OA
ATOM     12  C   UNL     1      -2.107   0.036  25.356  0.00  0.00    +0.176 C 
ATOM     13  C   UNL     1      -1.845  -0.288  23.898  0.00  0.00    +0.171 C 
ATOM     14  C   UNL     1      -3.619   0.047  25.482  0.00  0.00    +0.168 C 
ATOM     15  C   UNL     1      -0.720  -1.299  23.937  0.00  0.00    +0.130 C 
ATOM     16  C   UNL     1      -4.063  -0.890  24.365  0.00  0.00    +0.190 C 
ATOM     17  C   UNL     1      -0.967  -2.006  25.256  0.00  0.00    +0.185 C 
ENDROOT
BRANCH  14   7
ATOM      7  N   UNL     1      -4.179   1.400  25.416  0.00  0.00    -0.217 N 
ATOM      9  N   UNL     1      -5.491   1.600  25.573  0.00  0.00    -0.043 NA
ATOM     10  N   UNL     1      -4.443   3.537  25.228  0.00  0.00    -0.108 NA
ATOM     11  N   UNL     1      -5.648   2.912  25.456  0.00  0.00    -0.023 NA
ATOM     18  C   UNL     1      -3.545   2.579  25.208  0.00  0.00    +0.182 A 
BRANCH  18  20
ATOM     20  C   UNL     1      -2.128   2.724  25.000  0.00  0.00    +0.024 A 
ATOM     22  C   UNL     1      -1.250   2.642  26.082  0.00  0.00    +0.057 A 
ATOM     23  C   UNL     1      -1.629   2.948  23.715  0.00  0.00    +0.012 A 
ATOM     26  C   UNL     1       0.123   2.782  25.880  0.00  0.00    +0.121 A 
ATOM     27  C   UNL     1      -0.255   3.088  23.514  0.00  0.00    +0.004 A 
ATOM     30  C   UNL     1       0.620   3.005  24.597  0.00  0.00    +0.045 A 
BRANCH  26   4
ATOM      4  O   UNL     1       0.978   2.700  26.936  0.00  0.00    -0.495 OA
ATOM     33  C   UNL     1       0.424   2.318  28.193  0.00  0.00    +0.277 C 
ENDBRANCH  26   4
ENDBRANCH  18  20
ENDBRANCH  14   7
BRANCH  15   8
ATOM      3  O   UNL     1       1.071  -1.081  21.703  0.00  0.00    -0.270 OA
ATOM      8  N   UNL     1       0.567  -0.648  23.925  0.00  0.00    -0.304 N 
ATOM     19  C   UNL     1       1.365  -0.594  22.792  0.00  0.00    +0.245 C 
ATOM     34  H   UNL     1       0.882  -0.183  24.772  0.00  0.00    +0.149 HD
BRANCH  19  21
ATOM     21  C   UNL     1       2.675   0.089  22.950  0.00  0.00    +0.051 A 
ATOM     24  C   UNL     1       3.735  -0.567  23.544  0.00  0.00    +0.071 A 
ATOM     25  C   UNL     1       2.783   1.385  22.485  0.00  0.00    +0.014 A 
ATOM     28  C   UNL     1       4.952   0.100  23.679  0.00  0.00    +0.016 A 
ATOM     29  C   UNL     1       4.000   2.052  22.620  0.00  0.00    +0.001 A 
ATOM     32  C   UNL     1       5.085   1.409  23.216  0.00  0.00    +0.001 A 
BRANCH  24  31
ATOM      6  O   UNL     1       2.626  -2.424  24.565  0.00  0.00    -0.245 OA
ATOM     31  C   UNL     1       3.628  -1.933  24.038  0.00  0.00    +0.338 C 
BRANCH  31   5
ATOM      5  O   UNL     1       4.774  -2.642  23.853  0.00  0.00    -0.477 OA
ATOM     35  H   UNL     1       4.723  -3.219  23.062  0.00  0.00    +0.295 HD
ENDBRANCH  31   5
ENDBRANCH  24  31
ENDBRANCH  19  21
ENDBRANCH  15   8
TORSDOF 7
ENDMDL
