MODEL 1
REMARK VINA RESULT:       5.7      0.000      0.000
REMARK  Name = 28960456
REMARK  9 active torsions:
REMARK  status: ('A' for Active; 'I' for Inactive)
REMARK    1  A    between atoms: O_3  and  C_12
REMARK    2  A    between atoms: O_5  and  C_23
REMARK    3  A    between atoms: O_5  and  C_31
REMARK    4  A    between atoms: O_6  and  C_32
REMARK    5  A    between atoms: O_6  and  C_35
REMARK    6  A    between atoms: N_7  and  C_11
REMARK    7  A    between atoms: N_8  and  C_13
REMARK    8  A    between atoms: N_9  and  C_22
REMARK    9  A    between atoms: N_10  and  C_27
REMARK                            x       y       z     vdW  Elec       q    Type
REMARK                         _______ _______ _______ _____ _____    ______ ____
ROOT
ATOM      1  O   UNL     1      -3.924   3.384  26.682  0.00  0.00    -0.342 OA
ATOM      2  O   UNL     1      -4.858   5.459  26.230  0.00  0.00    -0.347 OA
ATOM     11  C   UNL     1      -4.499   3.917  24.402  0.00  0.00    +0.144 C 
ATOM     12  C   UNL     1      -3.086   4.498  24.161  0.00  0.00    +0.159 C 
ATOM     13  C   UNL     1      -2.134   4.317  25.363  0.00  0.00    +0.136 C 
ATOM     14  C   UNL     1      -4.899   4.066  25.881  0.00  0.00    +0.270 C 
ATOM     15  C   UNL     1      -2.861   4.342  26.724  0.00  0.00    +0.170 C 
ATOM     16  C   UNL     1      -3.646   5.614  26.984  0.00  0.00    +0.196 C 
ENDROOT
BRANCH  13   8
ATOM      4  O   UNL     1      -0.192   3.700  23.350  0.00  0.00    -0.252 OA
ATOM      8  N   UNL     1      -1.390   3.084  25.228  0.00  0.00    -0.291 N 
ATOM     10  N   UNL     1       0.101   1.589  24.333  0.00  0.00    -0.269 N 
ATOM     21  C   UNL     1      -0.457   2.866  24.211  0.00  0.00    +0.304 C 
ATOM     36  H   UNL     1      -1.613   2.316  25.855  0.00  0.00    +0.151 HD
ATOM     38  H   UNL     1      -0.230   1.020  25.108  0.00  0.00    +0.156 HD
BRANCH  10  27
ATOM     27  C   UNL     1       1.077   0.987  23.508  0.00  0.00    +0.038 A 
ATOM     29  C   UNL     1       2.427   1.301  23.680  0.00  0.00    +0.069 A 
ATOM     30  C   UNL     1       0.694   0.079  22.520  0.00  0.00    +0.023 A 
ATOM     32  C   UNL     1       3.390   0.706  22.866  0.00  0.00    +0.122 A 
ATOM     33  C   UNL     1       1.658  -0.516  21.706  0.00  0.00    +0.005 A 
ATOM     34  C   UNL     1       3.006  -0.202  21.879  0.00  0.00    +0.046 A 
BRANCH  32   6
ATOM      6  O   UNL     1       4.706   1.011  23.034  0.00  0.00    -0.495 OA
ATOM     35  C   UNL     1       5.475   0.134  23.857  0.00  0.00    +0.277 C 
ENDBRANCH  32   6
ENDBRANCH  10  27
ENDBRANCH  13   8
BRANCH  11   7
ATOM      7  N   UNL     1      -4.535   2.504  24.018  0.00  0.00    -0.290 NA
ATOM      9  N   UNL     1      -3.735  -0.237  24.087  0.00  0.00    -0.325 N 
ATOM     17  C   UNL     1      -3.246   2.093  23.448  0.00  0.00    +0.104 C 
ATOM     18  C   UNL     1      -4.860   1.664  25.178  0.00  0.00    +0.104 C 
ATOM     19  C   UNL     1      -3.289   0.633  22.991  0.00  0.00    +0.120 C 
ATOM     20  C   UNL     1      -4.956   0.189  24.779  0.00  0.00    +0.120 C 
BRANCH   9  22
ATOM     22  C   UNL     1      -3.416  -1.598  24.017  0.00  0.00    +0.072 A 
ATOM     23  C   UNL     1      -2.146  -2.048  24.376  0.00  0.00    +0.141 A 
ATOM     24  C   UNL     1      -4.381  -2.507  23.584  0.00  0.00    +0.027 A 
ATOM     25  C   UNL     1      -1.841  -3.407  24.302  0.00  0.00    +0.047 A 
ATOM     26  C   UNL     1      -4.077  -3.866  23.509  0.00  0.00    +0.002 A 
ATOM     28  C   UNL     1      -2.806  -4.316  23.868  0.00  0.00    +0.004 A 
BRANCH  23   5
ATOM      5  O   UNL     1      -1.188  -1.177  24.802  0.00  0.00    -0.493 OA
ATOM     31  C   UNL     1      -1.268  -0.739  26.157  0.00  0.00    +0.277 C 
ENDBRANCH  23   5
ENDBRANCH   9  22
ENDBRANCH  11   7
BRANCH  12   3
ATOM      3  O   UNL     1      -3.230   5.899  23.894  0.00  0.00    -0.388 OA
ATOM     37  H   UNL     1      -3.758   6.283  24.615  0.00  0.00    +0.210 HD
ENDBRANCH  12   3
TORSDOF 7
ENDMDL
MODEL 2
REMARK VINA RESULT:       8.9      1.865      7.310
REMARK  Name = 28960456
REMARK  9 active torsions:
REMARK  status: ('A' for Active; 'I' for Inactive)
REMARK    1  A    between atoms: O_3  and  C_12
REMARK    2  A    between atoms: O_5  and  C_23
REMARK    3  A    between atoms: O_5  and  C_31
REMARK    4  A    between atoms: O_6  and  C_32
REMARK    5  A    between atoms: O_6  and  C_35
REMARK    6  A    between atoms: N_7  and  C_11
REMARK    7  A    between atoms: N_8  and  C_13
REMARK    8  A    between atoms: N_9  and  C_22
REMARK    9  A    between atoms: N_10  and  C_27
REMARK                            x       y       z     vdW  Elec       q    Type
REMARK                         _______ _______ _______ _____ _____    ______ ____
ROOT
ATOM      1  O   UNL     1       4.086   0.369  24.601  0.00  0.00    -0.342 OA
ATOM      2  O   UNL     1       5.311   0.791  22.677  0.00  0.00    -0.347 OA
ATOM     11  C   UNL     1       3.016   1.545  22.788  0.00  0.00    +0.144 C 
ATOM     12  C   UNL     1       2.525   0.208  22.186  0.00  0.00    +0.159 C 
ATOM     13  C   UNL     1       2.851  -1.019  23.064  0.00  0.00    +0.136 C 
ATOM     14  C   UNL     1       4.326   1.336  23.569  0.00  0.00    +0.270 C 
ATOM     15  C   UNL     1       4.157  -0.859  23.871  0.00  0.00    +0.170 C 
ATOM     16  C   UNL     1       5.385  -0.602  23.018  0.00  0.00    +0.196 C 
ENDROOT
BRANCH  13   8
ATOM      4  O   UNL     1       0.060  -0.941  22.429  0.00  0.00    -0.252 OA
ATOM      8  N   UNL     1       1.751  -1.295  23.963  0.00  0.00    -0.291 N 
ATOM     10  N   UNL     1      -0.423  -1.547  24.644  0.00  0.00    -0.269 N 
ATOM     21  C   UNL     1       0.413  -1.234  23.568  0.00  0.00    +0.304 C 
ATOM     36  H   UNL     1       1.961  -1.465  24.943  0.00  0.00    +0.151 HD
ATOM     38  H   UNL     1       0.033  -1.768  25.526  0.00  0.00    +0.156 HD
BRANCH  10  27
ATOM     27  C   UNL     1      -1.835  -1.598  24.659  0.00  0.00    +0.038 A 
ATOM     29  C   UNL     1      -2.567  -0.517  25.155  0.00  0.00    +0.069 A 
ATOM     30  C   UNL     1      -2.499  -2.727  24.179  0.00  0.00    +0.023 A 
ATOM     32  C   UNL     1      -3.961  -0.567  25.169  0.00  0.00    +0.122 A 
ATOM     33  C   UNL     1      -3.893  -2.777  24.193  0.00  0.00    +0.005 A 
ATOM     34  C   UNL     1      -4.624  -1.696  24.689  0.00  0.00    +0.046 A 
BRANCH  32   6
ATOM      6  O   UNL     1      -4.675   0.485  25.651  0.00  0.00    -0.495 OA
ATOM     35  C   UNL     1      -5.761   0.954  24.852  0.00  0.00    +0.277 C 
ENDBRANCH  32   6
ENDBRANCH  10  27
ENDBRANCH  13   8
BRANCH  11   7
ATOM      7  N   UNL     1       1.993   2.103  23.675  0.00  0.00    -0.290 NA
ATOM      9  N   UNL     1      -0.650   2.841  24.466  0.00  0.00    -0.325 N 
ATOM     17  C   UNL     1       1.314   3.232  23.028  0.00  0.00    +0.104 C 
ATOM     18  C   UNL     1       1.013   1.074  24.043  0.00  0.00    +0.104 C 
ATOM     19  C   UNL     1       0.281   3.861  23.966  0.00  0.00    +0.120 C 
ATOM     20  C   UNL     1      -0.031   1.631  25.014  0.00  0.00    +0.120 C 
BRANCH   9  22
ATOM     22  C   UNL     1      -1.892   3.266  24.951  0.00  0.00    +0.072 A 
ATOM     23  C   UNL     1      -3.002   3.322  24.108  0.00  0.00    +0.141 A 
ATOM     24  C   UNL     1      -2.015   3.636  26.290  0.00  0.00    +0.027 A 
ATOM     25  C   UNL     1      -4.234   3.747  24.603  0.00  0.00    +0.047 A 
ATOM     26  C   UNL     1      -3.247   4.061  26.787  0.00  0.00    +0.002 A 
ATOM     28  C   UNL     1      -4.357   4.117  25.943  0.00  0.00    +0.004 A 
BRANCH  23   5
ATOM      5  O   UNL     1      -2.904   2.965  22.796  0.00  0.00    -0.493 OA
ATOM     31  C   UNL     1      -2.802   1.571  22.509  0.00  0.00    +0.277 C 
ENDBRANCH  23   5
ENDBRANCH   9  22
ENDBRANCH  11   7
BRANCH  12   3
ATOM      3  O   UNL     1       3.161   0.044  20.911  0.00  0.00    -0.388 OA
ATOM     37  H   UNL     1       2.472  -0.191  20.266  0.00  0.00    +0.210 HD
ENDBRANCH  12   3
TORSDOF 7
ENDMDL
MODEL 3
REMARK VINA RESULT:       9.6      0.943      1.610
REMARK  Name = 28960456
REMARK  9 active torsions:
REMARK  status: ('A' for Active; 'I' for Inactive)
REMARK    1  A    between atoms: O_3  and  C_12
REMARK    2  A    between atoms: O_5  and  C_23
REMARK    3  A    between atoms: O_5  and  C_31
REMARK    4  A    between atoms: O_6  and  C_32
REMARK    5  A    between atoms: O_6  and  C_35
REMARK    6  A    between atoms: N_7  and  C_11
REMARK    7  A    between atoms: N_8  and  C_13
REMARK    8  A    between atoms: N_9  and  C_22
REMARK    9  A    between atoms: N_10  and  C_27
REMARK                            x       y       z     vdW  Elec       q    Type
REMARK                         _______ _______ _______ _____ _____    ______ ____
ROOT
ATOM      1  O   UNL     1      -4.287   3.543  26.680  0.00  0.00    -0.342 OA
ATOM      2  O   UNL     1      -5.539   5.328  25.887  0.00  0.00    -0.347 OA
ATOM     11  C   UNL     1      -4.839   3.612  24.334  0.00  0.00    +0.144 C 
ATOM     12  C   UNL     1      -3.537   4.388  24.030  0.00  0.00    +0.159 C 
ATOM     13  C   UNL     1      -2.624   4.563  25.263  0.00  0.00    +0.136 C 
ATOM     14  C   UNL     1      -5.327   3.913  25.763  0.00  0.00    +0.270 C 
ATOM     15  C   UNL     1      -3.406   4.667  26.589  0.00  0.00    +0.170 C 
ATOM     16  C   UNL     1      -4.408   5.806  26.630  0.00  0.00    +0.196 C 
ENDROOT
BRANCH  13   8
ATOM      4  O   UNL     1      -0.970   3.582  23.141  0.00  0.00    -0.252 OA
ATOM      8  N   UNL     1      -1.675   3.473  25.339  0.00  0.00    -0.291 N 
ATOM     10  N   UNL     1      -0.084   1.989  24.619  0.00  0.00    -0.269 N 
ATOM     21  C   UNL     1      -0.906   3.058  24.250  0.00  0.00    +0.304 C 
ATOM     36  H   UNL     1      -1.624   2.938  26.201  0.00  0.00    +0.151 HD
ATOM     38  H   UNL     1      -0.152   1.674  25.583  0.00  0.00    +0.156 HD
BRANCH  10  27
ATOM     27  C   UNL     1       0.841   1.286  23.813  0.00  0.00    +0.038 A 
ATOM     29  C   UNL     1       2.202   1.587  23.887  0.00  0.00    +0.069 A 
ATOM     30  C   UNL     1       0.393   0.293  22.941  0.00  0.00    +0.023 A 
ATOM     32  C   UNL     1       3.113   0.893  23.092  0.00  0.00    +0.122 A 
ATOM     33  C   UNL     1       1.306  -0.401  22.146  0.00  0.00    +0.005 A 
ATOM     34  C   UNL     1       2.666  -0.100  22.222  0.00  0.00    +0.046 A 
BRANCH  32   6
ATOM      6  O   UNL     1       4.440   1.186  23.164  0.00  0.00    -0.495 OA
ATOM     35  C   UNL     1       5.341   0.085  23.289  0.00  0.00    +0.277 C 
ENDBRANCH  32   6
ENDBRANCH  10  27
ENDBRANCH  13   8
BRANCH  11   7
ATOM      7  N   UNL     1      -4.616   2.173  24.178  0.00  0.00    -0.290 NA
ATOM      9  N   UNL     1      -3.179  -0.283  24.417  0.00  0.00    -0.325 N 
ATOM     17  C   UNL     1      -3.433   1.923  23.347  0.00  0.00    +0.104 C 
ATOM     18  C   UNL     1      -4.452   1.533  25.489  0.00  0.00    +0.104 C 
ATOM     19  C   UNL     1      -3.222   0.423  23.129  0.00  0.00    +0.120 C 
ATOM     20  C   UNL     1      -4.274   0.020  25.343  0.00  0.00    +0.120 C 
BRANCH   9  22
ATOM     22  C   UNL     1      -2.562  -1.539  24.457  0.00  0.00    +0.072 A 
ATOM     23  C   UNL     1      -3.267  -2.687  24.099  0.00  0.00    +0.141 A 
ATOM     24  C   UNL     1      -1.230  -1.635  24.860  0.00  0.00    +0.027 A 
ATOM     25  C   UNL     1      -2.641  -3.932  24.143  0.00  0.00    +0.047 A 
ATOM     26  C   UNL     1      -0.603  -2.880  24.905  0.00  0.00    +0.002 A 
ATOM     28  C   UNL     1      -1.309  -4.029  24.547  0.00  0.00    +0.004 A 
BRANCH  23   5
ATOM      5  O   UNL     1      -4.569  -2.615  23.702  0.00  0.00    -0.493 OA
ATOM     31  C   UNL     1      -5.057  -3.678  22.886  0.00  0.00    +0.277 C 
ENDBRANCH  23   5
ENDBRANCH   9  22
ENDBRANCH  11   7
BRANCH  12   3
ATOM      3  O   UNL     1      -3.905   5.685  23.542  0.00  0.00    -0.388 OA
ATOM     37  H   UNL     1      -4.867   5.778  23.652  0.00  0.00    +0.210 HD
ENDBRANCH  12   3
TORSDOF 7
ENDMDL
