MODEL 1
REMARK VINA RESULT:      -4.2      0.000      0.000
REMARK  Name = 75537114
REMARK  3 active torsions:
REMARK  status: ('A' for Active; 'I' for Inactive)
REMARK    1  A    between atoms: N_4  and  C_13
REMARK    2  A    between atoms: N_5  and  C_14
REMARK    3  A    between atoms: C_13  and  C_15
REMARK                            x       y       z     vdW  Elec       q    Type
REMARK                         _______ _______ _______ _____ _____    ______ ____
ROOT
ATOM      2  O   UNL     1      -1.858 -10.596  15.065  0.00  0.00    -0.252 OA
ATOM      3  N   UNL     1      -3.220 -10.627  13.152  0.00  0.00    -0.278 N 
ATOM      4  N   UNL     1      -4.136  -9.985  10.571  0.00  0.00    -0.293 NA
ATOM      5  N   UNL     1      -4.213 -10.541  15.165  0.00  0.00    -0.287 N 
ATOM      7  C   UNL     1      -4.634 -10.731  12.863  0.00  0.00    +0.109 C 
ATOM      8  C   UNL     1      -5.020  -9.773  11.736  0.00  0.00    +0.109 C 
ATOM      9  C   UNL     1      -5.302 -10.441  14.206  0.00  0.00    +0.132 C 
ATOM     10  C   UNL     1      -2.268 -10.672  12.061  0.00  0.00    +0.125 C 
ATOM     11  C   UNL     1      -2.724  -9.745  10.931  0.00  0.00    +0.104 C 
ATOM     12  C   UNL     1      -2.956 -10.593  14.528  0.00  0.00    +0.305 C 
ATOM     14  C   UNL     1      -4.435 -10.441  16.590  0.00  0.00    +0.133 C 
ENDROOT
BRANCH   4  13
ATOM     13  C   UNL     1      -4.534  -9.116   9.465  0.00  0.00    +0.147 C 
BRANCH  13  15
ATOM      1  S   UNL     1      -7.102  -8.237   8.865  0.00  0.00    -0.079 S 
ATOM      6  N   UNL     1      -6.262 -10.659   8.533  0.00  0.00    -0.251 NA
ATOM     15  C   UNL     1      -5.904  -9.462   8.943  0.00  0.00    +0.092 A 
ATOM     16  C   UNL     1      -8.203  -9.388   8.229  0.00  0.00    +0.066 A 
ATOM     17  C   UNL     1      -7.580 -10.614   8.124  0.00  0.00    +0.119 A 
ENDBRANCH  13  15
ENDBRANCH   4  13
TORSDOF 2
ENDMDL
MODEL 2
REMARK VINA RESULT:      -3.9     16.812     17.994
REMARK  Name = 75537114
REMARK  3 active torsions:
REMARK  status: ('A' for Active; 'I' for Inactive)
REMARK    1  A    between atoms: N_4  and  C_13
REMARK    2  A    between atoms: N_5  and  C_14
REMARK    3  A    between atoms: C_13  and  C_15
REMARK                            x       y       z     vdW  Elec       q    Type
REMARK                         _______ _______ _______ _____ _____    ______ ____
ROOT
ATOM      2  O   UNL     1      -2.719   3.483  25.515  0.00  0.00    -0.252 OA
ATOM      3  N   UNL     1      -1.337   1.681  24.916  0.00  0.00    -0.278 N 
ATOM      4  N   UNL     1       0.777   0.288  23.689  0.00  0.00    -0.293 NA
ATOM      5  N   UNL     1      -3.562   1.374  24.879  0.00  0.00    -0.287 N 
ATOM      7  C   UNL     1      -1.504   0.275  24.614  0.00  0.00    +0.109 C 
ATOM      8  C   UNL     1      -0.618  -0.125  23.434  0.00  0.00    +0.109 C 
ATOM      9  C   UNL     1      -3.005   0.133  24.365  0.00  0.00    +0.132 C 
ATOM     10  C   UNL     1       0.000   2.225  25.040  0.00  0.00    +0.125 C 
ATOM     11  C   UNL     1       0.868   1.751  23.871  0.00  0.00    +0.104 C 
ATOM     12  C   UNL     1      -2.558   2.325  25.154  0.00  0.00    +0.305 C 
ATOM     14  C   UNL     1      -4.987   1.609  24.937  0.00  0.00    +0.133 C 
ENDROOT
BRANCH   4  13
ATOM     13  C   UNL     1       1.644  -0.143  22.593  0.00  0.00    +0.147 C 
BRANCH  13  15
ATOM      1  S   UNL     1       4.157   1.043  22.664  0.00  0.00    -0.079 S 
ATOM      6  N   UNL     1       3.594  -1.270  23.671  0.00  0.00    -0.251 NA
ATOM     15  C   UNL     1       3.083  -0.246  23.024  0.00  0.00    +0.092 A 
ATOM     16  C   UNL     1       5.420   0.173  23.432  0.00  0.00    +0.066 A 
ATOM     17  C   UNL     1       4.934  -1.028  23.903  0.00  0.00    +0.119 A 
ENDBRANCH  13  15
ENDBRANCH   4  13
TORSDOF 2
ENDMDL
MODEL 3
REMARK VINA RESULT:      -3.6      1.848      2.600
REMARK  Name = 75537114
REMARK  3 active torsions:
REMARK  status: ('A' for Active; 'I' for Inactive)
REMARK    1  A    between atoms: N_4  and  C_13
REMARK    2  A    between atoms: N_5  and  C_14
REMARK    3  A    between atoms: C_13  and  C_15
REMARK                            x       y       z     vdW  Elec       q    Type
REMARK                         _______ _______ _______ _____ _____    ______ ____
ROOT
ATOM      2  O   UNL     1      -1.405 -10.044  11.719  0.00  0.00    -0.252 OA
ATOM      3  N   UNL     1      -3.662 -10.008  11.072  0.00  0.00    -0.278 N 
ATOM      4  N   UNL     1      -6.022  -9.120   9.826  0.00  0.00    -0.293 NA
ATOM      5  N   UNL     1      -3.177 -10.467  13.217  0.00  0.00    -0.287 N 
ATOM      7  C   UNL     1      -4.939 -10.334  11.672  0.00  0.00    +0.109 C 
ATOM      8  C   UNL     1      -5.988  -9.289  11.292  0.00  0.00    +0.109 C 
ATOM      9  C   UNL     1      -4.628 -10.416  13.166  0.00  0.00    +0.132 C 
ATOM     10  C   UNL     1      -3.605  -9.678   9.663  0.00  0.00    +0.125 C 
ATOM     11  C   UNL     1      -4.709  -8.675   9.316  0.00  0.00    +0.104 C 
ATOM     12  C   UNL     1      -2.596 -10.162  11.969  0.00  0.00    +0.305 C 
ATOM     14  C   UNL     1      -2.459 -10.660  14.458  0.00  0.00    +0.133 C 
ENDROOT
BRANCH   4  13
ATOM     13  C   UNL     1      -7.064  -8.166   9.447  0.00  0.00    +0.147 C 
BRANCH  13  15
ATOM      1  S   UNL     1      -8.313 -10.412   8.388  0.00  0.00    -0.079 S 
ATOM      6  N   UNL     1      -9.552  -8.346   9.326  0.00  0.00    -0.251 NA
ATOM     15  C   UNL     1      -8.360  -8.855   9.108  0.00  0.00    +0.092 A 
ATOM     16  C   UNL     1     -10.028 -10.422   8.358  0.00  0.00    +0.066 A 
ATOM     17  C   UNL     1     -10.507  -9.246   8.895  0.00  0.00    +0.119 A 
ENDBRANCH  13  15
ENDBRANCH   4  13
TORSDOF 2
ENDMDL
MODEL 4
REMARK VINA RESULT:      -3.0     15.860     18.083
REMARK  Name = 75537114
REMARK  3 active torsions:
REMARK  status: ('A' for Active; 'I' for Inactive)
REMARK    1  A    between atoms: N_4  and  C_13
REMARK    2  A    between atoms: N_5  and  C_14
REMARK    3  A    between atoms: C_13  and  C_15
REMARK                            x       y       z     vdW  Elec       q    Type
REMARK                         _______ _______ _______ _____ _____    ______ ____
ROOT
ATOM      2  O   UNL     1      -3.604   4.809  26.354  0.00  0.00    -0.252 OA
ATOM      3  N   UNL     1      -3.792   2.932  24.953  0.00  0.00    -0.278 N 
ATOM      4  N   UNL     1      -4.309   0.280  24.174  0.00  0.00    -0.293 NA
ATOM      5  N   UNL     1      -1.968   4.228  24.757  0.00  0.00    -0.287 N 
ATOM      7  C   UNL     1      -3.073   2.379  23.825  0.00  0.00    +0.109 C 
ATOM      8  C   UNL     1      -2.968   0.859  23.954  0.00  0.00    +0.109 C 
ATOM      9  C   UNL     1      -1.736   3.118  23.849  0.00  0.00    +0.132 C 
ATOM     10  C   UNL     1      -5.052   2.340  25.350  0.00  0.00    +0.125 C 
ATOM     11  C   UNL     1      -4.918   0.815  25.408  0.00  0.00    +0.104 C 
ATOM     12  C   UNL     1      -3.179   4.084  25.465  0.00  0.00    +0.305 C 
ATOM     14  C   UNL     1      -0.973   5.254  24.984  0.00  0.00    +0.133 C 
ENDROOT
BRANCH   4  13
ATOM     13  C   UNL     1      -4.228  -1.179  24.238  0.00  0.00    +0.147 C 
BRANCH  13  15
ATOM      1  S   UNL     1      -1.961  -0.863  25.815  0.00  0.00    -0.079 S 
ATOM      6  N   UNL     1      -2.225  -2.643  23.959  0.00  0.00    -0.251 NA
ATOM     15  C   UNL     1      -2.837  -1.651  24.567  0.00  0.00    +0.092 A 
ATOM     16  C   UNL     1      -0.647  -1.928  25.532  0.00  0.00    +0.066 A 
ATOM     17  C   UNL     1      -0.970  -2.800  24.514  0.00  0.00    +0.119 A 
ENDBRANCH  13  15
ENDBRANCH   4  13
TORSDOF 2
ENDMDL
MODEL 5
REMARK VINA RESULT:      -2.8     16.728     18.361
REMARK  Name = 75537114
REMARK  3 active torsions:
REMARK  status: ('A' for Active; 'I' for Inactive)
REMARK    1  A    between atoms: N_4  and  C_13
REMARK    2  A    between atoms: N_5  and  C_14
REMARK    3  A    between atoms: C_13  and  C_15
REMARK                            x       y       z     vdW  Elec       q    Type
REMARK                         _______ _______ _______ _____ _____    ______ ____
ROOT
ATOM      2  O   UNL     1      -5.898   1.541  25.784  0.00  0.00    -0.252 OA
ATOM      3  N   UNL     1      -3.782   1.892  24.829  0.00  0.00    -0.278 N 
ATOM      4  N   UNL     1      -1.006   1.656  24.437  0.00  0.00    -0.293 NA
ATOM      5  N   UNL     1      -5.105   3.675  25.169  0.00  0.00    -0.287 N 
ATOM      7  C   UNL     1      -3.059   2.999  24.238  0.00  0.00    +0.109 C 
ATOM      8  C   UNL     1      -1.599   2.984  24.691  0.00  0.00    +0.109 C 
ATOM      9  C   UNL     1      -3.854   4.228  24.677  0.00  0.00    +0.132 C 
ATOM     10  C   UNL     1      -3.214   0.561  24.767  0.00  0.00    +0.125 C 
ATOM     11  C   UNL     1      -1.738   0.603  25.171  0.00  0.00    +0.104 C 
ATOM     12  C   UNL     1      -5.038   2.275  25.316  0.00  0.00    +0.305 C 
ATOM     14  C   UNL     1      -6.203   4.518  25.588  0.00  0.00    +0.133 C 
ENDROOT
BRANCH   4  13
ATOM     13  C   UNL     1       0.408   1.648  24.811  0.00  0.00    +0.147 C 
BRANCH  13  15
ATOM      1  S   UNL     1       0.603  -0.270  22.810  0.00  0.00    -0.079 S 
ATOM      6  N   UNL     1       2.508   1.335  23.498  0.00  0.00    -0.251 NA
ATOM     15  C   UNL     1       1.264   0.998  23.757  0.00  0.00    +0.092 A 
ATOM     16  C   UNL     1       2.096  -0.393  21.975  0.00  0.00    +0.066 A 
ATOM     17  C   UNL     1       2.983   0.536  22.477  0.00  0.00    +0.119 A 
ENDBRANCH  13  15
ENDBRANCH   4  13
TORSDOF 2
ENDMDL
MODEL 6
REMARK VINA RESULT:      -2.5     15.556     17.859
REMARK  Name = 75537114
REMARK  3 active torsions:
REMARK  status: ('A' for Active; 'I' for Inactive)
REMARK    1  A    between atoms: N_4  and  C_13
REMARK    2  A    between atoms: N_5  and  C_14
REMARK    3  A    between atoms: C_13  and  C_15
REMARK                            x       y       z     vdW  Elec       q    Type
REMARK                         _______ _______ _______ _____ _____    ______ ____
ROOT
ATOM      2  O   UNL     1       0.085   4.456  23.318  0.00  0.00    -0.252 OA
ATOM      3  N   UNL     1      -0.057   2.470  24.564  0.00  0.00    -0.278 N 
ATOM      4  N   UNL     1      -0.284  -0.281  25.101  0.00  0.00    -0.293 NA
ATOM      5  N   UNL     1      -1.268   4.238  25.238  0.00  0.00    -0.287 N 
ATOM      7  C   UNL     1      -0.657   2.045  25.811  0.00  0.00    +0.109 C 
ATOM      8  C   UNL     1      -1.280   0.657  25.656  0.00  0.00    +0.109 C 
ATOM      9  C   UNL     1      -1.650   3.160  26.135  0.00  0.00    +0.132 C 
ATOM     10  C   UNL     1       0.823   1.564  23.856  0.00  0.00    +0.125 C 
ATOM     11  C   UNL     1       0.187   0.173  23.777  0.00  0.00    +0.104 C 
ATOM     12  C   UNL     1      -0.353   3.805  24.256  0.00  0.00    +0.305 C 
ATOM     14  C   UNL     1      -1.895   5.540  25.293  0.00  0.00    +0.133 C 
ENDROOT
BRANCH   4  13
ATOM     13  C   UNL     1      -0.850  -1.627  25.005  0.00  0.00    +0.147 C 
BRANCH  13  15
ATOM      1  S   UNL     1      -3.190  -3.059  24.562  0.00  0.00    -0.079 S 
ATOM      6  N   UNL     1      -2.921  -0.521  24.156  0.00  0.00    -0.251 NA
ATOM     15  C   UNL     1      -2.288  -1.600  24.558  0.00  0.00    +0.092 A 
ATOM     16  C   UNL     1      -4.550  -2.192  23.978  0.00  0.00    +0.066 A 
ATOM     17  C   UNL     1      -4.218  -0.862  23.824  0.00  0.00    +0.119 A 
ENDBRANCH  13  15
ENDBRANCH   4  13
TORSDOF 2
ENDMDL
MODEL 7
REMARK VINA RESULT:      -2.5     15.502     17.682
REMARK  Name = 75537114
REMARK  3 active torsions:
REMARK  status: ('A' for Active; 'I' for Inactive)
REMARK    1  A    between atoms: N_4  and  C_13
REMARK    2  A    between atoms: N_5  and  C_14
REMARK    3  A    between atoms: C_13  and  C_15
REMARK                            x       y       z     vdW  Elec       q    Type
REMARK                         _______ _______ _______ _____ _____    ______ ____
ROOT
ATOM      2  O   UNL     1      -0.650  -2.756  25.182  0.00  0.00    -0.252 OA
ATOM      3  N   UNL     1      -1.156  -0.666  24.237  0.00  0.00    -0.278 N 
ATOM      4  N   UNL     1      -1.153   2.124  23.882  0.00  0.00    -0.293 NA
ATOM      5  N   UNL     1      -2.825  -2.146  24.503  0.00  0.00    -0.287 N 
ATOM      7  C   UNL     1      -2.302  -0.036  23.617  0.00  0.00    +0.109 C 
ATOM      8  C   UNL     1      -2.432   1.414  24.086  0.00  0.00    +0.109 C 
ATOM      9  C   UNL     1      -3.469  -0.942  24.006  0.00  0.00    +0.132 C 
ATOM     10  C   UNL     1       0.121   0.018  24.226  0.00  0.00    +0.125 C 
ATOM     11  C   UNL     1      -0.065   1.479  24.644  0.00  0.00    +0.104 C 
ATOM     12  C   UNL     1      -1.441  -1.958  24.698  0.00  0.00    +0.305 C 
ATOM     14  C   UNL     1      -3.580  -3.320  24.882  0.00  0.00    +0.133 C 
ENDROOT
BRANCH   4  13
ATOM     13  C   UNL     1      -1.283   3.528  24.271  0.00  0.00    +0.147 C 
BRANCH  13  15
ATOM      1  S   UNL     1      -4.048   3.758  24.107  0.00  0.00    -0.079 S 
ATOM      6  N   UNL     1      -2.675   4.055  26.276  0.00  0.00    -0.251 NA
ATOM     15  C   UNL     1      -2.579   3.793  24.992  0.00  0.00    +0.092 A 
ATOM     16  C   UNL     1      -4.898   4.123  25.552  0.00  0.00    +0.066 A 
ATOM     17  C   UNL     1      -4.005   4.243  26.595  0.00  0.00    +0.119 A 
ENDBRANCH  13  15
ENDBRANCH   4  13
TORSDOF 2
ENDMDL
MODEL 8
REMARK VINA RESULT:      -2.1     24.946     26.276
REMARK  Name = 75537114
REMARK  3 active torsions:
REMARK  status: ('A' for Active; 'I' for Inactive)
REMARK    1  A    between atoms: N_4  and  C_13
REMARK    2  A    between atoms: N_5  and  C_14
REMARK    3  A    between atoms: C_13  and  C_15
REMARK                            x       y       z     vdW  Elec       q    Type
REMARK                         _______ _______ _______ _____ _____    ______ ____
ROOT
ATOM      2  O   UNL     1      10.585   8.547  23.141  0.00  0.00    -0.252 OA
ATOM      3  N   UNL     1      12.284   7.749  21.729  0.00  0.00    -0.278 N 
ATOM      4  N   UNL     1      14.267   7.775  19.735  0.00  0.00    -0.293 NA
ATOM      5  N   UNL     1      10.452   6.480  22.011  0.00  0.00    -0.287 N 
ATOM      7  C   UNL     1      12.577   6.525  21.014  0.00  0.00    +0.109 C 
ATOM      8  C   UNL     1      13.130   6.839  19.624  0.00  0.00    +0.109 C 
ATOM      9  C   UNL     1      11.247   5.774  21.020  0.00  0.00    +0.132 C 
ATOM     10  C   UNL     1      13.280   8.800  21.772  0.00  0.00    +0.125 C 
ATOM     11  C   UNL     1      13.849   9.040  20.371  0.00  0.00    +0.104 C 
ATOM     12  C   UNL     1      11.051   7.699  22.392  0.00  0.00    +0.305 C 
ATOM     14  C   UNL     1       9.140   6.022  22.411  0.00  0.00    +0.133 C 
ENDROOT
BRANCH   4  13
ATOM     13  C   UNL     1      14.843   8.035  18.415  0.00  0.00    +0.147 C 
BRANCH  13  15
ATOM      1  S   UNL     1      14.263   8.764  15.797  0.00  0.00    -0.079 S 
ATOM      6  N   UNL     1      12.511   8.545  17.684  0.00  0.00    -0.251 NA
ATOM     15  C   UNL     1      13.791   8.432  17.413  0.00  0.00    +0.092 A 
ATOM     16  C   UNL     1      12.623   9.090  15.412  0.00  0.00    +0.066 A 
ATOM     17  C   UNL     1      11.843   8.923  16.536  0.00  0.00    +0.119 A 
ENDBRANCH  13  15
ENDBRANCH   4  13
TORSDOF 2
ENDMDL
MODEL 9
REMARK VINA RESULT:      -1.9     16.529     18.219
REMARK  Name = 75537114
REMARK  3 active torsions:
REMARK  status: ('A' for Active; 'I' for Inactive)
REMARK    1  A    between atoms: N_4  and  C_13
REMARK    2  A    between atoms: N_5  and  C_14
REMARK    3  A    between atoms: C_13  and  C_15
REMARK                            x       y       z     vdW  Elec       q    Type
REMARK                         _______ _______ _______ _____ _____    ______ ____
ROOT
ATOM      2  O   UNL     1       0.244  -1.563  23.774  0.00  0.00    -0.252 OA
ATOM      3  N   UNL     1      -0.226   0.555  24.676  0.00  0.00    -0.278 N 
ATOM      4  N   UNL     1      -1.741   2.743  25.587  0.00  0.00    -0.293 NA
ATOM      5  N   UNL     1       1.402   0.390  23.138  0.00  0.00    -0.287 N 
ATOM      7  C   UNL     1       0.349   1.882  24.612  0.00  0.00    +0.109 C 
ATOM      8  C   UNL     1      -0.754   2.935  24.505  0.00  0.00    +0.109 C 
ATOM      9  C   UNL     1       1.288   1.814  23.410  0.00  0.00    +0.132 C 
ATOM     10  C   UNL     1      -1.309   0.295  25.603  0.00  0.00    +0.125 C 
ATOM     11  C   UNL     1      -2.359   1.404  25.504  0.00  0.00    +0.104 C 
ATOM     12  C   UNL     1       0.449  -0.359  23.857  0.00  0.00    +0.305 C 
ATOM     14  C   UNL     1       2.298  -0.128  22.127  0.00  0.00    +0.133 C 
ENDROOT
BRANCH   4  13
ATOM     13  C   UNL     1      -2.768   3.782  25.530  0.00  0.00    +0.147 C 
BRANCH  13  15
ATOM      1  S   UNL     1      -4.632   2.337  24.061  0.00  0.00    -0.079 S 
ATOM      6  N   UNL     1      -5.049   3.298  26.423  0.00  0.00    -0.251 NA
ATOM     15  C   UNL     1      -4.155   3.198  25.465  0.00  0.00    +0.092 A 
ATOM     16  C   UNL     1      -6.167   2.066  24.778  0.00  0.00    +0.066 A 
ATOM     17  C   UNL     1      -6.202   2.649  26.027  0.00  0.00    +0.119 A 
ENDBRANCH  13  15
ENDBRANCH   4  13
TORSDOF 2
ENDMDL
MODEL 10
REMARK VINA RESULT:      -1.9     16.759     17.738
REMARK  Name = 75537114
REMARK  3 active torsions:
REMARK  status: ('A' for Active; 'I' for Inactive)
REMARK    1  A    between atoms: N_4  and  C_13
REMARK    2  A    between atoms: N_5  and  C_14
REMARK    3  A    between atoms: C_13  and  C_15
REMARK                            x       y       z     vdW  Elec       q    Type
REMARK                         _______ _______ _______ _____ _____    ______ ____
ROOT
ATOM      2  O   UNL     1      -4.205   3.906  24.005  0.00  0.00    -0.252 OA
ATOM      3  N   UNL     1      -2.741   2.161  24.580  0.00  0.00    -0.278 N 
ATOM      4  N   UNL     1      -0.603   0.347  24.356  0.00  0.00    -0.293 NA
ATOM      5  N   UNL     1      -4.941   1.858  24.914  0.00  0.00    -0.287 N 
ATOM      7  C   UNL     1      -2.833   0.881  25.250  0.00  0.00    +0.109 C 
ATOM      8  C   UNL     1      -1.979  -0.161  24.527  0.00  0.00    +0.109 C 
ATOM      9  C   UNL     1      -4.332   0.585  25.262  0.00  0.00    +0.132 C 
ATOM     10  C   UNL     1      -1.437   2.685  24.229  0.00  0.00    +0.125 C 
ATOM     11  C   UNL     1      -0.596   1.593  23.563  0.00  0.00    +0.104 C 
ATOM     12  C   UNL     1      -3.988   2.786  24.447  0.00  0.00    +0.305 C 
ATOM     14  C   UNL     1      -6.375   2.049  24.919  0.00  0.00    +0.133 C 
ENDROOT
BRANCH   4  13
ATOM     13  C   UNL     1       0.238  -0.666  23.719  0.00  0.00    +0.147 C 
BRANCH  13  15
ATOM      1  S   UNL     1       1.996  -0.535  21.571  0.00  0.00    -0.079 S 
ATOM      6  N   UNL     1       2.260   0.797  23.770  0.00  0.00    -0.251 NA
ATOM     15  C   UNL     1       1.496  -0.071  23.145  0.00  0.00    +0.092 A 
ATOM     16  C   UNL     1       3.351   0.507  21.720  0.00  0.00    +0.066 A 
ATOM     17  C   UNL     1       3.323   1.127  22.951  0.00  0.00    +0.119 A 
ENDBRANCH  13  15
ENDBRANCH   4  13
TORSDOF 2
ENDMDL
