MODEL 1
REMARK VINA RESULT:      -6.2      0.000      0.000
REMARK  Name = 26743012
REMARK  10 active torsions:
REMARK  status: ('A' for Active; 'I' for Inactive)
REMARK    1  A    between atoms: O_3  and  C_21
REMARK    2  A    between atoms: O_3  and  C_27
REMARK    3  A    between atoms: N_5  and  C_17
REMARK    4  A    between atoms: N_5  and  C_19
REMARK    5  A    between atoms: C_7  and  C_11
REMARK    6  A    between atoms: C_8  and  C_13
REMARK    7  A    between atoms: C_11  and  C_15
REMARK    8  A    between atoms: C_13  and  C_14
REMARK    9  A    between atoms: C_17  and  C_20
REMARK   10  A    between atoms: C_18  and  C_21
REMARK                            x       y       z     vdW  Elec       q    Type
REMARK                         _______ _______ _______ _____ _____    ______ ____
ROOT
ATOM      4  N   UNL     1      -0.121   5.015  24.729  0.00  0.00    -0.316 NA
ATOM      7  C   UNL     1      -2.554   3.494  25.415  0.00  0.00    +0.004 C 
ATOM      8  C   UNL     1      -1.185   2.816  25.176  0.00  0.00    +0.012 C 
ATOM      9  C   UNL     1      -2.324   4.954  25.842  0.00  0.00    +0.019 C 
ATOM     10  C   UNL     1      -0.294   3.648  24.237  0.00  0.00    +0.085 C 
ATOM     12  C   UNL     1      -1.400   5.704  24.885  0.00  0.00    +0.081 C 
ATOM     28  H   UNL     1       0.467   5.536  24.078  0.00  0.00    +0.122 HD
ENDROOT
BRANCH   7  11
ATOM     11  C   UNL     1      -3.504   3.421  24.212  0.00  0.00    +0.100 C 
BRANCH  11  15
ATOM      1  O   UNL     1      -3.457   1.357  22.995  0.00  0.00    -0.276 OA
ATOM      5  N   UNL     1      -4.963   1.498  24.754  0.00  0.00    -0.300 N 
ATOM     15  C   UNL     1      -3.960   2.001  23.919  0.00  0.00    +0.216 C 
ATOM     19  C   UNL     1      -5.542   2.279  25.840  0.00  0.00    +0.132 C 
BRANCH   5  17
ATOM     17  C   UNL     1      -5.506   0.150  24.600  0.00  0.00    +0.142 C 
BRANCH  17  20
ATOM     20  C   UNL     1      -4.439  -0.900  24.711  0.00  0.00    -0.030 A 
ATOM     22  C   UNL     1      -4.356  -1.914  23.756  0.00  0.00    +0.005 A 
ATOM     23  C   UNL     1      -3.532  -0.864  25.770  0.00  0.00    +0.005 A 
ATOM     24  C   UNL     1      -3.365  -2.890  23.859  0.00  0.00    +0.000 A 
ATOM     25  C   UNL     1      -2.541  -1.841  25.874  0.00  0.00    +0.000 A 
ATOM     26  C   UNL     1      -2.458  -2.854  24.918  0.00  0.00    +0.000 A 
ENDBRANCH  17  20
ENDBRANCH   5  17
ENDBRANCH  11  15
ENDBRANCH   7  11
BRANCH   8  13
ATOM     13  C   UNL     1      -1.307   1.380  24.667  0.00  0.00    +0.064 C 
BRANCH  13  14
ATOM      2  O   UNL     1       1.257  -0.326  22.803  0.00  0.00    -0.357 OA
ATOM      6  N   UNL     1      -0.032  -0.225  23.311  0.00  0.00    -0.083 NA
ATOM     14  C   UNL     1      -0.050   0.935  23.976  0.00  0.00    +0.084 A 
ATOM     16  C   UNL     1       1.186   1.601  23.922  0.00  0.00    +0.073 A 
ATOM     18  C   UNL     1       1.972   0.766  23.173  0.00  0.00    +0.163 A 
BRANCH  18  21
ATOM     21  C   UNL     1       3.367   0.822  22.717  0.00  0.00    +0.236 C 
BRANCH  21   3
ATOM      3  O   UNL     1       4.097  -0.301  23.215  0.00  0.00    -0.375 OA
ATOM     27  C   UNL     1       5.376   0.089  23.692  0.00  0.00    +0.194 C 
ENDBRANCH  21   3
ENDBRANCH  18  21
ENDBRANCH  13  14
ENDBRANCH   8  13
TORSDOF 8
ENDMDL
MODEL 2
REMARK VINA RESULT:      -5.7      1.454      4.786
REMARK  Name = 26743012
REMARK  10 active torsions:
REMARK  status: ('A' for Active; 'I' for Inactive)
REMARK    1  A    between atoms: O_3  and  C_21
REMARK    2  A    between atoms: O_3  and  C_27
REMARK    3  A    between atoms: N_5  and  C_17
REMARK    4  A    between atoms: N_5  and  C_19
REMARK    5  A    between atoms: C_7  and  C_11
REMARK    6  A    between atoms: C_8  and  C_13
REMARK    7  A    between atoms: C_11  and  C_15
REMARK    8  A    between atoms: C_13  and  C_14
REMARK    9  A    between atoms: C_17  and  C_20
REMARK   10  A    between atoms: C_18  and  C_21
REMARK                            x       y       z     vdW  Elec       q    Type
REMARK                         _______ _______ _______ _____ _____    ______ ____
ROOT
ATOM      4  N   UNL     1      -2.585  -3.172  25.192  0.00  0.00    -0.316 NA
ATOM      7  C   UNL     1      -3.626  -0.846  23.705  0.00  0.00    +0.004 C 
ATOM      8  C   UNL     1      -2.193  -0.894  24.284  0.00  0.00    +0.012 C 
ATOM      9  C   UNL     1      -4.124  -2.283  23.477  0.00  0.00    +0.019 C 
ATOM     10  C   UNL     1      -2.104  -1.826  25.504  0.00  0.00    +0.085 C 
ATOM     12  C   UNL     1      -3.968  -3.159  24.719  0.00  0.00    +0.081 C 
ATOM     28  H   UNL     1      -2.519  -3.756  26.025  0.00  0.00    +0.122 HD
ENDROOT
BRANCH   7  11
ATOM     11  C   UNL     1      -4.620  -0.054  24.564  0.00  0.00    +0.100 C 
BRANCH  11  15
ATOM      1  O   UNL     1      -3.768   1.917  23.498  0.00  0.00    -0.276 OA
ATOM      5  N   UNL     1      -5.083   2.234  25.383  0.00  0.00    -0.300 N 
ATOM     15  C   UNL     1      -4.442   1.449  24.420  0.00  0.00    +0.216 C 
ATOM     19  C   UNL     1      -5.875   1.658  26.463  0.00  0.00    +0.132 C 
BRANCH   5  17
ATOM     17  C   UNL     1      -5.007   3.694  25.379  0.00  0.00    +0.142 C 
BRANCH  17  20
ATOM     20  C   UNL     1      -3.591   4.181  25.273  0.00  0.00    -0.030 A 
ATOM     22  C   UNL     1      -3.262   5.172  24.347  0.00  0.00    +0.005 A 
ATOM     23  C   UNL     1      -2.603   3.643  26.098  0.00  0.00    +0.005 A 
ATOM     24  C   UNL     1      -1.945   5.624  24.248  0.00  0.00    +0.000 A 
ATOM     25  C   UNL     1      -1.287   4.094  25.998  0.00  0.00    +0.000 A 
ATOM     26  C   UNL     1      -0.959   5.086  25.073  0.00  0.00    +0.000 A 
ENDBRANCH  17  20
ENDBRANCH   5  17
ENDBRANCH  11  15
ENDBRANCH   7  11
BRANCH   8  13
ATOM     13  C   UNL     1      -1.636   0.489  24.623  0.00  0.00    +0.064 C 
BRANCH  13  14
ATOM      2  O   UNL     1       1.650   1.632  23.701  0.00  0.00    -0.357 OA
ATOM      6  N   UNL     1       0.428   1.792  24.340  0.00  0.00    -0.083 NA
ATOM     14  C   UNL     1      -0.248   0.669  24.079  0.00  0.00    +0.084 A 
ATOM     16  C   UNL     1       0.490  -0.227  23.288  0.00  0.00    +0.073 A 
ATOM     18  C   UNL     1       1.676   0.427  23.077  0.00  0.00    +0.163 A 
BRANCH  18  21
ATOM     21  C   UNL     1       2.905   0.092  22.347  0.00  0.00    +0.236 C 
BRANCH  21   3
ATOM      3  O   UNL     1       3.969   0.960  22.743  0.00  0.00    -0.375 OA
ATOM     27  C   UNL     1       5.029   0.233  23.343  0.00  0.00    +0.194 C 
ENDBRANCH  21   3
ENDBRANCH  18  21
ENDBRANCH  13  14
ENDBRANCH   8  13
TORSDOF 8
ENDMDL
MODEL 3
REMARK VINA RESULT:      -4.6      1.953      6.946
REMARK  Name = 26743012
REMARK  10 active torsions:
REMARK  status: ('A' for Active; 'I' for Inactive)
REMARK    1  A    between atoms: O_3  and  C_21
REMARK    2  A    between atoms: O_3  and  C_27
REMARK    3  A    between atoms: N_5  and  C_17
REMARK    4  A    between atoms: N_5  and  C_19
REMARK    5  A    between atoms: C_7  and  C_11
REMARK    6  A    between atoms: C_8  and  C_13
REMARK    7  A    between atoms: C_11  and  C_15
REMARK    8  A    between atoms: C_13  and  C_14
REMARK    9  A    between atoms: C_17  and  C_20
REMARK   10  A    between atoms: C_18  and  C_21
REMARK                            x       y       z     vdW  Elec       q    Type
REMARK                         _______ _______ _______ _____ _____    ______ ____
ROOT
ATOM      4  N   UNL     1      -3.580  -3.032  24.769  0.00  0.00    -0.316 NA
ATOM      7  C   UNL     1      -1.969  -0.562  24.800  0.00  0.00    +0.004 C 
ATOM      8  C   UNL     1      -3.496  -0.560  24.554  0.00  0.00    +0.012 C 
ATOM      9  C   UNL     1      -1.588  -1.825  25.590  0.00  0.00    +0.019 C 
ATOM     10  C   UNL     1      -3.974  -1.889  23.946  0.00  0.00    +0.085 C 
ATOM     12  C   UNL     1      -2.132  -3.100  24.948  0.00  0.00    +0.081 C 
ATOM     28  H   UNL     1      -3.907  -3.893  24.330  0.00  0.00    +0.122 HD
ENDROOT
BRANCH   7  11
ATOM     11  C   UNL     1      -1.131  -0.445  23.521  0.00  0.00    +0.100 C 
BRANCH  11  15
ATOM      1  O   UNL     1       0.114   1.278  24.628  0.00  0.00    -0.276 OA
ATOM      5  N   UNL     1       1.084   0.336  22.743  0.00  0.00    -0.300 N 
ATOM     15  C   UNL     1       0.068   0.472  23.694  0.00  0.00    +0.216 C 
ATOM     19  C   UNL     1       1.008  -0.624  21.649  0.00  0.00    +0.132 C 
BRANCH   5  17
ATOM     17  C   UNL     1       2.301   1.146  22.775  0.00  0.00    +0.142 C 
BRANCH  17  20
ATOM     20  C   UNL     1       3.500   0.341  23.185  0.00  0.00    -0.030 A 
ATOM     22  C   UNL     1       3.350  -0.996  23.553  0.00  0.00    +0.005 A 
ATOM     23  C   UNL     1       4.765   0.930  23.200  0.00  0.00    +0.005 A 
ATOM     24  C   UNL     1       4.464  -1.745  23.935  0.00  0.00    +0.000 A 
ATOM     25  C   UNL     1       5.878   0.182  23.582  0.00  0.00    +0.000 A 
ATOM     26  C   UNL     1       5.727  -1.155  23.949  0.00  0.00    +0.000 A 
ENDBRANCH  17  20
ENDBRANCH   5  17
ENDBRANCH  11  15
ENDBRANCH   7  11
BRANCH   8  13
ATOM     13  C   UNL     1      -3.965   0.620  23.703  0.00  0.00    +0.064 C 
BRANCH  13  14
ATOM      2  O   UNL     1      -4.581   3.562  25.682  0.00  0.00    -0.357 OA
ATOM      6  N   UNL     1      -4.988   2.378  25.081  0.00  0.00    -0.083 NA
ATOM     14  C   UNL     1      -3.897   1.910  24.468  0.00  0.00    +0.084 A 
ATOM     16  C   UNL     1      -2.783   2.748  24.645  0.00  0.00    +0.073 A 
ATOM     18  C   UNL     1      -3.267   3.772  25.415  0.00  0.00    +0.163 A 
BRANCH  18  21
ATOM     21  C   UNL     1      -2.669   4.990  25.979  0.00  0.00    +0.236 C 
BRANCH  21   3
ATOM      3  O   UNL     1      -1.773   5.584  25.037  0.00  0.00    -0.375 OA
ATOM     27  C   UNL     1      -0.575   4.834  24.924  0.00  0.00    +0.194 C 
ENDBRANCH  21   3
ENDBRANCH  18  21
ENDBRANCH  13  14
ENDBRANCH   8  13
TORSDOF 8
ENDMDL
MODEL 4
REMARK VINA RESULT:      -4.4     14.089     16.500
REMARK  Name = 26743012
REMARK  10 active torsions:
REMARK  status: ('A' for Active; 'I' for Inactive)
REMARK    1  A    between atoms: O_3  and  C_21
REMARK    2  A    between atoms: O_3  and  C_27
REMARK    3  A    between atoms: N_5  and  C_17
REMARK    4  A    between atoms: N_5  and  C_19
REMARK    5  A    between atoms: C_7  and  C_11
REMARK    6  A    between atoms: C_8  and  C_13
REMARK    7  A    between atoms: C_11  and  C_15
REMARK    8  A    between atoms: C_13  and  C_14
REMARK    9  A    between atoms: C_17  and  C_20
REMARK   10  A    between atoms: C_18  and  C_21
REMARK                            x       y       z     vdW  Elec       q    Type
REMARK                         _______ _______ _______ _____ _____    ______ ____
ROOT
ATOM      4  N   UNL     1      -9.329  -7.289  16.145  0.00  0.00    -0.316 NA
ATOM      7  C   UNL     1     -10.547  -9.850  15.332  0.00  0.00    +0.004 C 
ATOM      8  C   UNL     1     -10.234  -9.504  16.807  0.00  0.00    +0.012 C 
ATOM      9  C   UNL     1     -10.719  -8.546  14.536  0.00  0.00    +0.019 C 
ATOM     10  C   UNL     1      -9.073  -8.502  16.921  0.00  0.00    +0.085 C 
ATOM     12  C   UNL     1      -9.548  -7.585  14.730  0.00  0.00    +0.081 C 
ATOM     28  H   UNL     1      -8.536  -6.654  16.238  0.00  0.00    +0.122 HD
ENDROOT
BRANCH   7  11
ATOM     11  C   UNL     1      -9.505 -10.760  14.670  0.00  0.00    +0.100 C 
BRANCH  11  15
ATOM      1  O   UNL     1     -10.291 -10.625  12.410  0.00  0.00    -0.276 OA
ATOM      5  N   UNL     1      -8.078 -10.037  12.783  0.00  0.00    -0.300 N 
ATOM     15  C   UNL     1      -9.344 -10.473  13.186  0.00  0.00    +0.216 C 
ATOM     19  C   UNL     1      -6.974  -9.865  13.719  0.00  0.00    +0.132 C 
BRANCH   5  17
ATOM     17  C   UNL     1      -7.767  -9.721  11.390  0.00  0.00    +0.142 C 
BRANCH  17  20
ATOM     20  C   UNL     1      -6.287  -9.685  11.141  0.00  0.00    -0.030 A 
ATOM     22  C   UNL     1      -5.703  -8.557  10.564  0.00  0.00    +0.005 A 
ATOM     23  C   UNL     1      -5.494 -10.781  11.485  0.00  0.00    +0.005 A 
ATOM     24  C   UNL     1      -4.328  -8.524  10.332  0.00  0.00    +0.000 A 
ATOM     25  C   UNL     1      -4.120 -10.748  11.252  0.00  0.00    +0.000 A 
ATOM     26  C   UNL     1      -3.536  -9.619  10.676  0.00  0.00    +0.000 A 
ENDBRANCH  17  20
ENDBRANCH   5  17
ENDBRANCH  11  15
ENDBRANCH   7  11
BRANCH   8  13
ATOM     13  C   UNL     1      -9.964 -10.738  17.669  0.00  0.00    +0.064 C 
BRANCH  13  14
ATOM      2  O   UNL     1      -6.970 -10.707  19.667  0.00  0.00    -0.357 OA
ATOM      6  N   UNL     1      -8.352 -10.693  19.522  0.00  0.00    -0.083 NA
ATOM     14  C   UNL     1      -8.561 -10.737  18.203  0.00  0.00    +0.084 A 
ATOM     16  C   UNL     1      -7.361 -10.781  17.473  0.00  0.00    +0.073 A 
ATOM     18  C   UNL     1      -6.391 -10.759  18.441  0.00  0.00    +0.163 A 
BRANCH  18  21
ATOM     21  C   UNL     1      -4.923 -10.781  18.409  0.00  0.00    +0.236 C 
BRANCH  21   3
ATOM      3  O   UNL     1      -4.436  -9.913  17.383  0.00  0.00    -0.375 OA
ATOM     27  C   UNL     1      -3.446 -10.553  16.595  0.00  0.00    +0.194 C 
ENDBRANCH  21   3
ENDBRANCH  18  21
ENDBRANCH  13  14
ENDBRANCH   8  13
TORSDOF 8
ENDMDL
MODEL 5
REMARK VINA RESULT:      -4.3      1.611      4.615
REMARK  Name = 26743012
REMARK  10 active torsions:
REMARK  status: ('A' for Active; 'I' for Inactive)
REMARK    1  A    between atoms: O_3  and  C_21
REMARK    2  A    between atoms: O_3  and  C_27
REMARK    3  A    between atoms: N_5  and  C_17
REMARK    4  A    between atoms: N_5  and  C_19
REMARK    5  A    between atoms: C_7  and  C_11
REMARK    6  A    between atoms: C_8  and  C_13
REMARK    7  A    between atoms: C_11  and  C_15
REMARK    8  A    between atoms: C_13  and  C_14
REMARK    9  A    between atoms: C_17  and  C_20
REMARK   10  A    between atoms: C_18  and  C_21
REMARK                            x       y       z     vdW  Elec       q    Type
REMARK                         _______ _______ _______ _____ _____    ______ ____
ROOT
ATOM      4  N   UNL     1      -1.322  -0.760  26.688  0.00  0.00    -0.316 NA
ATOM      7  C   UNL     1      -2.332  -1.971  24.195  0.00  0.00    +0.004 C 
ATOM      8  C   UNL     1      -0.996  -1.195  24.266  0.00  0.00    +0.012 C 
ATOM      9  C   UNL     1      -2.672  -2.514  25.593  0.00  0.00    +0.019 C 
ATOM     10  C   UNL     1      -1.003  -0.153  25.396  0.00  0.00    +0.085 C 
ATOM     12  C   UNL     1      -2.620  -1.431  26.669  0.00  0.00    +0.081 C 
ATOM     28  H   UNL     1      -1.325  -0.038  27.409  0.00  0.00    +0.122 HD
ENDROOT
BRANCH   7  11
ATOM     11  C   UNL     1      -3.499  -1.152  23.629  0.00  0.00    +0.100 C 
BRANCH  11  15
ATOM      1  O   UNL     1      -4.420  -0.281  25.664  0.00  0.00    -0.276 OA
ATOM      5  N   UNL     1      -3.719   1.269  24.087  0.00  0.00    -0.300 N 
ATOM     15  C   UNL     1      -3.925  -0.030  24.562  0.00  0.00    +0.216 C 
ATOM     19  C   UNL     1      -3.133   1.541  22.780  0.00  0.00    +0.132 C 
BRANCH   5  17
ATOM     17  C   UNL     1      -4.076   2.453  24.866  0.00  0.00    +0.142 C 
BRANCH  17  20
ATOM     20  C   UNL     1      -2.933   3.421  24.971  0.00  0.00    -0.030 A 
ATOM     22  C   UNL     1      -1.666   2.966  25.335  0.00  0.00    +0.005 A 
ATOM     23  C   UNL     1      -3.138   4.775  24.705  0.00  0.00    +0.005 A 
ATOM     24  C   UNL     1      -0.603   3.866  25.433  0.00  0.00    +0.000 A 
ATOM     25  C   UNL     1      -2.077   5.674  24.805  0.00  0.00    +0.000 A 
ATOM     26  C   UNL     1      -0.809   5.219  25.168  0.00  0.00    +0.000 A 
ENDBRANCH  17  20
ENDBRANCH   5  17
ENDBRANCH  11  15
ENDBRANCH   7  11
BRANCH   8  13
ATOM     13  C   UNL     1      -0.609  -0.544  22.938  0.00  0.00    +0.064 C 
BRANCH  13  14
ATOM      2  O   UNL     1       2.297   1.493  23.541  0.00  0.00    -0.357 OA
ATOM      6  N   UNL     1       0.943   1.212  23.675  0.00  0.00    -0.083 NA
ATOM     14  C   UNL     1       0.759   0.070  23.006  0.00  0.00    +0.084 A 
ATOM     16  C   UNL     1       1.949  -0.412  22.434  0.00  0.00    +0.073 A 
ATOM     18  C   UNL     1       2.885   0.519  22.800  0.00  0.00    +0.163 A 
BRANCH  18  21
ATOM     21  C   UNL     1       4.327   0.660  22.558  0.00  0.00    +0.236 C 
BRANCH  21   3
ATOM      3  O   UNL     1       5.035   0.705  23.799  0.00  0.00    -0.375 OA
ATOM     27  C   UNL     1       5.427  -0.593  24.214  0.00  0.00    +0.194 C 
ENDBRANCH  21   3
ENDBRANCH  18  21
ENDBRANCH  13  14
ENDBRANCH   8  13
TORSDOF 8
ENDMDL
MODEL 6
REMARK VINA RESULT:      -3.7      1.596      5.925
REMARK  Name = 26743012
REMARK  10 active torsions:
REMARK  status: ('A' for Active; 'I' for Inactive)
REMARK    1  A    between atoms: O_3  and  C_21
REMARK    2  A    between atoms: O_3  and  C_27
REMARK    3  A    between atoms: N_5  and  C_17
REMARK    4  A    between atoms: N_5  and  C_19
REMARK    5  A    between atoms: C_7  and  C_11
REMARK    6  A    between atoms: C_8  and  C_13
REMARK    7  A    between atoms: C_11  and  C_15
REMARK    8  A    between atoms: C_13  and  C_14
REMARK    9  A    between atoms: C_17  and  C_20
REMARK   10  A    between atoms: C_18  and  C_21
REMARK                            x       y       z     vdW  Elec       q    Type
REMARK                         _______ _______ _______ _____ _____    ______ ____
ROOT
ATOM      4  N   UNL     1      -1.858   5.468  25.375  0.00  0.00    -0.316 NA
ATOM      7  C   UNL     1      -1.728   2.706  24.346  0.00  0.00    +0.004 C 
ATOM      8  C   UNL     1      -3.007   3.303  24.979  0.00  0.00    +0.012 C 
ATOM      9  C   UNL     1      -0.857   3.850  23.801  0.00  0.00    +0.019 C 
ATOM     10  C   UNL     1      -2.677   4.419  25.984  0.00  0.00    +0.085 C 
ATOM     12  C   UNL     1      -0.604   4.939  24.842  0.00  0.00    +0.081 C 
ATOM     28  H   UNL     1      -1.653   6.184  26.073  0.00  0.00    +0.122 HD
ENDROOT
BRANCH   7  11
ATOM     11  C   UNL     1      -0.922   1.811  25.297  0.00  0.00    +0.100 C 
BRANCH  11  15
ATOM      1  O   UNL     1      -0.849  -0.531  24.793  0.00  0.00    -0.276 OA
ATOM      5  N   UNL     1       0.725   0.812  23.745  0.00  0.00    -0.300 N 
ATOM     15  C   UNL     1      -0.359   0.584  24.599  0.00  0.00    +0.216 C 
ATOM     19  C   UNL     1       1.288   2.139  23.531  0.00  0.00    +0.132 C 
BRANCH   5  17
ATOM     17  C   UNL     1       1.377  -0.266  23.002  0.00  0.00    +0.142 C 
BRANCH  17  20
ATOM     20  C   UNL     1       2.864  -0.268  23.207  0.00  0.00    -0.030 A 
ATOM     22  C   UNL     1       3.491  -1.386  23.757  0.00  0.00    +0.005 A 
ATOM     23  C   UNL     1       3.620   0.849  22.848  0.00  0.00    +0.005 A 
ATOM     24  C   UNL     1       4.873  -1.388  23.948  0.00  0.00    +0.000 A 
ATOM     25  C   UNL     1       5.001   0.847  23.040  0.00  0.00    +0.000 A 
ATOM     26  C   UNL     1       5.628  -0.272  23.589  0.00  0.00    +0.000 A 
ENDBRANCH  17  20
ENDBRANCH   5  17
ENDBRANCH  11  15
ENDBRANCH   7  11
BRANCH   8  13
ATOM     13  C   UNL     1      -3.906   2.249  25.625  0.00  0.00    +0.064 C 
BRANCH  13  14
ATOM      2  O   UNL     1      -3.821  -0.266  23.050  0.00  0.00    -0.357 OA
ATOM      6  N   UNL     1      -3.688   1.043  23.494  0.00  0.00    -0.083 NA
ATOM     14  C   UNL     1      -3.957   0.993  24.802  0.00  0.00    +0.084 A 
ATOM     16  C   UNL     1      -4.264  -0.308  25.235  0.00  0.00    +0.073 A 
ATOM     18  C   UNL     1      -4.165  -1.061  24.095  0.00  0.00    +0.163 A 
BRANCH  18  21
ATOM     21  C   UNL     1      -4.349  -2.488  23.800  0.00  0.00    +0.236 C 
BRANCH  21   3
ATOM      3  O   UNL     1      -3.486  -3.278  24.622  0.00  0.00    -0.375 OA
ATOM     27  C   UNL     1      -2.124  -2.942  24.408  0.00  0.00    +0.194 C 
ENDBRANCH  21   3
ENDBRANCH  18  21
ENDBRANCH  13  14
ENDBRANCH   8  13
TORSDOF 8
ENDMDL
MODEL 7
REMARK VINA RESULT:      -3.3      2.115      6.994
REMARK  Name = 26743012
REMARK  10 active torsions:
REMARK  status: ('A' for Active; 'I' for Inactive)
REMARK    1  A    between atoms: O_3  and  C_21
REMARK    2  A    between atoms: O_3  and  C_27
REMARK    3  A    between atoms: N_5  and  C_17
REMARK    4  A    between atoms: N_5  and  C_19
REMARK    5  A    between atoms: C_7  and  C_11
REMARK    6  A    between atoms: C_8  and  C_13
REMARK    7  A    between atoms: C_11  and  C_15
REMARK    8  A    between atoms: C_13  and  C_14
REMARK    9  A    between atoms: C_17  and  C_20
REMARK   10  A    between atoms: C_18  and  C_21
REMARK                            x       y       z     vdW  Elec       q    Type
REMARK                         _______ _______ _______ _____ _____    ______ ____
ROOT
ATOM      4  N   UNL     1      -4.565  -3.034  23.958  0.00  0.00    -0.316 NA
ATOM      7  C   UNL     1      -2.343  -1.324  24.875  0.00  0.00    +0.004 C 
ATOM      8  C   UNL     1      -3.491  -0.795  23.984  0.00  0.00    +0.012 C 
ATOM      9  C   UNL     1      -2.838  -2.553  25.656  0.00  0.00    +0.019 C 
ATOM     10  C   UNL     1      -4.111  -1.915  23.131  0.00  0.00    +0.085 C 
ATOM     12  C   UNL     1      -3.476  -3.603  24.749  0.00  0.00    +0.081 C 
ATOM     28  H   UNL     1      -4.961  -3.758  23.358  0.00  0.00    +0.122 HD
ENDROOT
BRANCH   7  11
ATOM     11  C   UNL     1      -1.056  -1.649  24.105  0.00  0.00    +0.100 C 
BRANCH  11  15
ATOM      1  O   UNL     1       0.435  -0.282  22.819  0.00  0.00    -0.276 OA
ATOM      5  N   UNL     1      -0.173   0.517  24.910  0.00  0.00    -0.300 N 
ATOM     15  C   UNL     1      -0.195  -0.419  23.871  0.00  0.00    +0.216 C 
ATOM     19  C   UNL     1      -0.925   0.334  26.145  0.00  0.00    +0.132 C 
BRANCH   5  17
ATOM     17  C   UNL     1       0.608   1.751  24.835  0.00  0.00    +0.142 C 
BRANCH  17  20
ATOM     20  C   UNL     1      -0.251   2.969  25.017  0.00  0.00    -0.030 A 
ATOM     22  C   UNL     1      -0.135   4.042  24.134  0.00  0.00    +0.005 A 
ATOM     23  C   UNL     1      -1.165   3.028  26.070  0.00  0.00    +0.005 A 
ATOM     24  C   UNL     1      -0.933   5.175  24.302  0.00  0.00    +0.000 A 
ATOM     25  C   UNL     1      -1.962   4.161  26.239  0.00  0.00    +0.000 A 
ATOM     26  C   UNL     1      -1.846   5.234  25.355  0.00  0.00    +0.000 A 
ENDBRANCH  17  20
ENDBRANCH   5  17
ENDBRANCH  11  15
ENDBRANCH   7  11
BRANCH   8  13
ATOM     13  C   UNL     1      -3.074   0.381  23.102  0.00  0.00    +0.064 C 
BRANCH  13  14
ATOM      2  O   UNL     1      -4.116   3.785  23.638  0.00  0.00    -0.357 OA
ATOM      6  N   UNL     1      -3.449   2.803  22.917  0.00  0.00    -0.083 NA
ATOM     14  C   UNL     1      -3.658   1.673  23.599  0.00  0.00    +0.084 A 
ATOM     16  C   UNL     1      -4.441   1.879  24.747  0.00  0.00    +0.073 A 
ATOM     18  C   UNL     1      -4.702   3.223  24.725  0.00  0.00    +0.163 A 
BRANCH  18  21
ATOM     21  C   UNL     1      -5.456   4.127  25.604  0.00  0.00    +0.236 C 
BRANCH  21   3
ATOM      3  O   UNL     1      -6.645   3.486  26.071  0.00  0.00    -0.375 OA
ATOM     27  C   UNL     1      -6.363   2.195  26.589  0.00  0.00    +0.194 C 
ENDBRANCH  21   3
ENDBRANCH  18  21
ENDBRANCH  13  14
ENDBRANCH   8  13
TORSDOF 8
ENDMDL
MODEL 8
REMARK VINA RESULT:      -2.6     15.009     18.263
REMARK  Name = 26743012
REMARK  10 active torsions:
REMARK  status: ('A' for Active; 'I' for Inactive)
REMARK    1  A    between atoms: O_3  and  C_21
REMARK    2  A    between atoms: O_3  and  C_27
REMARK    3  A    between atoms: N_5  and  C_17
REMARK    4  A    between atoms: N_5  and  C_19
REMARK    5  A    between atoms: C_7  and  C_11
REMARK    6  A    between atoms: C_8  and  C_13
REMARK    7  A    between atoms: C_11  and  C_15
REMARK    8  A    between atoms: C_13  and  C_14
REMARK    9  A    between atoms: C_17  and  C_20
REMARK   10  A    between atoms: C_18  and  C_21
REMARK                            x       y       z     vdW  Elec       q    Type
REMARK                         _______ _______ _______ _____ _____    ______ ____
ROOT
ATOM      4  N   UNL     1      -6.265  -7.071   9.099  0.00  0.00    -0.316 NA
ATOM      7  C   UNL     1      -5.881  -9.995   9.023  0.00  0.00    +0.004 C 
ATOM      8  C   UNL     1      -7.163  -9.307   8.499  0.00  0.00    +0.012 C 
ATOM      9  C   UNL     1      -4.717  -8.991   8.976  0.00  0.00    +0.019 C 
ATOM     10  C   UNL     1      -7.418  -7.965   9.207  0.00  0.00    +0.085 C 
ATOM     12  C   UNL     1      -5.057  -7.670   9.663  0.00  0.00    +0.081 C 
ATOM     28  H   UNL     1      -6.468  -6.198   9.586  0.00  0.00    +0.122 HD
ENDROOT
BRANCH   7  11
ATOM     11  C   UNL     1      -6.026 -10.597  10.427  0.00  0.00    +0.100 C 
BRANCH  11  15
ATOM      1  O   UNL     1      -3.634 -10.571  10.586  0.00  0.00    -0.276 OA
ATOM      5  N   UNL     1      -4.812 -10.689  12.581  0.00  0.00    -0.300 N 
ATOM     15  C   UNL     1      -4.710 -10.617  11.188  0.00  0.00    +0.216 C 
ATOM     19  C   UNL     1      -6.095 -10.742  13.270  0.00  0.00    +0.132 C 
BRANCH   5  17
ATOM     17  C   UNL     1      -3.638 -10.716  13.451  0.00  0.00    +0.142 C 
BRANCH  17  20
ATOM     20  C   UNL     1      -4.015 -10.652  14.903  0.00  0.00    -0.030 A 
ATOM     22  C   UNL     1      -3.033 -10.781  15.885  0.00  0.00    +0.005 A 
ATOM     23  C   UNL     1      -5.348 -10.465  15.270  0.00  0.00    +0.005 A 
ATOM     24  C   UNL     1      -3.383 -10.722  17.234  0.00  0.00    +0.000 A 
ATOM     25  C   UNL     1      -5.698 -10.407  16.619  0.00  0.00    +0.000 A 
ATOM     26  C   UNL     1      -4.715 -10.535  17.601  0.00  0.00    +0.000 A 
ENDBRANCH  17  20
ENDBRANCH   5  17
ENDBRANCH  11  15
ENDBRANCH   7  11
BRANCH   8  13
ATOM     13  C   UNL     1      -8.400 -10.200   8.581  0.00  0.00    +0.064 C 
BRANCH  13  14
ATOM      2  O   UNL     1     -10.715  -8.838  10.978  0.00  0.00    -0.357 OA
ATOM      6  N   UNL     1     -10.125  -8.872   9.721  0.00  0.00    -0.083 NA
ATOM     14  C   UNL     1      -9.237  -9.869   9.783  0.00  0.00    +0.084 A 
ATOM     16  C   UNL     1      -9.223 -10.493  11.042  0.00  0.00    +0.073 A 
ATOM     18  C   UNL     1     -10.170  -9.807  11.755  0.00  0.00    +0.163 A 
BRANCH  18  21
ATOM     21  C   UNL     1     -10.683  -9.913  13.128  0.00  0.00    +0.236 C 
BRANCH  21   3
ATOM      3  O   UNL     1     -10.061  -8.936  13.966  0.00  0.00    -0.375 OA
ATOM     27  C   UNL     1      -9.279  -9.551  14.977  0.00  0.00    +0.194 C 
ENDBRANCH  21   3
ENDBRANCH  18  21
ENDBRANCH  13  14
ENDBRANCH   8  13
TORSDOF 8
ENDMDL
MODEL 9
REMARK VINA RESULT:      -2.4      2.364      5.328
REMARK  Name = 26743012
REMARK  10 active torsions:
REMARK  status: ('A' for Active; 'I' for Inactive)
REMARK    1  A    between atoms: O_3  and  C_21
REMARK    2  A    between atoms: O_3  and  C_27
REMARK    3  A    between atoms: N_5  and  C_17
REMARK    4  A    between atoms: N_5  and  C_19
REMARK    5  A    between atoms: C_7  and  C_11
REMARK    6  A    between atoms: C_8  and  C_13
REMARK    7  A    between atoms: C_11  and  C_15
REMARK    8  A    between atoms: C_13  and  C_14
REMARK    9  A    between atoms: C_17  and  C_20
REMARK   10  A    between atoms: C_18  and  C_21
REMARK                            x       y       z     vdW  Elec       q    Type
REMARK                         _______ _______ _______ _____ _____    ______ ____
ROOT
ATOM      4  N   UNL     1      -6.389   3.047  25.369  0.00  0.00    -0.316 NA
ATOM      7  C   UNL     1      -3.712   4.049  24.638  0.00  0.00    +0.004 C 
ATOM      8  C   UNL     1      -4.390   2.866  23.907  0.00  0.00    +0.012 C 
ATOM      9  C   UNL     1      -4.797   4.933  25.277  0.00  0.00    +0.019 C 
ATOM     10  C   UNL     1      -5.389   2.133  24.818  0.00  0.00    +0.085 C 
ATOM     12  C   UNL     1      -5.774   4.130  26.133  0.00  0.00    +0.081 C 
ATOM     28  H   UNL     1      -7.027   2.527  25.972  0.00  0.00    +0.122 HD
ENDROOT
BRANCH   7  11
ATOM     11  C   UNL     1      -2.671   3.623  25.682  0.00  0.00    +0.100 C 
BRANCH  11  15
ATOM      1  O   UNL     1      -0.854   4.711  24.559  0.00  0.00    -0.276 OA
ATOM      5  N   UNL     1      -0.453   2.574  25.370  0.00  0.00    -0.300 N 
ATOM     15  C   UNL     1      -1.251   3.701  25.148  0.00  0.00    +0.216 C 
ATOM     19  C   UNL     1      -0.944   1.393  26.068  0.00  0.00    +0.132 C 
BRANCH   5  17
ATOM     17  C   UNL     1       0.935   2.496  24.917  0.00  0.00    +0.142 C 
BRANCH  17  20
ATOM     20  C   UNL     1       1.130   1.419  23.890  0.00  0.00    -0.030 A 
ATOM     22  C   UNL     1       2.387   1.219  23.319  0.00  0.00    +0.005 A 
ATOM     23  C   UNL     1       0.054   0.619  23.505  0.00  0.00    +0.005 A 
ATOM     24  C   UNL     1       2.568   0.218  22.363  0.00  0.00    +0.000 A 
ATOM     25  C   UNL     1       0.235  -0.381  22.549  0.00  0.00    +0.000 A 
ATOM     26  C   UNL     1       1.492  -0.581  21.979  0.00  0.00    +0.000 A 
ENDBRANCH  17  20
ENDBRANCH   5  17
ENDBRANCH  11  15
ENDBRANCH   7  11
BRANCH   8  13
ATOM     13  C   UNL     1      -3.389   1.881  23.305  0.00  0.00    +0.064 C 
BRANCH  13  14
ATOM      2  O   UNL     1      -3.725  -0.958  25.492  0.00  0.00    -0.357 OA
ATOM      6  N   UNL     1      -3.631   0.407  25.256  0.00  0.00    -0.083 NA
ATOM     14  C   UNL     1      -3.514   0.521  23.930  0.00  0.00    +0.084 A 
ATOM     16  C   UNL     1      -3.528  -0.726  23.283  0.00  0.00    +0.073 A 
ATOM     18  C   UNL     1      -3.662  -1.623  24.310  0.00  0.00    +0.163 A 
BRANCH  18  21
ATOM     21  C   UNL     1      -3.748  -3.088  24.376  0.00  0.00    +0.236 C 
BRANCH  21   3
ATOM      3  O   UNL     1      -2.470  -3.671  24.115  0.00  0.00    -0.375 OA
ATOM     27  C   UNL     1      -1.420  -2.828  24.562  0.00  0.00    +0.194 C 
ENDBRANCH  21   3
ENDBRANCH  18  21
ENDBRANCH  13  14
ENDBRANCH   8  13
TORSDOF 8
ENDMDL
