MODEL 1
REMARK VINA RESULT:      -2.8      0.000      0.000
REMARK  Name = 9424537
REMARK  3 active torsions:
REMARK  status: ('A' for Active; 'I' for Inactive)
REMARK    1  A    between atoms: N_4  and  C_13
REMARK    2  A    between atoms: C_13  and  C_18
REMARK    3  A    between atoms: C_14  and  C_19
REMARK                            x       y       z     vdW  Elec       q    Type
REMARK                         _______ _______ _______ _____ _____    ______ ____
ROOT
ATOM      3  O   UNL     1      -3.167   4.634  24.556  0.00  0.00    -0.268 OA
ATOM      4  N   UNL     1       0.396   1.287  23.577  0.00  0.00    -0.297 NA
ATOM      5  N   UNL     1      -2.168   2.556  24.966  0.00  0.00    -0.311 N 
ATOM      6  C   UNL     1       0.239   2.363  25.829  0.00  0.00    +0.024 C 
ATOM      7  C   UNL     1      -1.059   0.339  25.377  0.00  0.00    +0.051 C 
ATOM      8  C   UNL     1      -0.248   1.063  26.447  0.00  0.00    +0.017 C 
ATOM      9  C   UNL     1       1.109   2.074  24.589  0.00  0.00    +0.090 C 
ATOM     10  C   UNL     1      -0.157   0.054  24.153  0.00  0.00    +0.094 C 
ATOM     11  C   UNL     1      -0.977   3.231  25.501  0.00  0.00    +0.130 C 
ATOM     12  C   UNL     1      -2.291   1.152  24.967  0.00  0.00    +0.034 A 
ATOM     14  C   UNL     1      -3.463   0.575  24.596  0.00  0.00    +0.005 A 
ATOM     15  C   UNL     1      -3.215   3.404  24.563  0.00  0.00    +0.252 A 
ATOM     16  C   UNL     1      -4.563   1.417  24.168  0.00  0.00    +0.015 A 
ATOM     17  C   UNL     1      -4.469   2.747  24.131  0.00  0.00    +0.071 A 
ENDROOT
BRANCH  14  19
ATOM      1  F   UNL     1      -2.849  -1.032  26.837  0.00  0.00    -0.205 F 
ATOM     19  C   UNL     1      -3.643  -0.893  24.600  0.00  0.00    +0.019 A 
ATOM     22  C   UNL     1      -3.322  -1.632  25.735  0.00  0.00    +0.131 A 
ATOM     23  C   UNL     1      -4.134  -1.527  23.462  0.00  0.00    +0.011 A 
ATOM     26  C   UNL     1      -3.495  -3.016  25.733  0.00  0.00    +0.039 A 
ATOM     27  C   UNL     1      -4.307  -2.910  23.459  0.00  0.00    +0.001 A 
ATOM     29  C   UNL     1      -3.987  -3.655  24.594  0.00  0.00    +0.003 A 
ENDBRANCH  14  19
BRANCH   4  13
ATOM     13  C   UNL     1       1.263   0.990  22.438  0.00  0.00    +0.119 C 
BRANCH  13  18
ATOM      2  F   UNL     1       6.203  -1.078  24.139  0.00  0.00    -0.205 F 
ATOM     18  C   UNL     1       2.584   0.436  22.894  0.00  0.00    -0.033 A 
ATOM     20  C   UNL     1       2.656  -0.870  23.360  0.00  0.00    +0.008 A 
ATOM     21  C   UNL     1       3.716   1.239  22.842  0.00  0.00    +0.008 A 
ATOM     24  C   UNL     1       3.882  -1.382  23.782  0.00  0.00    +0.038 A 
ATOM     25  C   UNL     1       4.942   0.726  23.265  0.00  0.00    +0.038 A 
ATOM     28  C   UNL     1       5.026  -0.585  23.735  0.00  0.00    +0.123 A 
ENDBRANCH  13  18
ENDBRANCH   4  13
TORSDOF 3
ENDMDL
