MODEL 1
REMARK VINA RESULT:       8.6      0.000      0.000
REMARK  Name = 75536998
REMARK  3 active torsions:
REMARK  status: ('A' for Active; 'I' for Inactive)
REMARK    1  A    between atoms: N_5  and  C_14
REMARK    2  A    between atoms: N_7  and  C_19
REMARK    3  A    between atoms: C_14  and  C_16
REMARK                            x       y       z     vdW  Elec       q    Type
REMARK                         _______ _______ _______ _____ _____    ______ ____
ROOT
ATOM      2  O   UNL     1      -3.982   2.627  22.539  0.00  0.00    -0.252 OA
ATOM      3  O   UNL     1       2.040  -0.594  21.475  0.00  0.00    -0.252 OA
ATOM      4  N   UNL     1      -1.710   2.077  22.784  0.00  0.00    -0.278 N 
ATOM      5  N   UNL     1      -2.635   3.480  24.277  0.00  0.00    -0.279 N 
ATOM      6  N   UNL     1       0.555   0.470  22.890  0.00  0.00    -0.282 N 
ATOM      7  N   UNL     1       2.879   0.650  23.244  0.00  0.00    -0.269 N 
ATOM      8  C   UNL     1      -0.603   2.500  23.626  0.00  0.00    +0.112 C 
ATOM      9  C   UNL     1      -1.280   3.268  24.757  0.00  0.00    +0.133 C 
ATOM     10  C   UNL     1       0.208   1.287  24.070  0.00  0.00    +0.133 C 
ATOM     11  C   UNL     1      -1.473   1.169  21.675  0.00  0.00    +0.128 C 
ATOM     12  C   UNL     1      -0.612  -0.008  22.133  0.00  0.00    +0.128 C 
ATOM     13  C   UNL     1      -2.910   2.719  23.123  0.00  0.00    +0.306 C 
ATOM     15  C   UNL     1       1.853   0.114  22.467  0.00  0.00    +0.307 C 
ATOM     28  H   UNL     1       2.711   1.533  23.714  0.00  0.00    +0.156 HD
ENDROOT
BRANCH   7  19
ATOM     19  C   UNL     1       4.156   0.085  23.489  0.00  0.00    +0.035 A 
ATOM     23  C   UNL     1       4.267  -1.263  23.830  0.00  0.00    +0.023 A 
ATOM     24  C   UNL     1       5.299   0.876  23.389  0.00  0.00    +0.023 A 
ATOM     25  C   UNL     1       5.523  -1.820  24.072  0.00  0.00    +0.002 A 
ATOM     26  C   UNL     1       6.556   0.318  23.629  0.00  0.00    +0.002 A 
ATOM     27  C   UNL     1       6.668  -1.029  23.971  0.00  0.00    +0.000 A 
ENDBRANCH   7  19
BRANCH   5  14
ATOM     14  C   UNL     1      -3.592   4.275  25.013  0.00  0.00    +0.144 C 
BRANCH  14  16
ATOM      1  F   UNL     1      -7.668   1.111  27.268  0.00  0.00    -0.205 F 
ATOM     16  C   UNL     1      -4.680   3.431  25.614  0.00  0.00    -0.030 A 
ATOM     17  C   UNL     1      -5.879   4.020  26.012  0.00  0.00    +0.008 A 
ATOM     18  C   UNL     1      -4.489   2.059  25.775  0.00  0.00    +0.008 A 
ATOM     20  C   UNL     1      -6.889   3.236  26.571  0.00  0.00    +0.038 A 
ATOM     21  C   UNL     1      -5.498   1.275  26.333  0.00  0.00    +0.038 A 
ATOM     22  C   UNL     1      -6.699   1.864  26.731  0.00  0.00    +0.123 A 
ENDBRANCH  14  16
ENDBRANCH   5  14
TORSDOF 3
ENDMDL
MODEL 2
REMARK VINA RESULT:       9.5      2.672      3.178
REMARK  Name = 75536998
REMARK  3 active torsions:
REMARK  status: ('A' for Active; 'I' for Inactive)
REMARK    1  A    between atoms: N_5  and  C_14
REMARK    2  A    between atoms: N_7  and  C_19
REMARK    3  A    between atoms: C_14  and  C_16
REMARK                            x       y       z     vdW  Elec       q    Type
REMARK                         _______ _______ _______ _____ _____    ______ ____
ROOT
ATOM      2  O   UNL     1      -4.592  -2.234  24.913  0.00  0.00    -0.252 OA
ATOM      3  O   UNL     1       2.297  -2.755  24.697  0.00  0.00    -0.252 OA
ATOM      4  N   UNL     1      -2.363  -1.709  24.383  0.00  0.00    -0.278 N 
ATOM      5  N   UNL     1      -3.960  -0.206  23.890  0.00  0.00    -0.279 N 
ATOM      6  N   UNL     1       0.382  -1.463  24.742  0.00  0.00    -0.282 N 
ATOM      7  N   UNL     1       2.293  -0.724  23.578  0.00  0.00    -0.269 N 
ATOM      8  C   UNL     1      -1.666  -0.653  23.668  0.00  0.00    +0.112 C 
ATOM      9  C   UNL     1      -2.713   0.450  23.539  0.00  0.00    +0.133 C 
ATOM     10  C   UNL     1      -0.405  -0.253  24.426  0.00  0.00    +0.133 C 
ATOM     11  C   UNL     1      -1.634  -2.879  24.842  0.00  0.00    +0.128 C 
ATOM     12  C   UNL     1      -0.348  -2.453  25.549  0.00  0.00    +0.128 C 
ATOM     13  C   UNL     1      -3.746  -1.481  24.451  0.00  0.00    +0.306 C 
ATOM     15  C   UNL     1       1.717  -1.719  24.366  0.00  0.00    +0.307 C 
ATOM     28  H   UNL     1       1.684  -0.171  22.984  0.00  0.00    +0.156 HD
ENDROOT
BRANCH   7  19
ATOM     19  C   UNL     1       3.662  -0.358  23.522  0.00  0.00    +0.035 A 
ATOM     23  C   UNL     1       4.641  -1.255  23.947  0.00  0.00    +0.023 A 
ATOM     24  C   UNL     1       4.029   0.898  23.041  0.00  0.00    +0.023 A 
ATOM     25  C   UNL     1       5.988  -0.896  23.893  0.00  0.00    +0.002 A 
ATOM     26  C   UNL     1       5.376   1.257  22.985  0.00  0.00    +0.002 A 
ATOM     27  C   UNL     1       6.355   0.361  23.411  0.00  0.00    +0.000 A 
ENDBRANCH   7  19
BRANCH   5  14
ATOM     14  C   UNL     1      -5.235   0.469  23.790  0.00  0.00    +0.144 C 
BRANCH  14  16
ATOM      1  F   UNL     1      -5.142   5.525  26.268  0.00  0.00    -0.205 F 
ATOM     16  C   UNL     1      -5.210   1.818  24.451  0.00  0.00    -0.030 A 
ATOM     17  C   UNL     1      -6.010   2.061  25.567  0.00  0.00    +0.008 A 
ATOM     18  C   UNL     1      -4.388   2.825  23.948  0.00  0.00    +0.008 A 
ATOM     20  C   UNL     1      -5.987   3.314  26.180  0.00  0.00    +0.038 A 
ATOM     21  C   UNL     1      -4.364   4.078  24.562  0.00  0.00    +0.038 A 
ATOM     22  C   UNL     1      -5.164   4.322  25.679  0.00  0.00    +0.123 A 
ENDBRANCH  14  16
ENDBRANCH   5  14
TORSDOF 3
ENDMDL
MODEL 3
REMARK VINA RESULT:       9.8      1.570      2.175
REMARK  Name = 75536998
REMARK  3 active torsions:
REMARK  status: ('A' for Active; 'I' for Inactive)
REMARK    1  A    between atoms: N_5  and  C_14
REMARK    2  A    between atoms: N_7  and  C_19
REMARK    3  A    between atoms: C_14  and  C_16
REMARK                            x       y       z     vdW  Elec       q    Type
REMARK                         _______ _______ _______ _____ _____    ______ ____
ROOT
ATOM      2  O   UNL     1      -3.844   0.713  22.744  0.00  0.00    -0.252 OA
ATOM      3  O   UNL     1       2.873   0.077  21.244  0.00  0.00    -0.252 OA
ATOM      4  N   UNL     1      -1.518   0.635  23.067  0.00  0.00    -0.278 N 
ATOM      5  N   UNL     1      -2.845   0.699  24.880  0.00  0.00    -0.279 N 
ATOM      6  N   UNL     1       1.107  -0.205  22.707  0.00  0.00    -0.282 N 
ATOM      7  N   UNL     1       3.272   0.245  23.523  0.00  0.00    -0.269 N 
ATOM      8  C   UNL     1      -0.601   0.735  24.191  0.00  0.00    +0.112 C 
ATOM      9  C   UNL     1      -1.501   0.555  25.410  0.00  0.00    +0.133 C 
ATOM     10  C   UNL     1       0.508  -0.302  24.054  0.00  0.00    +0.133 C 
ATOM     11  C   UNL     1      -1.001   0.595  21.710  0.00  0.00    +0.128 C 
ATOM     12  C   UNL     1       0.146  -0.411  21.613  0.00  0.00    +0.128 C 
ATOM     13  C   UNL     1      -2.860   0.690  23.470  0.00  0.00    +0.306 C 
ATOM     15  C   UNL     1       2.464   0.035  22.407  0.00  0.00    +0.307 C 
ATOM     28  H   UNL     1       2.847   0.643  24.353  0.00  0.00    +0.156 HD
ENDROOT
BRANCH   7  19
ATOM     19  C   UNL     1       4.650  -0.063  23.656  0.00  0.00    +0.035 A 
ATOM     23  C   UNL     1       5.604   0.947  23.535  0.00  0.00    +0.023 A 
ATOM     24  C   UNL     1       5.050  -1.374  23.908  0.00  0.00    +0.023 A 
ATOM     25  C   UNL     1       6.960   0.645  23.665  0.00  0.00    +0.002 A 
ATOM     26  C   UNL     1       6.406  -1.676  24.040  0.00  0.00    +0.002 A 
ATOM     27  C   UNL     1       7.361  -0.668  23.918  0.00  0.00    +0.000 A 
ENDBRANCH   7  19
BRANCH   5  14
ATOM     14  C   UNL     1      -4.010   0.704  25.736  0.00  0.00    +0.144 C 
BRANCH  14  16
ATOM      1  F   UNL     1      -6.712   5.642  25.590  0.00  0.00    -0.205 F 
ATOM     16  C   UNL     1      -4.731   2.022  25.697  0.00  0.00    -0.030 A 
ATOM     17  C   UNL     1      -6.125   2.053  25.710  0.00  0.00    +0.008 A 
ATOM     18  C   UNL     1      -4.006   3.211  25.648  0.00  0.00    +0.008 A 
ATOM     20  C   UNL     1      -6.794   3.277  25.674  0.00  0.00    +0.038 A 
ATOM     21  C   UNL     1      -4.675   4.435  25.611  0.00  0.00    +0.038 A 
ATOM     22  C   UNL     1      -6.070   4.468  25.625  0.00  0.00    +0.123 A 
ENDBRANCH  14  16
ENDBRANCH   5  14
TORSDOF 3
ENDMDL
MODEL 4
REMARK VINA RESULT:      12.4      3.604      9.623
REMARK  Name = 75536998
REMARK  3 active torsions:
REMARK  status: ('A' for Active; 'I' for Inactive)
REMARK    1  A    between atoms: N_5  and  C_14
REMARK    2  A    between atoms: N_7  and  C_19
REMARK    3  A    between atoms: C_14  and  C_16
REMARK                            x       y       z     vdW  Elec       q    Type
REMARK                         _______ _______ _______ _____ _____    ______ ____
ROOT
ATOM      2  O   UNL     1       2.749  -1.878  23.273  0.00  0.00    -0.252 OA
ATOM      3  O   UNL     1      -3.485  -0.454  25.896  0.00  0.00    -0.252 OA
ATOM      4  N   UNL     1       0.876  -0.620  23.930  0.00  0.00    -0.278 N 
ATOM      5  N   UNL     1       2.461   0.391  22.698  0.00  0.00    -0.279 N 
ATOM      6  N   UNL     1      -1.803  -0.025  24.371  0.00  0.00    -0.282 N 
ATOM      7  N   UNL     1      -3.151   1.728  25.186  0.00  0.00    -0.269 N 
ATOM      8  C   UNL     1       0.457   0.771  23.861  0.00  0.00    +0.112 C 
ATOM      9  C   UNL     1       1.416   1.388  22.847  0.00  0.00    +0.133 C 
ATOM     10  C   UNL     1      -1.018   0.854  23.481  0.00  0.00    +0.133 C 
ATOM     11  C   UNL     1       0.086  -1.579  24.681  0.00  0.00    +0.128 C 
ATOM     12  C   UNL     1      -1.394  -1.438  24.324  0.00  0.00    +0.128 C 
ATOM     13  C   UNL     1       2.111  -0.834  23.301  0.00  0.00    +0.306 C 
ATOM     15  C   UNL     1      -2.875   0.362  25.202  0.00  0.00    +0.307 C 
ATOM     28  H   UNL     1      -2.388   2.368  24.991  0.00  0.00    +0.156 HD
ENDROOT
BRANCH   7  19
ATOM     19  C   UNL     1      -4.407   2.353  25.385  0.00  0.00    +0.035 A 
ATOM     23  C   UNL     1      -4.496   3.745  25.422  0.00  0.00    +0.023 A 
ATOM     24  C   UNL     1      -5.555   1.577  25.545  0.00  0.00    +0.023 A 
ATOM     25  C   UNL     1      -5.732   4.361  25.619  0.00  0.00    +0.002 A 
ATOM     26  C   UNL     1      -6.792   2.193  25.740  0.00  0.00    +0.002 A 
ATOM     27  C   UNL     1      -6.880   3.584  25.778  0.00  0.00    +0.000 A 
ENDBRANCH   7  19
BRANCH   5  14
ATOM     14  C   UNL     1       3.641   0.631  21.896  0.00  0.00    +0.144 C 
BRANCH  14  16
ATOM      1  F   UNL     1       8.376  -0.518  24.718  0.00  0.00    -0.205 F 
ATOM     16  C   UNL     1       4.904   0.325  22.649  0.00  0.00    -0.030 A 
ATOM     17  C   UNL     1       5.902  -0.443  22.050  0.00  0.00    +0.008 A 
ATOM     18  C   UNL     1       5.077   0.807  23.946  0.00  0.00    +0.008 A 
ATOM     20  C   UNL     1       7.076  -0.728  22.749  0.00  0.00    +0.038 A 
ATOM     21  C   UNL     1       6.250   0.522  24.645  0.00  0.00    +0.038 A 
ATOM     22  C   UNL     1       7.250  -0.245  24.047  0.00  0.00    +0.123 A 
ENDBRANCH  14  16
ENDBRANCH   5  14
TORSDOF 3
ENDMDL
