MODEL 1
REMARK VINA RESULT:       7.6      0.000      0.000
REMARK  Name = 71693540
REMARK  10 active torsions:
REMARK  status: ('A' for Active; 'I' for Inactive)
REMARK    1  A    between atoms: O_2  and  C_11
REMARK    2  A    between atoms: O_5  and  C_28
REMARK    3  A    between atoms: O_5  and  C_29
REMARK    4  A    between atoms: N_6  and  C_12
REMARK    5  A    between atoms: N_7  and  C_16
REMARK    6  A    between atoms: N_8  and  C_21
REMARK    7  A    between atoms: C_9  and  C_11
REMARK    8  A    between atoms: C_10  and  C_13
REMARK    9  A    between atoms: C_12  and  C_16
REMARK   10  A    between atoms: C_22  and  C_23
REMARK                            x       y       z     vdW  Elec       q    Type
REMARK                         _______ _______ _______ _____ _____    ______ ____
ROOT
ATOM     13  C   UNL     1      -1.542   1.255  24.017  0.00  0.00    -0.017 A 
ATOM     17  C   UNL     1      -0.667   2.341  24.029  0.00  0.00    +0.008 A 
ATOM     18  C   UNL     1      -1.039  -0.045  23.945  0.00  0.00    +0.008 A 
ATOM     19  C   UNL     1       0.710   2.128  23.968  0.00  0.00    +0.023 A 
ATOM     20  C   UNL     1       0.338  -0.258  23.885  0.00  0.00    +0.023 A 
ATOM     21  C   UNL     1       1.212   0.829  23.896  0.00  0.00    +0.034 A 
ENDROOT
BRANCH  13  10
ATOM      1  O   UNL     1      -3.639   0.232  24.414  0.00  0.00    -0.361 OA
ATOM      3  O   UNL     1      -6.933   1.289  25.266  0.00  0.00    -0.273 OA
ATOM      6  N   UNL     1      -4.944   2.504  25.329  0.00  0.00    -0.290 N 
ATOM      9  C   UNL     1      -3.473   2.514  25.144  0.00  0.00    +0.135 C 
ATOM     10  C   UNL     1      -3.038   1.485  24.084  0.00  0.00    +0.171 C 
ATOM     14  C   UNL     1      -5.730   1.394  25.015  0.00  0.00    +0.242 C 
ATOM     15  C   UNL     1      -5.035   0.288  24.246  0.00  0.00    +0.256 C 
BRANCH   9  11
ATOM     11  C   UNL     1      -2.934   3.910  24.797  0.00  0.00    +0.181 C 
BRANCH  11   2
ATOM      2  O   UNL     1      -2.304   4.437  25.947  0.00  0.00    -0.393 OA
ATOM     30  H   UNL     1      -3.005   4.764  26.534  0.00  0.00    +0.209 HD
ENDBRANCH  11   2
ENDBRANCH   9  11
BRANCH   6  12
ATOM     12  C   UNL     1      -5.550   3.596  26.086  0.00  0.00    +0.123 C 
BRANCH  12  16
ATOM     16  C   UNL     1      -5.759   4.823  25.211  0.00  0.00    +0.096 C 
BRANCH  16   7
ATOM      7  N   UNL     1      -6.923   5.575  25.661  0.00  0.00    -0.328 NA
ATOM     31  H   UNL     1      -6.683   6.099  26.502  0.00  0.00    +0.118 HD
ATOM     32  H   UNL     1      -7.665   4.930  25.931  0.00  0.00    +0.118 HD
ENDBRANCH  16   7
ENDBRANCH  12  16
ENDBRANCH   6  12
ENDBRANCH  13  10
BRANCH  21   8
ATOM      4  O   UNL     1       2.968   0.142  21.564  0.00  0.00    -0.270 OA
ATOM      8  N   UNL     1       2.590   0.616  23.836  0.00  0.00    -0.282 N 
ATOM     22  C   UNL     1       3.366   0.295  22.714  0.00  0.00    +0.248 C 
ATOM     33  H   UNL     1       3.064   0.759  24.724  0.00  0.00    +0.155 HD
BRANCH  22  23
ATOM     23  C   UNL     1       4.825   0.158  22.967  0.00  0.00    +0.037 A 
ATOM     24  C   UNL     1       5.415   0.843  24.031  0.00  0.00    +0.016 A 
ATOM     25  C   UNL     1       5.603  -0.653  22.142  0.00  0.00    +0.016 A 
ATOM     26  C   UNL     1       6.783   0.717  24.267  0.00  0.00    +0.046 A 
ATOM     27  C   UNL     1       6.971  -0.779  22.379  0.00  0.00    +0.046 A 
ATOM     28  C   UNL     1       7.562  -0.094  23.441  0.00  0.00    +0.120 A 
BRANCH  28   5
ATOM      5  O   UNL     1       8.897  -0.217  23.672  0.00  0.00    -0.495 OA
ATOM     29  C   UNL     1       9.776   0.481  22.790  0.00  0.00    +0.277 C 
ENDBRANCH  28   5
ENDBRANCH  22  23
ENDBRANCH  21   8
TORSDOF 9
ENDMDL
MODEL 2
REMARK VINA RESULT:       8.2      1.521      2.655
REMARK  Name = 71693540
REMARK  10 active torsions:
REMARK  status: ('A' for Active; 'I' for Inactive)
REMARK    1  A    between atoms: O_2  and  C_11
REMARK    2  A    between atoms: O_5  and  C_28
REMARK    3  A    between atoms: O_5  and  C_29
REMARK    4  A    between atoms: N_6  and  C_12
REMARK    5  A    between atoms: N_7  and  C_16
REMARK    6  A    between atoms: N_8  and  C_21
REMARK    7  A    between atoms: C_9  and  C_11
REMARK    8  A    between atoms: C_10  and  C_13
REMARK    9  A    between atoms: C_12  and  C_16
REMARK   10  A    between atoms: C_22  and  C_23
REMARK                            x       y       z     vdW  Elec       q    Type
REMARK                         _______ _______ _______ _____ _____    ______ ____
ROOT
ATOM     13  C   UNL     1      -1.724   2.529  25.245  0.00  0.00    -0.017 A 
ATOM     17  C   UNL     1      -1.492   2.017  23.969  0.00  0.00    +0.008 A 
ATOM     18  C   UNL     1      -0.689   2.569  26.179  0.00  0.00    +0.008 A 
ATOM     19  C   UNL     1      -0.225   1.544  23.627  0.00  0.00    +0.023 A 
ATOM     20  C   UNL     1       0.578   2.096  25.837  0.00  0.00    +0.023 A 
ATOM     21  C   UNL     1       0.809   1.583  24.561  0.00  0.00    +0.034 A 
ENDROOT
BRANCH  13  10
ATOM      1  O   UNL     1      -3.183   4.391  25.148  0.00  0.00    -0.361 OA
ATOM      3  O   UNL     1      -6.684   4.974  25.443  0.00  0.00    -0.273 OA
ATOM      6  N   UNL     1      -5.555   2.951  25.186  0.00  0.00    -0.290 N 
ATOM      9  C   UNL     1      -4.262   2.251  24.991  0.00  0.00    +0.135 C 
ATOM     10  C   UNL     1      -3.099   3.044  25.617  0.00  0.00    +0.171 C 
ATOM     14  C   UNL     1      -5.635   4.328  25.401  0.00  0.00    +0.242 C 
ATOM     15  C   UNL     1      -4.321   5.033  25.671  0.00  0.00    +0.256 C 
BRANCH   9  11
ATOM     11  C   UNL     1      -4.286   0.812  25.528  0.00  0.00    +0.181 C 
BRANCH  11   2
ATOM      2  O   UNL     1      -4.139  -0.069  24.433  0.00  0.00    -0.393 OA
ATOM     30  H   UNL     1      -5.032  -0.324  24.146  0.00  0.00    +0.209 HD
ENDBRANCH  11   2
ENDBRANCH   9  11
BRANCH   6  12
ATOM     12  C   UNL     1      -6.784   2.216  24.904  0.00  0.00    +0.123 C 
BRANCH  12  16
ATOM     16  C   UNL     1      -7.044   1.149  25.957  0.00  0.00    +0.096 C 
BRANCH  16   7
ATOM      7  N   UNL     1      -7.035   1.740  27.290  0.00  0.00    -0.328 NA
ATOM     31  H   UNL     1      -6.750   2.717  27.224  0.00  0.00    +0.118 HD
ATOM     32  H   UNL     1      -6.333   1.277  27.866  0.00  0.00    +0.118 HD
ENDBRANCH  16   7
ENDBRANCH  12  16
ENDBRANCH   6  12
ENDBRANCH  13  10
BRANCH  21   8
ATOM      4  O   UNL     1       1.618  -0.626  22.701  0.00  0.00    -0.270 OA
ATOM      8  N   UNL     1       2.077   1.110  24.219  0.00  0.00    -0.282 N 
ATOM     22  C   UNL     1       2.401   0.068  23.339  0.00  0.00    +0.248 C 
ATOM     33  H   UNL     1       2.836   1.633  24.646  0.00  0.00    +0.155 HD
BRANCH  22  23
ATOM     23  C   UNL     1       3.856  -0.182  23.159  0.00  0.00    +0.037 A 
ATOM     24  C   UNL     1       4.459  -1.272  23.789  0.00  0.00    +0.016 A 
ATOM     25  C   UNL     1       4.617   0.671  22.361  0.00  0.00    +0.016 A 
ATOM     26  C   UNL     1       5.823  -1.506  23.622  0.00  0.00    +0.046 A 
ATOM     27  C   UNL     1       5.982   0.437  22.193  0.00  0.00    +0.046 A 
ATOM     28  C   UNL     1       6.585  -0.652  22.824  0.00  0.00    +0.120 A 
BRANCH  28   5
ATOM      5  O   UNL     1       7.917  -0.881  22.661  0.00  0.00    -0.495 OA
ATOM     29  C   UNL     1       8.813   0.087  23.207  0.00  0.00    +0.277 C 
ENDBRANCH  28   5
ENDBRANCH  22  23
ENDBRANCH  21   8
TORSDOF 9
ENDMDL
