MODEL 1
REMARK VINA RESULT:       6.6      0.000      0.000
REMARK  Name = 11882030
REMARK  10 active torsions:
REMARK  status: ('A' for Active; 'I' for Inactive)
REMARK    1  A    between atoms: S_1  and  C_26
REMARK    2  A    between atoms: S_1  and  C_34
REMARK    3  A    between atoms: N_7  and  C_12
REMARK    4  A    between atoms: N_8  and  C_16
REMARK    5  A    between atoms: N_9  and  C_25
REMARK    6  A    between atoms: C_13  and  C_21
REMARK    7  A    between atoms: C_23  and  C_26
REMARK    8  A    between atoms: C_25  and  C_27
REMARK    9  A    between atoms: C_25  and  C_29
REMARK   10  A    between atoms: C_27  and  C_28
REMARK                            x       y       z     vdW  Elec       q    Type
REMARK                         _______ _______ _______ _____ _____    ______ ____
ROOT
ATOM      3  O   UNL     1       4.637   1.652  23.268  0.00  0.00    -0.275 OA
ATOM      6  N   UNL     1       3.212  -0.168  23.157  0.00  0.00    -0.287 N 
ATOM     12  C   UNL     1       1.445  -1.742  22.946  0.00  0.00    +0.094 C 
ATOM     13  C   UNL     1       2.178   0.487  22.368  0.00  0.00    +0.164 C 
ATOM     14  C   UNL     1       1.264  -0.642  21.896  0.00  0.00    +0.055 C 
ATOM     15  C   UNL     1       2.897  -1.577  23.385  0.00  0.00    +0.131 C 
ATOM     23  C   UNL     1       4.406   0.459  23.474  0.00  0.00    +0.226 C 
ENDROOT
BRANCH  12   7
ATOM      4  O   UNL     1      -1.073  -3.086  23.296  0.00  0.00    -0.253 OA
ATOM      7  N   UNL     1       0.531  -1.587  24.048  0.00  0.00    -0.295 N 
ATOM      8  N   UNL     1      -1.368  -1.949  25.298  0.00  0.00    -0.297 N 
ATOM     24  C   UNL     1      -0.675  -2.282  24.138  0.00  0.00    +0.300 C 
ATOM     38  H   UNL     1       0.793  -0.986  24.824  0.00  0.00    +0.151 HD
ATOM     39  H   UNL     1      -0.917  -1.324  25.959  0.00  0.00    +0.151 HD
BRANCH   8  16
ATOM     16  C   UNL     1      -2.649  -2.521  25.646  0.00  0.00    +0.074 C 
ATOM     17  C   UNL     1      -3.420  -2.951  24.393  0.00  0.00    +0.022 C 
ATOM     18  C   UNL     1      -3.473  -1.550  26.499  0.00  0.00    +0.022 C 
ATOM     19  C   UNL     1      -3.941  -1.759  23.590  0.00  0.00    +0.002 C 
ATOM     20  C   UNL     1      -3.994  -0.361  25.692  0.00  0.00    +0.002 C 
ATOM     22  C   UNL     1      -4.766  -0.812  24.457  0.00  0.00    +0.000 C 
ENDBRANCH   8  16
ENDBRANCH  12   7
BRANCH  13  21
ATOM      2  O   UNL     1       1.968   2.497  23.637  0.00  0.00    -0.274 OA
ATOM      9  N   UNL     1       0.166   1.026  23.549  0.00  0.00    -0.302 N 
ATOM     21  C   UNL     1       1.446   1.458  23.243  0.00  0.00    +0.234 C 
ATOM     40  H   UNL     1      -0.194   0.194  23.088  0.00  0.00    +0.150 HD
BRANCH   9  25
ATOM     25  C   UNL     1      -0.739   1.770  24.395  0.00  0.00    +0.163 C 
BRANCH  25  29
ATOM      5  O   UNL     1      -0.704   0.514  26.475  0.00  0.00    -0.274 OA
ATOM     11  N   UNL     1       0.542   2.438  26.333  0.00  0.00    -0.328 N 
ATOM     29  C   UNL     1      -0.332   1.494  25.836  0.00  0.00    +0.231 C 
ATOM     42  H   UNL     1       0.903   2.365  27.278  0.00  0.00    +0.145 HD
ATOM     43  H   UNL     1       0.859   3.231  25.785  0.00  0.00    +0.145 HD
ENDBRANCH  25  29
BRANCH  25  27
ATOM     27  C   UNL     1      -0.701   3.276  24.106  0.00  0.00    +0.069 C 
BRANCH  27  28
ATOM     10  N   UNL     1      -2.944   5.593  25.870  0.00  0.00    -0.360 N 
ATOM     28  C   UNL     1      -1.820   4.030  24.765  0.00  0.00    -0.020 A 
ATOM     30  C   UNL     1      -3.183   3.628  24.840  0.00  0.00    +0.003 A 
ATOM     31  C   UNL     1      -1.704   5.241  25.407  0.00  0.00    +0.087 A 
ATOM     32  C   UNL     1      -3.866   4.626  25.539  0.00  0.00    +0.047 A 
ATOM     33  C   UNL     1      -3.904   2.509  24.380  0.00  0.00    +0.010 A 
ATOM     35  C   UNL     1      -5.240   4.560  25.802  0.00  0.00    +0.026 A 
ATOM     36  C   UNL     1      -5.278   2.429  24.635  0.00  0.00    +0.001 A 
ATOM     37  C   UNL     1      -5.933   3.440  25.336  0.00  0.00    +0.002 A 
ATOM     41  H   UNL     1      -3.152   6.440  26.382  0.00  0.00    +0.165 HD
ENDBRANCH  27  28
ENDBRANCH  25  27
ENDBRANCH   9  25
ENDBRANCH  13  21
BRANCH  23  26
ATOM     26  C   UNL     1       5.448  -0.416  24.125  0.00  0.00    +0.164 C 
BRANCH  26   1
ATOM      1  S   UNL     1       6.629  -0.896  22.856  0.00  0.00    -0.155 S 
ATOM     34  C   UNL     1       8.064   0.040  23.442  0.00  0.00    +0.085 C 
ENDBRANCH  26   1
ENDBRANCH  23  26
TORSDOF 9
ENDMDL
MODEL 2
REMARK VINA RESULT:       6.7      1.570      2.372
REMARK  Name = 11882030
REMARK  10 active torsions:
REMARK  status: ('A' for Active; 'I' for Inactive)
REMARK    1  A    between atoms: S_1  and  C_26
REMARK    2  A    between atoms: S_1  and  C_34
REMARK    3  A    between atoms: N_7  and  C_12
REMARK    4  A    between atoms: N_8  and  C_16
REMARK    5  A    between atoms: N_9  and  C_25
REMARK    6  A    between atoms: C_13  and  C_21
REMARK    7  A    between atoms: C_23  and  C_26
REMARK    8  A    between atoms: C_25  and  C_27
REMARK    9  A    between atoms: C_25  and  C_29
REMARK   10  A    between atoms: C_27  and  C_28
REMARK                            x       y       z     vdW  Elec       q    Type
REMARK                         _______ _______ _______ _____ _____    ______ ____
ROOT
ATOM      3  O   UNL     1       3.915   2.433  22.988  0.00  0.00    -0.275 OA
ATOM      6  N   UNL     1       2.431   0.676  22.732  0.00  0.00    -0.287 N 
ATOM     12  C   UNL     1       0.608  -0.842  22.598  0.00  0.00    +0.094 C 
ATOM     13  C   UNL     1       1.229   1.493  22.650  0.00  0.00    +0.164 C 
ATOM     14  C   UNL     1       0.138   0.546  22.154  0.00  0.00    +0.055 C 
ATOM     15  C   UNL     1       2.129  -0.740  22.528  0.00  0.00    +0.131 C 
ATOM     23  C   UNL     1       3.697   1.233  22.815  0.00  0.00    +0.226 C 
ENDROOT
BRANCH  12   7
ATOM      4  O   UNL     1      -2.118  -1.177  23.451  0.00  0.00    -0.253 OA
ATOM      7  N   UNL     1       0.154  -1.163  23.928  0.00  0.00    -0.295 N 
ATOM      8  N   UNL     1      -1.361  -1.616  25.601  0.00  0.00    -0.297 N 
ATOM     24  C   UNL     1      -1.195  -1.307  24.254  0.00  0.00    +0.300 C 
ATOM     38  H   UNL     1       0.841  -1.344  24.653  0.00  0.00    +0.151 HD
ATOM     39  H   UNL     1      -0.527  -1.766  26.160  0.00  0.00    +0.151 HD
BRANCH   8  16
ATOM     16  C   UNL     1      -2.655  -1.821  26.212  0.00  0.00    +0.074 C 
ATOM     17  C   UNL     1      -3.162  -3.246  25.965  0.00  0.00    +0.022 C 
ATOM     18  C   UNL     1      -3.667  -0.779  25.721  0.00  0.00    +0.022 C 
ATOM     19  C   UNL     1      -3.584  -3.474  24.513  0.00  0.00    +0.002 C 
ATOM     20  C   UNL     1      -4.088  -1.011  24.271  0.00  0.00    +0.002 C 
ATOM     22  C   UNL     1      -4.599  -2.432  24.052  0.00  0.00    +0.000 C 
ENDBRANCH   8  16
ENDBRANCH  12   7
BRANCH  13  21
ATOM      2  O   UNL     1       1.300   1.462  25.036  0.00  0.00    -0.274 OA
ATOM      9  N   UNL     1       0.145   3.176  23.964  0.00  0.00    -0.302 N 
ATOM     21  C   UNL     1       0.914   2.026  24.015  0.00  0.00    +0.234 C 
ATOM     40  H   UNL     1      -0.034   3.606  23.061  0.00  0.00    +0.150 HD
BRANCH   9  25
ATOM     25  C   UNL     1      -0.312   3.875  25.144  0.00  0.00    +0.163 C 
BRANCH  25  29
ATOM      5  O   UNL     1      -0.307   5.861  23.745  0.00  0.00    -0.274 OA
ATOM     11  N   UNL     1      -1.858   5.709  25.432  0.00  0.00    -0.328 N 
ATOM     29  C   UNL     1      -0.789   5.248  24.693  0.00  0.00    +0.231 C 
ATOM     42  H   UNL     1      -2.283   6.608  25.227  0.00  0.00    +0.145 HD
ATOM     43  H   UNL     1      -2.261   5.181  26.199  0.00  0.00    +0.145 HD
ENDBRANCH  25  29
BRANCH  25  27
ATOM     27  C   UNL     1      -1.439   3.125  25.865  0.00  0.00    +0.069 C 
BRANCH  27  28
ATOM     10  N   UNL     1      -3.687   2.122  23.134  0.00  0.00    -0.360 N 
ATOM     28  C   UNL     1      -2.562   2.729  24.949  0.00  0.00    -0.020 A 
ATOM     30  C   UNL     1      -3.934   2.593  25.302  0.00  0.00    +0.003 A 
ATOM     31  C   UNL     1      -2.442   2.433  23.611  0.00  0.00    +0.087 A 
ATOM     32  C   UNL     1      -4.618   2.212  24.145  0.00  0.00    +0.047 A 
ATOM     33  C   UNL     1      -4.663   2.758  26.496  0.00  0.00    +0.010 A 
ATOM     35  C   UNL     1      -6.000   1.986  24.123  0.00  0.00    +0.026 A 
ATOM     36  C   UNL     1      -6.045   2.536  26.490  0.00  0.00    +0.001 A 
ATOM     37  C   UNL     1      -6.700   2.157  25.320  0.00  0.00    +0.002 A 
ATOM     41  H   UNL     1      -3.894   1.865  22.179  0.00  0.00    +0.165 HD
ENDBRANCH  27  28
ENDBRANCH  25  27
ENDBRANCH   9  25
ENDBRANCH  13  21
BRANCH  23  26
ATOM     26  C   UNL     1       4.845   0.261  22.693  0.00  0.00    +0.164 C 
BRANCH  26   1
ATOM      1  S   UNL     1       5.262  -0.304  24.349  0.00  0.00    -0.155 S 
ATOM     34  C   UNL     1       4.914  -2.067  24.138  0.00  0.00    +0.085 C 
ENDBRANCH  26   1
ENDBRANCH  23  26
TORSDOF 9
ENDMDL
MODEL 3
REMARK VINA RESULT:       7.1      3.319      8.101
REMARK  Name = 11882030
REMARK  10 active torsions:
REMARK  status: ('A' for Active; 'I' for Inactive)
REMARK    1  A    between atoms: S_1  and  C_26
REMARK    2  A    between atoms: S_1  and  C_34
REMARK    3  A    between atoms: N_7  and  C_12
REMARK    4  A    between atoms: N_8  and  C_16
REMARK    5  A    between atoms: N_9  and  C_25
REMARK    6  A    between atoms: C_13  and  C_21
REMARK    7  A    between atoms: C_23  and  C_26
REMARK    8  A    between atoms: C_25  and  C_27
REMARK    9  A    between atoms: C_25  and  C_29
REMARK   10  A    between atoms: C_27  and  C_28
REMARK                            x       y       z     vdW  Elec       q    Type
REMARK                         _______ _______ _______ _____ _____    ______ ____
ROOT
ATOM      3  O   UNL     1      -5.291   0.886  23.877  0.00  0.00    -0.275 OA
ATOM      6  N   UNL     1      -3.774   2.561  24.377  0.00  0.00    -0.287 N 
ATOM     12  C   UNL     1      -1.918   3.970  24.840  0.00  0.00    +0.094 C 
ATOM     13  C   UNL     1      -2.610   1.897  23.808  0.00  0.00    +0.164 C 
ATOM     14  C   UNL     1      -1.531   2.976  23.741  0.00  0.00    +0.055 C 
ATOM     15  C   UNL     1      -3.442   3.901  24.860  0.00  0.00    +0.131 C 
ATOM     23  C   UNL     1      -5.048   2.022  24.288  0.00  0.00    +0.226 C 
ENDROOT
BRANCH  12   7
ATOM      4  O   UNL     1       0.550   2.562  25.284  0.00  0.00    -0.253 OA
ATOM      7  N   UNL     1      -1.349   3.609  26.113  0.00  0.00    -0.295 N 
ATOM      8  N   UNL     1       0.182   2.700  27.573  0.00  0.00    -0.297 N 
ATOM     24  C   UNL     1      -0.141   2.923  26.237  0.00  0.00    +0.300 C 
ATOM     38  H   UNL     1      -1.815   3.910  26.964  0.00  0.00    +0.151 HD
ATOM     39  H   UNL     1      -0.425   3.100  28.281  0.00  0.00    +0.151 HD
BRANCH   8  16
ATOM     16  C   UNL     1       1.381   2.009  27.992  0.00  0.00    +0.074 C 
ATOM     17  C   UNL     1       1.272   1.552  29.452  0.00  0.00    +0.022 C 
ATOM     18  C   UNL     1       2.623   2.881  27.775  0.00  0.00    +0.022 C 
ATOM     19  C   UNL     1       1.353   2.718  30.437  0.00  0.00    +0.002 C 
ATOM     20  C   UNL     1       2.701   4.044  28.764  0.00  0.00    +0.002 C 
ATOM     22  C   UNL     1       2.602   3.564  30.208  0.00  0.00    +0.000 C 
ENDBRANCH   8  16
ENDBRANCH  12   7
BRANCH  13  21
ATOM      2  O   UNL     1      -2.546   0.734  25.890  0.00  0.00    -0.274 OA
ATOM      9  N   UNL     1      -1.414  -0.161  24.064  0.00  0.00    -0.302 N 
ATOM     21  C   UNL     1      -2.206   0.772  24.711  0.00  0.00    +0.234 C 
ATOM     40  H   UNL     1      -1.276  -0.076  23.061  0.00  0.00    +0.150 HD
BRANCH   9  25
ATOM     25  C   UNL     1      -0.874  -1.331  24.719  0.00  0.00    +0.163 C 
BRANCH  25  29
ATOM      5  O   UNL     1      -1.902  -3.358  23.859  0.00  0.00    -0.274 OA
ATOM     11  N   UNL     1      -2.928  -2.257  25.595  0.00  0.00    -0.328 N 
ATOM     29  C   UNL     1      -1.939  -2.416  24.646  0.00  0.00    +0.231 C 
ATOM     42  H   UNL     1      -3.693  -2.920  25.665  0.00  0.00    +0.145 HD
ATOM     43  H   UNL     1      -2.933  -1.485  26.254  0.00  0.00    +0.145 HD
ENDBRANCH  25  29
BRANCH  25  27
ATOM     27  C   UNL     1       0.428  -1.814  24.068  0.00  0.00    +0.069 C 
BRANCH  27  28
ATOM     10  N   UNL     1       1.943   1.262  22.740  0.00  0.00    -0.360 N 
ATOM     28  C   UNL     1       1.296  -0.688  23.582  0.00  0.00    -0.020 A 
ATOM     30  C   UNL     1       2.718  -0.660  23.568  0.00  0.00    +0.003 A 
ATOM     31  C   UNL     1       0.848   0.507  23.067  0.00  0.00    +0.087 A 
ATOM     32  C   UNL     1       3.099   0.573  23.035  0.00  0.00    +0.047 A 
ATOM     33  C   UNL     1       3.723  -1.568  23.958  0.00  0.00    +0.010 A 
ATOM     35  C   UNL     1       4.438   0.947  22.873  0.00  0.00    +0.026 A 
ATOM     36  C   UNL     1       5.067  -1.209  23.802  0.00  0.00    +0.001 A 
ATOM     37  C   UNL     1       5.416   0.029  23.267  0.00  0.00    +0.002 A 
ATOM     41  H   UNL     1       1.909   2.189  22.340  0.00  0.00    +0.165 HD
ENDBRANCH  27  28
ENDBRANCH  25  27
ENDBRANCH   9  25
ENDBRANCH  13  21
BRANCH  23  26
ATOM     26  C   UNL     1      -6.168   2.919  24.751  0.00  0.00    +0.164 C 
BRANCH  26   1
ATOM      1  S   UNL     1      -6.093   3.007  26.546  0.00  0.00    -0.155 S 
ATOM     34  C   UNL     1      -6.542   1.295  26.928  0.00  0.00    +0.085 C 
ENDBRANCH  26   1
ENDBRANCH  23  26
TORSDOF 9
ENDMDL
MODEL 4
REMARK VINA RESULT:       7.2      3.138      7.949
REMARK  Name = 11882030
REMARK  10 active torsions:
REMARK  status: ('A' for Active; 'I' for Inactive)
REMARK    1  A    between atoms: S_1  and  C_26
REMARK    2  A    between atoms: S_1  and  C_34
REMARK    3  A    between atoms: N_7  and  C_12
REMARK    4  A    between atoms: N_8  and  C_16
REMARK    5  A    between atoms: N_9  and  C_25
REMARK    6  A    between atoms: C_13  and  C_21
REMARK    7  A    between atoms: C_23  and  C_26
REMARK    8  A    between atoms: C_25  and  C_27
REMARK    9  A    between atoms: C_25  and  C_29
REMARK   10  A    between atoms: C_27  and  C_28
REMARK                            x       y       z     vdW  Elec       q    Type
REMARK                         _______ _______ _______ _____ _____    ______ ____
ROOT
ATOM      3  O   UNL     1      -3.494  -0.151  23.498  0.00  0.00    -0.275 OA
ATOM      6  N   UNL     1      -3.263   1.980  24.371  0.00  0.00    -0.287 N 
ATOM     12  C   UNL     1      -2.672   4.188  25.018  0.00  0.00    +0.094 C 
ATOM     13  C   UNL     1      -2.381   2.485  23.328  0.00  0.00    +0.164 C 
ATOM     14  C   UNL     1      -2.351   3.998  23.533  0.00  0.00    +0.055 C 
ATOM     15  C   UNL     1      -3.613   3.028  25.328  0.00  0.00    +0.131 C 
ATOM     23  C   UNL     1      -3.814   0.709  24.319  0.00  0.00    +0.226 C 
ENDROOT
BRANCH  12   7
ATOM      4  O   UNL     1      -1.484   1.856  26.210  0.00  0.00    -0.253 OA
ATOM      7  N   UNL     1      -1.485   4.146  25.833  0.00  0.00    -0.295 N 
ATOM      8  N   UNL     1       0.176   3.202  27.118  0.00  0.00    -0.297 N 
ATOM     24  C   UNL     1      -0.976   2.965  26.373  0.00  0.00    +0.300 C 
ATOM     38  H   UNL     1      -0.960   5.003  25.982  0.00  0.00    +0.151 HD
ATOM     39  H   UNL     1       0.547   4.147  27.131  0.00  0.00    +0.151 HD
BRANCH   8  16
ATOM     16  C   UNL     1       0.912   2.155  27.791  0.00  0.00    +0.074 C 
ATOM     17  C   UNL     1       0.355   1.906  29.197  0.00  0.00    +0.022 C 
ATOM     18  C   UNL     1       2.410   2.478  27.836  0.00  0.00    +0.022 C 
ATOM     19  C   UNL     1       0.684   3.041  30.166  0.00  0.00    +0.002 C 
ATOM     20  C   UNL     1       2.735   3.611  28.808  0.00  0.00    +0.002 C 
ATOM     22  C   UNL     1       2.181   3.336  30.202  0.00  0.00    +0.000 C 
ENDBRANCH   8  16
ENDBRANCH  12   7
BRANCH  13  21
ATOM      2  O   UNL     1       0.004   2.538  23.374  0.00  0.00    -0.274 OA
ATOM      9  N   UNL     1      -1.087   0.530  23.814  0.00  0.00    -0.302 N 
ATOM     21  C   UNL     1      -1.023   1.879  23.510  0.00  0.00    +0.234 C 
ATOM     40  H   UNL     1      -1.995   0.110  23.995  0.00  0.00    +0.150 HD
BRANCH   9  25
ATOM     25  C   UNL     1       0.085  -0.292  24.016  0.00  0.00    +0.163 C 
BRANCH  25  29
ATOM      5  O   UNL     1      -1.210  -2.345  23.905  0.00  0.00    -0.274 OA
ATOM     11  N   UNL     1       0.208  -2.035  25.685  0.00  0.00    -0.328 N 
ATOM     29  C   UNL     1      -0.400  -1.648  24.510  0.00  0.00    +0.231 C 
ATOM     42  H   UNL     1      -0.015  -2.926  26.117  0.00  0.00    +0.145 HD
ATOM     43  H   UNL     1       0.893  -1.458  26.162  0.00  0.00    +0.145 HD
ENDBRANCH  25  29
BRANCH  25  27
ATOM     27  C   UNL     1       0.911  -0.452  22.734  0.00  0.00    +0.069 C 
BRANCH  27  28
ATOM     10  N   UNL     1       3.889   1.703  22.693  0.00  0.00    -0.360 N 
ATOM     28  C   UNL     1       2.263   0.197  22.819  0.00  0.00    -0.020 A 
ATOM     30  C   UNL     1       3.468  -0.412  23.270  0.00  0.00    +0.003 A 
ATOM     31  C   UNL     1       2.554   1.496  22.472  0.00  0.00    +0.087 A 
ATOM     32  C   UNL     1       4.473   0.554  23.180  0.00  0.00    +0.047 A 
ATOM     33  C   UNL     1       3.802  -1.694  23.747  0.00  0.00    +0.010 A 
ATOM     35  C   UNL     1       5.800   0.301  23.546  0.00  0.00    +0.026 A 
ATOM     36  C   UNL     1       5.125  -1.963  24.116  0.00  0.00    +0.001 A 
ATOM     37  C   UNL     1       6.107  -0.979  24.015  0.00  0.00    +0.002 A 
ATOM     41  H   UNL     1       4.377   2.572  22.523  0.00  0.00    +0.165 HD
ENDBRANCH  27  28
ENDBRANCH  25  27
ENDBRANCH   9  25
ENDBRANCH  13  21
BRANCH  23  26
ATOM     26  C   UNL     1      -4.857   0.409  25.367  0.00  0.00    +0.164 C 
BRANCH  26   1
ATOM      1  S   UNL     1      -6.236   1.534  25.105  0.00  0.00    -0.155 S 
ATOM     34  C   UNL     1      -6.628   1.901  26.833  0.00  0.00    +0.085 C 
ENDBRANCH  26   1
ENDBRANCH  23  26
TORSDOF 9
ENDMDL
MODEL 5
REMARK VINA RESULT:       7.8      3.165      7.048
REMARK  Name = 11882030
REMARK  10 active torsions:
REMARK  status: ('A' for Active; 'I' for Inactive)
REMARK    1  A    between atoms: S_1  and  C_26
REMARK    2  A    between atoms: S_1  and  C_34
REMARK    3  A    between atoms: N_7  and  C_12
REMARK    4  A    between atoms: N_8  and  C_16
REMARK    5  A    between atoms: N_9  and  C_25
REMARK    6  A    between atoms: C_13  and  C_21
REMARK    7  A    between atoms: C_23  and  C_26
REMARK    8  A    between atoms: C_25  and  C_27
REMARK    9  A    between atoms: C_25  and  C_29
REMARK   10  A    between atoms: C_27  and  C_28
REMARK                            x       y       z     vdW  Elec       q    Type
REMARK                         _______ _______ _______ _____ _____    ______ ____
ROOT
ATOM      3  O   UNL     1      -3.196   0.253  23.470  0.00  0.00    -0.275 OA
ATOM      6  N   UNL     1      -2.474   2.330  24.191  0.00  0.00    -0.287 N 
ATOM     12  C   UNL     1      -1.384   4.382  24.688  0.00  0.00    +0.094 C 
ATOM     13  C   UNL     1      -1.499   2.538  23.130  0.00  0.00    +0.164 C 
ATOM     14  C   UNL     1      -1.117   4.014  23.225  0.00  0.00    +0.055 C 
ATOM     15  C   UNL     1      -2.569   3.499  25.065  0.00  0.00    +0.131 C 
ATOM     23  C   UNL     1      -3.307   1.223  24.222  0.00  0.00    +0.226 C 
ENDROOT
BRANCH  12   7
ATOM      4  O   UNL     1      -1.069   2.223  26.562  0.00  0.00    -0.253 OA
ATOM      7  N   UNL     1      -0.238   4.125  25.523  0.00  0.00    -0.295 N 
ATOM      8  N   UNL     1       1.042   3.030  27.093  0.00  0.00    -0.297 N 
ATOM     24  C   UNL     1      -0.170   3.049  26.408  0.00  0.00    +0.300 C 
ATOM     38  H   UNL     1       0.581   4.719  25.432  0.00  0.00    +0.151 HD
ATOM     39  H   UNL     1       1.741   3.721  26.840  0.00  0.00    +0.151 HD
BRANCH   8  16
ATOM     16  C   UNL     1       1.381   2.023  28.073  0.00  0.00    +0.074 C 
ATOM     17  C   UNL     1       0.339   1.973  29.196  0.00  0.00    +0.022 C 
ATOM     18  C   UNL     1       2.790   2.253  28.633  0.00  0.00    +0.022 C 
ATOM     19  C   UNL     1       0.414   3.189  30.119  0.00  0.00    +0.002 C 
ATOM     20  C   UNL     1       2.861   3.468  29.557  0.00  0.00    +0.002 C 
ATOM     22  C   UNL     1       1.822   3.390  30.672  0.00  0.00    +0.000 C 
ENDBRANCH   8  16
ENDBRANCH  12   7
BRANCH  13  21
ATOM      2  O   UNL     1       0.621   1.999  24.084  0.00  0.00    -0.274 OA
ATOM      9  N   UNL     1      -0.425   0.440  22.709  0.00  0.00    -0.302 N 
ATOM     21  C   UNL     1      -0.320   1.647  23.377  0.00  0.00    +0.234 C 
ATOM     40  H   UNL     1      -1.294   0.219  22.229  0.00  0.00    +0.150 HD
BRANCH   9  25
ATOM     25  C   UNL     1       0.591  -0.587  22.764  0.00  0.00    +0.163 C 
BRANCH  25  29
ATOM      5  O   UNL     1       2.143  -0.086  20.963  0.00  0.00    -0.274 OA
ATOM     11  N   UNL     1       2.619   0.692  23.072  0.00  0.00    -0.328 N 
ATOM     29  C   UNL     1       1.855   0.002  22.154  0.00  0.00    +0.231 C 
ATOM     42  H   UNL     1       3.482   1.146  22.793  0.00  0.00    +0.145 HD
ATOM     43  H   UNL     1       2.356   0.775  24.048  0.00  0.00    +0.145 HD
ENDBRANCH  25  29
BRANCH  25  27
ATOM     27  C   UNL     1       0.859  -1.064  24.197  0.00  0.00    +0.069 C 
BRANCH  27  28
ATOM     10  N   UNL     1      -1.879  -0.941  26.648  0.00  0.00    -0.360 N 
ATOM     28  C   UNL     1      -0.392  -1.193  25.018  0.00  0.00    -0.020 A 
ATOM     30  C   UNL     1      -1.537  -1.976  24.700  0.00  0.00    +0.003 A 
ATOM     31  C   UNL     1      -0.632  -0.569  26.221  0.00  0.00    +0.087 A 
ATOM     32  C   UNL     1      -2.454  -1.801  25.738  0.00  0.00    +0.047 A 
ATOM     33  C   UNL     1      -1.883  -2.819  23.626  0.00  0.00    +0.010 A 
ATOM     35  C   UNL     1      -3.705  -2.429  25.757  0.00  0.00    +0.026 A 
ATOM     36  C   UNL     1      -3.131  -3.454  23.630  0.00  0.00    +0.001 A 
ATOM     37  C   UNL     1      -4.025  -3.261  24.680  0.00  0.00    +0.002 A 
ATOM     41  H   UNL     1      -2.313  -0.631  27.506  0.00  0.00    +0.165 HD
ENDBRANCH  27  28
ENDBRANCH  25  27
ENDBRANCH   9  25
ENDBRANCH  13  21
BRANCH  23  26
ATOM     26  C   UNL     1      -4.390   1.252  25.272  0.00  0.00    +0.164 C 
BRANCH  26   1
ATOM      1  S   UNL     1      -5.800   2.127  24.579  0.00  0.00    -0.155 S 
ATOM     34  C   UNL     1      -5.802   3.566  25.677  0.00  0.00    +0.085 C 
ENDBRANCH  26   1
ENDBRANCH  23  26
TORSDOF 9
ENDMDL
MODEL 6
REMARK VINA RESULT:       7.9      2.928      7.211
REMARK  Name = 11882030
REMARK  10 active torsions:
REMARK  status: ('A' for Active; 'I' for Inactive)
REMARK    1  A    between atoms: S_1  and  C_26
REMARK    2  A    between atoms: S_1  and  C_34
REMARK    3  A    between atoms: N_7  and  C_12
REMARK    4  A    between atoms: N_8  and  C_16
REMARK    5  A    between atoms: N_9  and  C_25
REMARK    6  A    between atoms: C_13  and  C_21
REMARK    7  A    between atoms: C_23  and  C_26
REMARK    8  A    between atoms: C_25  and  C_27
REMARK    9  A    between atoms: C_25  and  C_29
REMARK   10  A    between atoms: C_27  and  C_28
REMARK                            x       y       z     vdW  Elec       q    Type
REMARK                         _______ _______ _______ _____ _____    ______ ____
ROOT
ATOM      3  O   UNL     1      -4.384   3.512  23.085  0.00  0.00    -0.275 OA
ATOM      6  N   UNL     1      -2.624   3.396  24.583  0.00  0.00    -0.287 N 
ATOM     12  C   UNL     1      -0.603   3.091  25.794  0.00  0.00    +0.094 C 
ATOM     13  C   UNL     1      -1.576   3.233  23.586  0.00  0.00    +0.164 C 
ATOM     14  C   UNL     1      -0.269   3.456  24.345  0.00  0.00    +0.055 C 
ATOM     15  C   UNL     1      -2.068   3.494  25.932  0.00  0.00    +0.131 C 
ATOM     23  C   UNL     1      -3.949   3.605  24.234  0.00  0.00    +0.226 C 
ENDROOT
BRANCH  12   7
ATOM      4  O   UNL     1      -2.639   1.064  25.924  0.00  0.00    -0.253 OA
ATOM      7  N   UNL     1      -0.407   1.687  26.053  0.00  0.00    -0.295 N 
ATOM      8  N   UNL     1      -0.996  -0.516  26.364  0.00  0.00    -0.297 N 
ATOM     24  C   UNL     1      -1.457   0.770  26.098  0.00  0.00    +0.300 C 
ATOM     38  H   UNL     1       0.539   1.333  26.156  0.00  0.00    +0.151 HD
ATOM     39  H   UNL     1       0.007  -0.659  26.424  0.00  0.00    +0.151 HD
BRANCH   8  16
ATOM     16  C   UNL     1      -1.870  -1.664  26.467  0.00  0.00    +0.074 C 
ATOM     17  C   UNL     1      -1.546  -2.701  25.385  0.00  0.00    +0.022 C 
ATOM     18  C   UNL     1      -3.342  -1.242  26.409  0.00  0.00    +0.022 C 
ATOM     19  C   UNL     1      -1.973  -2.245  23.991  0.00  0.00    +0.002 C 
ATOM     20  C   UNL     1      -3.766  -0.789  25.012  0.00  0.00    +0.002 C 
ATOM     22  C   UNL     1      -3.445  -1.841  23.956  0.00  0.00    +0.000 C 
ENDBRANCH   8  16
ENDBRANCH  12   7
BRANCH  13  21
ATOM      2  O   UNL     1      -2.707   1.380  22.594  0.00  0.00    -0.274 OA
ATOM      9  N   UNL     1      -0.439   1.187  23.079  0.00  0.00    -0.302 N 
ATOM     21  C   UNL     1      -1.656   1.846  23.025  0.00  0.00    +0.234 C 
ATOM     40  H   UNL     1       0.386   1.705  23.369  0.00  0.00    +0.150 HD
BRANCH   9  25
ATOM     25  C   UNL     1      -0.253  -0.171  22.621  0.00  0.00    +0.163 C 
BRANCH  25  29
ATOM      5  O   UNL     1      -0.848   0.439  20.346  0.00  0.00    -0.274 OA
ATOM     11  N   UNL     1       1.116  -0.698  20.700  0.00  0.00    -0.328 N 
ATOM     29  C   UNL     1      -0.062  -0.111  21.112  0.00  0.00    +0.231 C 
ATOM     42  H   UNL     1       1.373  -0.715  19.719  0.00  0.00    +0.145 HD
ATOM     43  H   UNL     1       1.767  -1.129  21.348  0.00  0.00    +0.145 HD
ENDBRANCH  25  29
BRANCH  25  27
ATOM     27  C   UNL     1       0.950  -0.850  23.287  0.00  0.00    +0.069 C 
BRANCH  27  28
ATOM     10  N   UNL     1       3.567   1.717  23.008  0.00  0.00    -0.360 N 
ATOM     28  C   UNL     1       2.198  -0.015  23.241  0.00  0.00    -0.020 A 
ATOM     30  C   UNL     1       3.526  -0.463  23.486  0.00  0.00    +0.003 A 
ATOM     31  C   UNL     1       2.255   1.328  22.949  0.00  0.00    +0.087 A 
ATOM     32  C   UNL     1       4.366   0.643  23.334  0.00  0.00    +0.047 A 
ATOM     33  C   UNL     1       4.098  -1.705  23.825  0.00  0.00    +0.010 A 
ATOM     35  C   UNL     1       5.753   0.568  23.503  0.00  0.00    +0.026 A 
ATOM     36  C   UNL     1       5.484  -1.796  23.998  0.00  0.00    +0.001 A 
ATOM     37  C   UNL     1       6.296  -0.675  23.839  0.00  0.00    +0.002 A 
ATOM     41  H   UNL     1       3.902   2.655  22.836  0.00  0.00    +0.165 HD
ENDBRANCH  27  28
ENDBRANCH  25  27
ENDBRANCH   9  25
ENDBRANCH  13  21
BRANCH  23  26
ATOM     26  C   UNL     1      -4.876   3.950  25.372  0.00  0.00    +0.164 C 
BRANCH  26   1
ATOM      1  S   UNL     1      -5.490   2.408  26.066  0.00  0.00    -0.155 S 
ATOM     34  C   UNL     1      -6.500   1.856  24.669  0.00  0.00    +0.085 C 
ENDBRANCH  26   1
ENDBRANCH  23  26
TORSDOF 9
ENDMDL
MODEL 7
REMARK VINA RESULT:       8.0      3.104      6.697
REMARK  Name = 11882030
REMARK  10 active torsions:
REMARK  status: ('A' for Active; 'I' for Inactive)
REMARK    1  A    between atoms: S_1  and  C_26
REMARK    2  A    between atoms: S_1  and  C_34
REMARK    3  A    between atoms: N_7  and  C_12
REMARK    4  A    between atoms: N_8  and  C_16
REMARK    5  A    between atoms: N_9  and  C_25
REMARK    6  A    between atoms: C_13  and  C_21
REMARK    7  A    between atoms: C_23  and  C_26
REMARK    8  A    between atoms: C_25  and  C_27
REMARK    9  A    between atoms: C_25  and  C_29
REMARK   10  A    between atoms: C_27  and  C_28
REMARK                            x       y       z     vdW  Elec       q    Type
REMARK                         _______ _______ _______ _____ _____    ______ ____
ROOT
ATOM      3  O   UNL     1      -5.409   1.266  25.268  0.00  0.00    -0.275 OA
ATOM      6  N   UNL     1      -3.787   1.410  23.623  0.00  0.00    -0.287 N 
ATOM     12  C   UNL     1      -2.088   1.129  21.987  0.00  0.00    +0.094 C 
ATOM     13  C   UNL     1      -3.817   0.005  23.246  0.00  0.00    +0.164 C 
ATOM     14  C   UNL     1      -3.037  -0.071  21.935  0.00  0.00    +0.055 C 
ATOM     15  C   UNL     1      -2.880   2.173  22.768  0.00  0.00    +0.131 C 
ATOM     23  C   UNL     1      -4.658   1.941  24.562  0.00  0.00    +0.226 C 
ENDROOT
BRANCH  12   7
ATOM      4  O   UNL     1       0.136  -0.287  20.839  0.00  0.00    -0.253 OA
ATOM      7  N   UNL     1      -0.845   0.802  22.639  0.00  0.00    -0.295 N 
ATOM      8  N   UNL     1       1.272  -0.077  22.853  0.00  0.00    -0.297 N 
ATOM     24  C   UNL     1       0.185   0.109  22.003  0.00  0.00    +0.300 C 
ATOM     38  H   UNL     1      -0.684   1.132  23.586  0.00  0.00    +0.151 HD
ATOM     39  H   UNL     1       1.234   0.349  23.773  0.00  0.00    +0.151 HD
BRANCH   8  16
ATOM     16  C   UNL     1       2.479  -0.765  22.455  0.00  0.00    +0.074 C 
ATOM     17  C   UNL     1       3.310  -1.175  23.676  0.00  0.00    +0.022 C 
ATOM     18  C   UNL     1       3.304   0.087  21.484  0.00  0.00    +0.022 C 
ATOM     19  C   UNL     1       3.973   0.020  24.360  0.00  0.00    +0.002 C 
ATOM     20  C   UNL     1       3.967   1.280  22.171  0.00  0.00    +0.002 C 
ATOM     22  C   UNL     1       4.796   0.847  23.376  0.00  0.00    +0.000 C 
ENDBRANCH   8  16
ENDBRANCH  12   7
BRANCH  13  21
ATOM      2  O   UNL     1      -3.541  -1.929  24.618  0.00  0.00    -0.274 OA
ATOM      9  N   UNL     1      -2.120  -0.112  24.931  0.00  0.00    -0.302 N 
ATOM     21  C   UNL     1      -3.158  -0.799  24.325  0.00  0.00    +0.234 C 
ATOM     40  H   UNL     1      -1.830   0.781  24.542  0.00  0.00    +0.150 HD
BRANCH   9  25
ATOM     25  C   UNL     1      -1.337  -0.657  26.016  0.00  0.00    +0.163 C 
BRANCH  25  29
ATOM      5  O   UNL     1      -0.461  -2.072  24.245  0.00  0.00    -0.274 OA
ATOM     11  N   UNL     1       0.534  -2.159  26.314  0.00  0.00    -0.328 N 
ATOM     29  C   UNL     1      -0.408  -1.704  25.415  0.00  0.00    +0.231 C 
ATOM     42  H   UNL     1       1.224  -2.850  26.038  0.00  0.00    +0.145 HD
ATOM     43  H   UNL     1       0.579  -1.829  27.272  0.00  0.00    +0.145 HD
ENDBRANCH  25  29
BRANCH  25  27
ATOM     27  C   UNL     1      -0.527   0.420  26.749  0.00  0.00    +0.069 C 
BRANCH  27  28
ATOM     10  N   UNL     1       0.721   2.964  24.407  0.00  0.00    -0.360 N 
ATOM     28  C   UNL     1      -0.233   1.619  25.893  0.00  0.00    -0.020 A 
ATOM     30  C   UNL     1      -0.952   2.846  25.878  0.00  0.00    +0.003 A 
ATOM     31  C   UNL     1       0.790   1.722  24.978  0.00  0.00    +0.087 A 
ATOM     32  C   UNL     1      -0.333   3.673  24.937  0.00  0.00    +0.047 A 
ATOM     33  C   UNL     1      -2.074   3.336  26.575  0.00  0.00    +0.010 A 
ATOM     35  C   UNL     1      -0.781   4.969  24.658  0.00  0.00    +0.026 A 
ATOM     36  C   UNL     1      -2.534   4.631  26.307  0.00  0.00    +0.001 A 
ATOM     37  C   UNL     1      -1.895   5.432  25.363  0.00  0.00    +0.002 A 
ATOM     41  H   UNL     1       1.354   3.311  23.698  0.00  0.00    +0.165 HD
ENDBRANCH  27  28
ENDBRANCH  25  27
ENDBRANCH   9  25
ENDBRANCH  13  21
BRANCH  23  26
ATOM     26  C   UNL     1      -4.632   3.443  24.698  0.00  0.00    +0.164 C 
BRANCH  26   1
ATOM      1  S   UNL     1      -5.872   3.904  25.917  0.00  0.00    -0.155 S 
ATOM     34  C   UNL     1      -6.322   5.528  25.257  0.00  0.00    +0.085 C 
ENDBRANCH  26   1
ENDBRANCH  23  26
TORSDOF 9
ENDMDL
MODEL 8
REMARK VINA RESULT:       8.1      3.044      5.333
REMARK  Name = 11882030
REMARK  10 active torsions:
REMARK  status: ('A' for Active; 'I' for Inactive)
REMARK    1  A    between atoms: S_1  and  C_26
REMARK    2  A    between atoms: S_1  and  C_34
REMARK    3  A    between atoms: N_7  and  C_12
REMARK    4  A    between atoms: N_8  and  C_16
REMARK    5  A    between atoms: N_9  and  C_25
REMARK    6  A    between atoms: C_13  and  C_21
REMARK    7  A    between atoms: C_23  and  C_26
REMARK    8  A    between atoms: C_25  and  C_27
REMARK    9  A    between atoms: C_25  and  C_29
REMARK   10  A    between atoms: C_27  and  C_28
REMARK                            x       y       z     vdW  Elec       q    Type
REMARK                         _______ _______ _______ _____ _____    ______ ____
ROOT
ATOM      3  O   UNL     1      -1.886   5.569  24.727  0.00  0.00    -0.275 OA
ATOM      6  N   UNL     1      -1.318   3.674  25.929  0.00  0.00    -0.287 N 
ATOM     12  C   UNL     1      -0.391   1.715  26.901  0.00  0.00    +0.094 C 
ATOM     13  C   UNL     1       0.091   3.669  25.563  0.00  0.00    +0.164 C 
ATOM     14  C   UNL     1       0.744   2.667  26.513  0.00  0.00    +0.055 C 
ATOM     15  C   UNL     1      -1.626   2.610  26.883  0.00  0.00    +0.131 C 
ATOM     23  C   UNL     1      -2.179   4.687  25.535  0.00  0.00    +0.226 C 
ENDROOT
BRANCH  12   7
ATOM      4  O   UNL     1      -1.455  -0.899  27.456  0.00  0.00    -0.253 OA
ATOM      7  N   UNL     1      -0.511   0.618  25.975  0.00  0.00    -0.295 N 
ATOM      8  N   UNL     1      -1.043  -1.502  25.253  0.00  0.00    -0.297 N 
ATOM     24  C   UNL     1      -1.042  -0.622  26.331  0.00  0.00    +0.300 C 
ATOM     38  H   UNL     1      -0.247   0.762  25.004  0.00  0.00    +0.151 HD
ATOM     39  H   UNL     1      -0.741  -1.149  24.350  0.00  0.00    +0.151 HD
BRANCH   8  16
ATOM     16  C   UNL     1      -1.538  -2.858  25.339  0.00  0.00    +0.074 C 
ATOM     17  C   UNL     1      -1.663  -3.489  23.948  0.00  0.00    +0.022 C 
ATOM     18  C   UNL     1      -2.871  -2.910  26.094  0.00  0.00    +0.022 C 
ATOM     19  C   UNL     1      -2.821  -2.901  23.141  0.00  0.00    +0.002 C 
ATOM     20  C   UNL     1      -4.026  -2.323  25.284  0.00  0.00    +0.002 C 
ATOM     22  C   UNL     1      -4.137  -2.974  23.909  0.00  0.00    +0.000 C 
ENDBRANCH   8  16
ENDBRANCH  12   7
BRANCH  13  21
ATOM      2  O   UNL     1       0.360   4.041  23.221  0.00  0.00    -0.274 OA
ATOM      9  N   UNL     1       0.129   1.859  23.996  0.00  0.00    -0.302 N 
ATOM     21  C   UNL     1       0.217   3.233  24.135  0.00  0.00    +0.234 C 
ATOM     40  H   UNL     1       0.105   1.282  24.832  0.00  0.00    +0.150 HD
BRANCH   9  25
ATOM     25  C   UNL     1       0.198   1.186  22.719  0.00  0.00    +0.163 C 
BRANCH  25  29
ATOM      5  O   UNL     1       1.202  -0.860  23.560  0.00  0.00    -0.274 OA
ATOM     11  N   UNL     1       2.347   0.358  21.985  0.00  0.00    -0.328 N 
ATOM     29  C   UNL     1       1.283   0.124  22.831  0.00  0.00    +0.231 C 
ATOM     42  H   UNL     1       3.134  -0.283  21.951  0.00  0.00    +0.145 HD
ATOM     43  H   UNL     1       2.390   1.164  21.371  0.00  0.00    +0.145 HD
ENDBRANCH  25  29
BRANCH  25  27
ATOM     27  C   UNL     1      -1.139   0.547  22.324  0.00  0.00    +0.069 C 
BRANCH  27  28
ATOM     10  N   UNL     1      -3.777   3.107  22.410  0.00  0.00    -0.360 N 
ATOM     28  C   UNL     1      -2.318   1.442  22.581  0.00  0.00    -0.020 A 
ATOM     30  C   UNL     1      -3.301   1.278  23.597  0.00  0.00    +0.003 A 
ATOM     31  C   UNL     1      -2.637   2.574  21.868  0.00  0.00    +0.087 A 
ATOM     32  C   UNL     1      -4.204   2.335  23.467  0.00  0.00    +0.047 A 
ATOM     33  C   UNL     1      -3.510   0.329  24.617  0.00  0.00    +0.010 A 
ATOM     35  C   UNL     1      -5.310   2.492  24.310  0.00  0.00    +0.026 A 
ATOM     36  C   UNL     1      -4.612   0.472  25.468  0.00  0.00    +0.001 A 
ATOM     37  C   UNL     1      -5.496   1.539  25.315  0.00  0.00    +0.002 A 
ATOM     41  H   UNL     1      -4.238   3.944  22.082  0.00  0.00    +0.165 HD
ENDBRANCH  27  28
ENDBRANCH  25  27
ENDBRANCH   9  25
ENDBRANCH  13  21
BRANCH  23  26
ATOM     26  C   UNL     1      -3.553   4.651  26.156  0.00  0.00    +0.164 C 
BRANCH  26   1
ATOM      1  S   UNL     1      -4.714   5.317  24.955  0.00  0.00    -0.155 S 
ATOM     34  C   UNL     1      -6.258   4.960  25.831  0.00  0.00    +0.085 C 
ENDBRANCH  26   1
ENDBRANCH  23  26
TORSDOF 9
ENDMDL
MODEL 9
REMARK VINA RESULT:       8.2      2.482      5.920
REMARK  Name = 11882030
REMARK  10 active torsions:
REMARK  status: ('A' for Active; 'I' for Inactive)
REMARK    1  A    between atoms: S_1  and  C_26
REMARK    2  A    between atoms: S_1  and  C_34
REMARK    3  A    between atoms: N_7  and  C_12
REMARK    4  A    between atoms: N_8  and  C_16
REMARK    5  A    between atoms: N_9  and  C_25
REMARK    6  A    between atoms: C_13  and  C_21
REMARK    7  A    between atoms: C_23  and  C_26
REMARK    8  A    between atoms: C_25  and  C_27
REMARK    9  A    between atoms: C_25  and  C_29
REMARK   10  A    between atoms: C_27  and  C_28
REMARK                            x       y       z     vdW  Elec       q    Type
REMARK                         _______ _______ _______ _____ _____    ______ ____
ROOT
ATOM      3  O   UNL     1      -3.816   0.069  25.611  0.00  0.00    -0.275 OA
ATOM      6  N   UNL     1      -1.895  -0.862  24.717  0.00  0.00    -0.287 N 
ATOM     12  C   UNL     1       0.279  -1.613  24.124  0.00  0.00    +0.094 C 
ATOM     13  C   UNL     1      -1.077  -0.719  25.913  0.00  0.00    +0.164 C 
ATOM     14  C   UNL     1       0.163  -1.572  25.651  0.00  0.00    +0.055 C 
ATOM     15  C   UNL     1      -1.171  -1.561  23.656  0.00  0.00    +0.131 C 
ATOM     23  C   UNL     1      -3.238  -0.521  24.697  0.00  0.00    +0.226 C 
ENDROOT
BRANCH  12   7
ATOM      4  O   UNL     1       3.074  -1.623  23.446  0.00  0.00    -0.253 OA
ATOM      7  N   UNL     1       1.047  -0.505  23.615  0.00  0.00    -0.295 N 
ATOM      8  N   UNL     1       2.904   0.611  22.839  0.00  0.00    -0.297 N 
ATOM     24  C   UNL     1       2.405  -0.599  23.311  0.00  0.00    +0.300 C 
ATOM     38  H   UNL     1       0.574   0.372  23.417  0.00  0.00    +0.151 HD
ATOM     39  H   UNL     1       2.250   1.375  22.703  0.00  0.00    +0.151 HD
BRANCH   8  16
ATOM     16  C   UNL     1       4.283   0.800  22.448  0.00  0.00    +0.074 C 
ATOM     17  C   UNL     1       4.966  -0.544  22.166  0.00  0.00    +0.022 C 
ATOM     18  C   UNL     1       5.051   1.601  23.505  0.00  0.00    +0.022 C 
ATOM     19  C   UNL     1       5.223  -1.347  23.441  0.00  0.00    +0.002 C 
ATOM     20  C   UNL     1       5.309   0.794  24.777  0.00  0.00    +0.002 C 
ATOM     22  C   UNL     1       5.998  -0.533  24.473  0.00  0.00    +0.000 C 
ENDBRANCH   8  16
ENDBRANCH  12   7
BRANCH  13  21
ATOM      2  O   UNL     1      -0.259   1.158  27.139  0.00  0.00    -0.274 OA
ATOM      9  N   UNL     1      -1.000   1.473  24.955  0.00  0.00    -0.302 N 
ATOM     21  C   UNL     1      -0.722   0.726  26.086  0.00  0.00    +0.234 C 
ATOM     40  H   UNL     1      -1.293   0.992  24.109  0.00  0.00    +0.150 HD
BRANCH   9  25
ATOM     25  C   UNL     1      -0.770   2.898  24.871  0.00  0.00    +0.163 C 
BRANCH  25  29
ATOM      5  O   UNL     1       1.386   2.342  23.897  0.00  0.00    -0.274 OA
ATOM     11  N   UNL     1       0.289   4.214  23.143  0.00  0.00    -0.328 N 
ATOM     29  C   UNL     1       0.424   3.105  23.950  0.00  0.00    +0.231 C 
ATOM     42  H   UNL     1       1.009   4.460  22.471  0.00  0.00    +0.145 HD
ATOM     43  H   UNL     1      -0.522   4.823  23.182  0.00  0.00    +0.145 HD
ENDBRANCH  25  29
BRANCH  25  27
ATOM     27  C   UNL     1      -1.994   3.654  24.339  0.00  0.00    +0.069 C 
BRANCH  27  28
ATOM     10  N   UNL     1      -4.428   4.010  27.071  0.00  0.00    -0.360 N 
ATOM     28  C   UNL     1      -3.156   3.636  25.291  0.00  0.00    -0.020 A 
ATOM     30  C   UNL     1      -4.399   2.969  25.097  0.00  0.00    +0.003 A 
ATOM     31  C   UNL     1      -3.205   4.266  26.513  0.00  0.00    +0.087 A 
ATOM     32  C   UNL     1      -5.178   3.220  26.229  0.00  0.00    +0.047 A 
ATOM     33  C   UNL     1      -4.937   2.175  24.066  0.00  0.00    +0.010 A 
ATOM     35  C   UNL     1      -6.474   2.713  26.382  0.00  0.00    +0.026 A 
ATOM     36  C   UNL     1      -6.232   1.662  24.204  0.00  0.00    +0.001 A 
ATOM     37  C   UNL     1      -6.986   1.928  25.345  0.00  0.00    +0.002 A 
ATOM     41  H   UNL     1      -4.737   4.350  27.972  0.00  0.00    +0.165 HD
ENDBRANCH  27  28
ENDBRANCH  25  27
ENDBRANCH   9  25
ENDBRANCH  13  21
BRANCH  23  26
ATOM     26  C   UNL     1      -3.989  -0.910  23.448  0.00  0.00    +0.164 C 
BRANCH  26   1
ATOM      1  S   UNL     1      -4.678  -2.550  23.712  0.00  0.00    -0.155 S 
ATOM     34  C   UNL     1      -3.507  -3.148  24.956  0.00  0.00    +0.085 C 
ENDBRANCH  26   1
ENDBRANCH  23  26
TORSDOF 9
ENDMDL
MODEL 10
REMARK VINA RESULT:       8.2      2.741      6.832
REMARK  Name = 11882030
REMARK  10 active torsions:
REMARK  status: ('A' for Active; 'I' for Inactive)
REMARK    1  A    between atoms: S_1  and  C_26
REMARK    2  A    between atoms: S_1  and  C_34
REMARK    3  A    between atoms: N_7  and  C_12
REMARK    4  A    between atoms: N_8  and  C_16
REMARK    5  A    between atoms: N_9  and  C_25
REMARK    6  A    between atoms: C_13  and  C_21
REMARK    7  A    between atoms: C_23  and  C_26
REMARK    8  A    between atoms: C_25  and  C_27
REMARK    9  A    between atoms: C_25  and  C_29
REMARK   10  A    between atoms: C_27  and  C_28
REMARK                            x       y       z     vdW  Elec       q    Type
REMARK                         _______ _______ _______ _____ _____    ______ ____
ROOT
ATOM      3  O   UNL     1      -3.204   3.767  27.396  0.00  0.00    -0.275 OA
ATOM      6  N   UNL     1      -1.272   3.587  26.135  0.00  0.00    -0.287 N 
ATOM     12  C   UNL     1       0.442   3.365  24.505  0.00  0.00    +0.094 C 
ATOM     13  C   UNL     1      -1.882   3.928  24.858  0.00  0.00    +0.164 C 
ATOM     14  C   UNL     1      -0.709   4.186  23.914  0.00  0.00    +0.055 C 
ATOM     15  C   UNL     1       0.174   3.408  26.006  0.00  0.00    +0.131 C 
ATOM     23  C   UNL     1      -1.984   3.615  27.324  0.00  0.00    +0.226 C 
ENDROOT
BRANCH  12   7
ATOM      4  O   UNL     1       2.642   2.018  23.232  0.00  0.00    -0.253 OA
ATOM      7  N   UNL     1       0.451   2.015  24.001  0.00  0.00    -0.295 N 
ATOM      8  N   UNL     1       1.312   0.130  22.999  0.00  0.00    -0.297 N 
ATOM     24  C   UNL     1       1.568   1.439  23.395  0.00  0.00    +0.300 C 
ATOM     38  H   UNL     1      -0.370   1.433  24.136  0.00  0.00    +0.151 HD
ATOM     39  H   UNL     1       0.413  -0.274  23.243  0.00  0.00    +0.151 HD
BRANCH   8  16
ATOM     16  C   UNL     1       2.294  -0.705  22.344  0.00  0.00    +0.074 C 
ATOM     17  C   UNL     1       3.096  -1.519  23.366  0.00  0.00    +0.022 C 
ATOM     18  C   UNL     1       3.219   0.129  21.451  0.00  0.00    +0.022 C 
ATOM     19  C   UNL     1       4.067  -0.654  24.170  0.00  0.00    +0.002 C 
ATOM     20  C   UNL     1       4.190   0.991  22.257  0.00  0.00    +0.002 C 
ATOM     22  C   UNL     1       4.984   0.158  23.259  0.00  0.00    +0.000 C 
ENDBRANCH   8  16
ENDBRANCH  12   7
BRANCH  13  21
ATOM      2  O   UNL     1      -2.541   2.244  23.301  0.00  0.00    -0.274 OA
ATOM      9  N   UNL     1      -3.677   2.415  25.326  0.00  0.00    -0.302 N 
ATOM     21  C   UNL     1      -2.715   2.772  24.397  0.00  0.00    +0.234 C 
ATOM     40  H   UNL     1      -3.667   2.861  26.239  0.00  0.00    +0.150 HD
BRANCH   9  25
ATOM     25  C   UNL     1      -4.624   1.344  25.113  0.00  0.00    +0.163 C 
BRANCH  25  29
ATOM      5  O   UNL     1      -6.975   1.490  24.518  0.00  0.00    -0.274 OA
ATOM     11  N   UNL     1      -6.088   3.102  25.893  0.00  0.00    -0.328 N 
ATOM     29  C   UNL     1      -6.012   1.968  25.112  0.00  0.00    +0.231 C 
ATOM     42  H   UNL     1      -6.961   3.608  25.991  0.00  0.00    +0.145 HD
ATOM     43  H   UNL     1      -5.288   3.472  26.397  0.00  0.00    +0.145 HD
ENDBRANCH  25  29
BRANCH  25  27
ATOM     27  C   UNL     1      -4.371   0.597  23.797  0.00  0.00    +0.069 C 
BRANCH  27  28
ATOM     10  N   UNL     1      -3.676  -3.006  24.023  0.00  0.00    -0.360 N 
ATOM     28  C   UNL     1      -3.837  -0.792  24.002  0.00  0.00    -0.020 A 
ATOM     30  C   UNL     1      -2.573  -1.140  24.555  0.00  0.00    +0.003 A 
ATOM     31  C   UNL     1      -4.492  -1.960  23.684  0.00  0.00    +0.087 A 
ATOM     32  C   UNL     1      -2.498  -2.535  24.557  0.00  0.00    +0.047 A 
ATOM     33  C   UNL     1      -1.483  -0.402  25.056  0.00  0.00    +0.010 A 
ATOM     35  C   UNL     1      -1.382  -3.231  25.037  0.00  0.00    +0.026 A 
ATOM     36  C   UNL     1      -0.360  -1.084  25.539  0.00  0.00    +0.001 A 
ATOM     37  C   UNL     1      -0.313  -2.477  25.529  0.00  0.00    +0.002 A 
ATOM     41  H   UNL     1      -3.905  -3.983  23.899  0.00  0.00    +0.165 HD
ENDBRANCH  27  28
ENDBRANCH  25  27
ENDBRANCH   9  25
ENDBRANCH  13  21
BRANCH  23  26
ATOM     26  C   UNL     1      -1.165   3.429  28.577  0.00  0.00    +0.164 C 
BRANCH  26   1
ATOM      1  S   UNL     1       0.171   2.288  28.194  0.00  0.00    -0.155 S 
ATOM     34  C   UNL     1       1.173   2.520  29.683  0.00  0.00    +0.085 C 
ENDBRANCH  26   1
ENDBRANCH  23  26
TORSDOF 9
ENDMDL
