MODEL 1
REMARK VINA RESULT:       4.1      0.000      0.000
REMARK  Name = 40777135
REMARK  6 active torsions:
REMARK  status: ('A' for Active; 'I' for Inactive)
REMARK    1  A    between atoms: N_4  and  C_15
REMARK    2  A    between atoms: N_7  and  C_25
REMARK    3  A    between atoms: C_9  and  C_16
REMARK    4  A    between atoms: C_10  and  C_15
REMARK    5  A    between atoms: C_18  and  C_21
REMARK    6  A    between atoms: C_19  and  C_22
REMARK                            x       y       z     vdW  Elec       q    Type
REMARK                         _______ _______ _______ _____ _____    ______ ____
ROOT
ATOM      3  N   UNL     1      -3.143  -2.191  23.531  0.00  0.00    -0.297 NA
ATOM      8  C   UNL     1      -3.202  -1.369  26.001  0.00  0.00    +0.002 C 
ATOM      9  C   UNL     1      -4.265  -0.617  25.152  0.00  0.00    +0.055 C 
ATOM     10  C   UNL     1      -1.770  -1.848  23.986  0.00  0.00    +0.074 C 
ATOM     11  C   UNL     1      -1.809  -1.166  25.370  0.00  0.00    +0.024 C 
ATOM     12  C   UNL     1      -3.533  -2.874  25.898  0.00  0.00    +0.019 C 
ATOM     13  C   UNL     1      -4.032  -1.011  23.665  0.00  0.00    +0.094 C 
ATOM     14  C   UNL     1      -3.660  -3.264  24.415  0.00  0.00    +0.085 C 
ENDROOT
BRANCH   9  16
ATOM      5  N   UNL     1      -5.608   1.346  25.720  0.00  0.00    -0.237 NA
ATOM      6  N   UNL     1      -4.701   3.578  25.680  0.00  0.00    -0.232 NA
ATOM     16  C   UNL     1      -4.399   0.888  25.336  0.00  0.00    +0.050 A 
ATOM     17  C   UNL     1      -3.308   1.701  25.106  0.00  0.00    +0.052 A 
ATOM     18  C   UNL     1      -3.520   3.052  25.296  0.00  0.00    +0.076 A 
ATOM     19  C   UNL     1      -5.688   2.682  25.871  0.00  0.00    +0.127 A 
ATOM     22  C   UNL     1      -7.010   3.227  26.294  0.00  0.00    +0.088 C 
BRANCH  18  21
ATOM      1 BR   UNL     1      -0.571   1.959  25.880  0.00  0.00    -0.050 Br
ATOM     21  C   UNL     1      -2.459   4.008  25.088  0.00  0.00    +0.014 A 
ATOM     23  C   UNL     1      -1.119   3.684  25.300  0.00  0.00    +0.027 A 
ATOM     24  C   UNL     1      -2.809   5.290  24.662  0.00  0.00    +0.011 A 
ATOM     26  C   UNL     1      -0.128   4.642  25.086  0.00  0.00    +0.016 A 
ATOM     27  C   UNL     1      -1.817   6.247  24.448  0.00  0.00    +0.001 A 
ATOM     28  C   UNL     1      -0.477   5.924  24.660  0.00  0.00    +0.001 A 
ENDBRANCH  18  21
ENDBRANCH   9  16
BRANCH  10  15
ATOM     15  C   UNL     1      -1.008  -1.010  22.958  0.00  0.00    +0.124 C 
BRANCH  15   4
ATOM      2  O   UNL     1       1.195   0.716  23.570  0.00  0.00    -0.253 OA
ATOM      4  N   UNL     1       0.380  -1.357  22.943  0.00  0.00    -0.298 N 
ATOM      7  N   UNL     1       2.660  -1.072  23.156  0.00  0.00    -0.269 N 
ATOM     20  C   UNL     1       1.411  -0.453  23.257  0.00  0.00    +0.304 C 
ATOM     34  H   UNL     1       0.634  -2.306  22.687  0.00  0.00    +0.150 HD
ATOM     35  H   UNL     1       2.663  -2.051  22.882  0.00  0.00    +0.156 HD
BRANCH   7  25
ATOM     25  C   UNL     1       3.932  -0.501  23.391  0.00  0.00    +0.035 A 
ATOM     29  C   UNL     1       4.941  -1.264  23.981  0.00  0.00    +0.023 A 
ATOM     30  C   UNL     1       4.180   0.824  23.032  0.00  0.00    +0.023 A 
ATOM     31  C   UNL     1       6.196  -0.701  24.212  0.00  0.00    +0.002 A 
ATOM     32  C   UNL     1       5.435   1.387  23.264  0.00  0.00    +0.002 A 
ATOM     33  C   UNL     1       6.443   0.625  23.854  0.00  0.00    +0.000 A 
ENDBRANCH   7  25
ENDBRANCH  15   4
ENDBRANCH  10  15
TORSDOF 5
ENDMDL
MODEL 2
REMARK VINA RESULT:       6.3      2.165      6.958
REMARK  Name = 40777135
REMARK  6 active torsions:
REMARK  status: ('A' for Active; 'I' for Inactive)
REMARK    1  A    between atoms: N_4  and  C_15
REMARK    2  A    between atoms: N_7  and  C_25
REMARK    3  A    between atoms: C_9  and  C_16
REMARK    4  A    between atoms: C_10  and  C_15
REMARK    5  A    between atoms: C_18  and  C_21
REMARK    6  A    between atoms: C_19  and  C_22
REMARK                            x       y       z     vdW  Elec       q    Type
REMARK                         _______ _______ _______ _____ _____    ______ ____
ROOT
ATOM      3  N   UNL     1      -4.094   4.544  23.999  0.00  0.00    -0.297 NA
ATOM      8  C   UNL     1      -2.003   4.674  25.546  0.00  0.00    +0.002 C 
ATOM      9  C   UNL     1      -1.693   3.824  24.282  0.00  0.00    +0.055 C 
ATOM     10  C   UNL     1      -4.472   4.199  25.394  0.00  0.00    +0.074 C 
ATOM     11  C   UNL     1      -3.216   4.068  26.282  0.00  0.00    +0.024 C 
ATOM     12  C   UNL     1      -2.426   6.073  25.048  0.00  0.00    +0.019 C 
ATOM     13  C   UNL     1      -3.033   3.625  23.517  0.00  0.00    +0.094 C 
ATOM     14  C   UNL     1      -3.545   5.922  24.004  0.00  0.00    +0.085 C 
ENDROOT
BRANCH   9  16
ATOM      5  N   UNL     1      -1.462   1.621  25.321  0.00  0.00    -0.237 NA
ATOM      6  N   UNL     1       0.389   0.158  24.832  0.00  0.00    -0.232 NA
ATOM     16  C   UNL     1      -0.932   2.518  24.463  0.00  0.00    +0.050 A 
ATOM     17  C   UNL     1       0.239   2.310  23.764  0.00  0.00    +0.052 A 
ATOM     18  C   UNL     1       0.863   1.100  23.990  0.00  0.00    +0.076 A 
ATOM     19  C   UNL     1      -0.760   0.480  25.456  0.00  0.00    +0.127 A 
ATOM     22  C   UNL     1      -1.315  -0.536  26.397  0.00  0.00    +0.088 C 
BRANCH  18  21
ATOM      1 BR   UNL     1       0.530  -0.646  21.331  0.00  0.00    -0.050 Br
ATOM     21  C   UNL     1       2.096   0.761  23.321  0.00  0.00    +0.014 A 
ATOM     23  C   UNL     1       2.117   0.004  22.149  0.00  0.00    +0.027 A 
ATOM     24  C   UNL     1       3.291   1.214  23.882  0.00  0.00    +0.011 A 
ATOM     26  C   UNL     1       3.334  -0.299  21.537  0.00  0.00    +0.016 A 
ATOM     27  C   UNL     1       4.506   0.910  23.270  0.00  0.00    +0.001 A 
ATOM     28  C   UNL     1       4.529   0.154  22.098  0.00  0.00    +0.001 A 
ENDBRANCH  18  21
ENDBRANCH   9  16
BRANCH  10  15
ATOM     15  C   UNL     1      -5.354   2.951  25.467  0.00  0.00    +0.124 C 
BRANCH  15   4
ATOM      2  O   UNL     1      -4.520   0.295  26.138  0.00  0.00    -0.253 OA
ATOM      4  N   UNL     1      -4.892   1.945  24.560  0.00  0.00    -0.298 N 
ATOM      7  N   UNL     1      -4.094  -0.105  23.863  0.00  0.00    -0.269 N 
ATOM     20  C   UNL     1      -4.497   0.657  24.964  0.00  0.00    +0.304 C 
ATOM     34  H   UNL     1      -4.842   2.176  23.573  0.00  0.00    +0.150 HD
ATOM     35  H   UNL     1      -4.135   0.349  22.954  0.00  0.00    +0.156 HD
BRANCH   7  25
ATOM     25  C   UNL     1      -3.631  -1.441  23.857  0.00  0.00    +0.035 A 
ATOM     29  C   UNL     1      -2.261  -1.704  23.912  0.00  0.00    +0.023 A 
ATOM     30  C   UNL     1      -4.541  -2.496  23.796  0.00  0.00    +0.023 A 
ATOM     31  C   UNL     1      -1.804  -3.022  23.906  0.00  0.00    +0.002 A 
ATOM     32  C   UNL     1      -4.084  -3.813  23.789  0.00  0.00    +0.002 A 
ATOM     33  C   UNL     1      -2.716  -4.077  23.844  0.00  0.00    +0.000 A 
ENDBRANCH   7  25
ENDBRANCH  15   4
ENDBRANCH  10  15
TORSDOF 5
ENDMDL
MODEL 3
REMARK VINA RESULT:       7.1      1.193      1.708
REMARK  Name = 40777135
REMARK  6 active torsions:
REMARK  status: ('A' for Active; 'I' for Inactive)
REMARK    1  A    between atoms: N_4  and  C_15
REMARK    2  A    between atoms: N_7  and  C_25
REMARK    3  A    between atoms: C_9  and  C_16
REMARK    4  A    between atoms: C_10  and  C_15
REMARK    5  A    between atoms: C_18  and  C_21
REMARK    6  A    between atoms: C_19  and  C_22
REMARK                            x       y       z     vdW  Elec       q    Type
REMARK                         _______ _______ _______ _____ _____    ______ ____
ROOT
ATOM      3  N   UNL     1      -2.435  -2.466  23.536  0.00  0.00    -0.297 NA
ATOM      8  C   UNL     1      -4.748  -1.937  24.610  0.00  0.00    +0.002 C 
ATOM      9  C   UNL     1      -4.206  -0.695  23.849  0.00  0.00    +0.055 C 
ATOM     10  C   UNL     1      -2.434  -2.866  24.967  0.00  0.00    +0.074 C 
ATOM     11  C   UNL     1      -3.717  -2.374  25.671  0.00  0.00    +0.024 C 
ATOM     12  C   UNL     1      -4.852  -3.082  23.579  0.00  0.00    +0.019 C 
ATOM     13  C   UNL     1      -2.748  -1.020  23.412  0.00  0.00    +0.094 C 
ATOM     14  C   UNL     1      -3.506  -3.231  22.850  0.00  0.00    +0.085 C 
ENDROOT
BRANCH   9  16
ATOM      5  N   UNL     1      -5.445   0.905  25.221  0.00  0.00    -0.237 NA
ATOM      6  N   UNL     1      -4.578   3.091  25.745  0.00  0.00    -0.232 NA
ATOM     16  C   UNL     1      -4.318   0.666  24.520  0.00  0.00    +0.050 A 
ATOM     17  C   UNL     1      -3.290   1.577  24.387  0.00  0.00    +0.052 A 
ATOM     18  C   UNL     1      -3.477   2.785  25.027  0.00  0.00    +0.076 A 
ATOM     19  C   UNL     1      -5.509   2.119  25.800  0.00  0.00    +0.127 A 
ATOM     22  C   UNL     1      -6.742   2.421  26.583  0.00  0.00    +0.088 C 
BRANCH  18  21
ATOM      1 BR   UNL     1      -0.485   1.828  25.627  0.00  0.00    -0.050 Br
ATOM     21  C   UNL     1      -2.477   3.824  24.964  0.00  0.00    +0.014 A 
ATOM     23  C   UNL     1      -1.127   3.566  25.201  0.00  0.00    +0.027 A 
ATOM     24  C   UNL     1      -2.897   5.118  24.655  0.00  0.00    +0.011 A 
ATOM     26  C   UNL     1      -0.196   4.602  25.128  0.00  0.00    +0.016 A 
ATOM     27  C   UNL     1      -1.965   6.154  24.583  0.00  0.00    +0.001 A 
ATOM     28  C   UNL     1      -0.616   5.897  24.820  0.00  0.00    +0.001 A 
ENDBRANCH  18  21
ENDBRANCH   9  16
BRANCH  10  15
ATOM     15  C   UNL     1      -1.171  -2.410  25.698  0.00  0.00    +0.124 C 
BRANCH  15   4
ATOM      2  O   UNL     1       1.664  -2.445  25.288  0.00  0.00    -0.253 OA
ATOM      4  N   UNL     1      -0.412  -1.504  24.890  0.00  0.00    -0.298 N 
ATOM      7  N   UNL     1       1.446  -0.569  23.892  0.00  0.00    -0.269 N 
ATOM     20  C   UNL     1       0.983  -1.583  24.736  0.00  0.00    +0.304 C 
ATOM     34  H   UNL     1      -0.908  -0.762  24.408  0.00  0.00    +0.150 HD
ATOM     35  H   UNL     1       0.747   0.066  23.516  0.00  0.00    +0.156 HD
BRANCH   7  25
ATOM     25  C   UNL     1       2.778  -0.314  23.492  0.00  0.00    +0.035 A 
ATOM     29  C   UNL     1       3.074   0.818  22.733  0.00  0.00    +0.023 A 
ATOM     30  C   UNL     1       3.798  -1.194  23.857  0.00  0.00    +0.023 A 
ATOM     31  C   UNL     1       4.388   1.070  22.339  0.00  0.00    +0.002 A 
ATOM     32  C   UNL     1       5.111  -0.942  23.462  0.00  0.00    +0.002 A 
ATOM     33  C   UNL     1       5.407   0.190  22.703  0.00  0.00    +0.000 A 
ENDBRANCH   7  25
ENDBRANCH  15   4
ENDBRANCH  10  15
TORSDOF 5
ENDMDL
MODEL 4
REMARK VINA RESULT:       7.4      2.681      5.819
REMARK  Name = 40777135
REMARK  6 active torsions:
REMARK  status: ('A' for Active; 'I' for Inactive)
REMARK    1  A    between atoms: N_4  and  C_15
REMARK    2  A    between atoms: N_7  and  C_25
REMARK    3  A    between atoms: C_9  and  C_16
REMARK    4  A    between atoms: C_10  and  C_15
REMARK    5  A    between atoms: C_18  and  C_21
REMARK    6  A    between atoms: C_19  and  C_22
REMARK                            x       y       z     vdW  Elec       q    Type
REMARK                         _______ _______ _______ _____ _____    ______ ____
ROOT
ATOM      3  N   UNL     1      -4.218   3.494  25.608  0.00  0.00    -0.297 NA
ATOM      8  C   UNL     1      -5.291   1.621  24.151  0.00  0.00    +0.002 C 
ATOM      9  C   UNL     1      -4.373   1.002  25.242  0.00  0.00    +0.055 C 
ATOM     10  C   UNL     1      -4.028   3.799  24.166  0.00  0.00    +0.074 C 
ATOM     11  C   UNL     1      -4.470   2.606  23.293  0.00  0.00    +0.024 C 
ATOM     12  C   UNL     1      -6.366   2.448  24.890  0.00  0.00    +0.019 C 
ATOM     13  C   UNL     1      -3.619   2.175  25.932  0.00  0.00    +0.094 C 
ATOM     14  C   UNL     1      -5.677   3.415  25.867  0.00  0.00    +0.085 C 
ENDROOT
BRANCH   9  16
ATOM      5  N   UNL     1      -3.960  -1.371  24.818  0.00  0.00    -0.237 NA
ATOM      6  N   UNL     1      -1.805  -2.196  24.124  0.00  0.00    -0.232 NA
ATOM     16  C   UNL     1      -3.437  -0.128  24.838  0.00  0.00    +0.050 A 
ATOM     17  C   UNL     1      -2.125   0.157  24.518  0.00  0.00    +0.052 A 
ATOM     18  C   UNL     1      -1.347  -0.927  24.165  0.00  0.00    +0.076 A 
ATOM     19  C   UNL     1      -3.101  -2.344  24.457  0.00  0.00    +0.127 A 
ATOM     22  C   UNL     1      -3.643  -3.733  24.426  0.00  0.00    +0.088 C 
BRANCH  18  21
ATOM      1 BR   UNL     1       0.669  -2.958  25.593  0.00  0.00    -0.050 Br
ATOM     21  C   UNL     1       0.042  -0.763  23.810  0.00  0.00    +0.014 A 
ATOM     23  C   UNL     1       1.043  -1.571  24.348  0.00  0.00    +0.027 A 
ATOM     24  C   UNL     1       0.370   0.242  22.900  0.00  0.00    +0.011 A 
ATOM     26  C   UNL     1       2.373  -1.375  23.975  0.00  0.00    +0.016 A 
ATOM     27  C   UNL     1       1.700   0.438  22.528  0.00  0.00    +0.001 A 
ATOM     28  C   UNL     1       2.701  -0.370  23.065  0.00  0.00    +0.001 A 
ENDBRANCH  18  21
ENDBRANCH   9  16
BRANCH  10  15
ATOM     15  C   UNL     1      -2.597   4.239  23.848  0.00  0.00    +0.124 C 
BRANCH  15   4
ATOM      2  O   UNL     1      -1.304   4.782  26.345  0.00  0.00    -0.253 OA
ATOM      4  N   UNL     1      -1.646   3.405  24.518  0.00  0.00    -0.298 N 
ATOM      7  N   UNL     1      -0.164   2.738  26.156  0.00  0.00    -0.269 N 
ATOM     20  C   UNL     1      -1.050   3.739  25.747  0.00  0.00    +0.304 C 
ATOM     34  H   UNL     1      -1.384   2.529  24.078  0.00  0.00    +0.150 HD
ATOM     35  H   UNL     1      -0.069   1.934  25.540  0.00  0.00    +0.156 HD
BRANCH   7  25
ATOM     25  C   UNL     1       0.623   2.703  27.330  0.00  0.00    +0.035 A 
ATOM     29  C   UNL     1       1.973   3.054  27.274  0.00  0.00    +0.023 A 
ATOM     30  C   UNL     1       0.052   2.318  28.543  0.00  0.00    +0.023 A 
ATOM     31  C   UNL     1       2.750   3.020  28.432  0.00  0.00    +0.002 A 
ATOM     32  C   UNL     1       0.830   2.283  29.700  0.00  0.00    +0.002 A 
ATOM     33  C   UNL     1       2.178   2.634  29.646  0.00  0.00    +0.000 A 
ENDBRANCH   7  25
ENDBRANCH  15   4
ENDBRANCH  10  15
TORSDOF 5
ENDMDL
MODEL 5
REMARK VINA RESULT:       7.9      3.244      4.749
REMARK  Name = 40777135
REMARK  6 active torsions:
REMARK  status: ('A' for Active; 'I' for Inactive)
REMARK    1  A    between atoms: N_4  and  C_15
REMARK    2  A    between atoms: N_7  and  C_25
REMARK    3  A    between atoms: C_9  and  C_16
REMARK    4  A    between atoms: C_10  and  C_15
REMARK    5  A    between atoms: C_18  and  C_21
REMARK    6  A    between atoms: C_19  and  C_22
REMARK                            x       y       z     vdW  Elec       q    Type
REMARK                         _______ _______ _______ _____ _____    ______ ____
ROOT
ATOM      3  N   UNL     1      -1.693  -2.966  24.270  0.00  0.00    -0.297 NA
ATOM      8  C   UNL     1      -3.959  -1.799  24.803  0.00  0.00    +0.002 C 
ATOM      9  C   UNL     1      -3.368  -1.256  23.472  0.00  0.00    +0.055 C 
ATOM     10  C   UNL     1      -1.690  -2.464  25.670  0.00  0.00    +0.074 C 
ATOM     11  C   UNL     1      -2.935  -1.593  25.938  0.00  0.00    +0.024 C 
ATOM     12  C   UNL     1      -4.137  -3.322  24.622  0.00  0.00    +0.019 C 
ATOM     13  C   UNL     1      -1.935  -1.845  23.328  0.00  0.00    +0.094 C 
ATOM     14  C   UNL     1      -2.811  -3.932  24.136  0.00  0.00    +0.085 C 
ENDROOT
BRANCH   9  16
ATOM      5  N   UNL     1      -2.656   0.713  22.208  0.00  0.00    -0.237 NA
ATOM      6  N   UNL     1      -3.419   2.933  22.750  0.00  0.00    -0.232 NA
ATOM     16  C   UNL     1      -3.401   0.246  23.231  0.00  0.00    +0.050 A 
ATOM     17  C   UNL     1      -4.171   1.049  24.047  0.00  0.00    +0.052 A 
ATOM     18  C   UNL     1      -4.141   2.399  23.757  0.00  0.00    +0.076 A 
ATOM     19  C   UNL     1      -2.710   2.046  22.026  0.00  0.00    +0.127 A 
ATOM     22  C   UNL     1      -1.897   2.600  20.905  0.00  0.00    +0.088 C 
BRANCH  18  21
ATOM      1 BR   UNL     1      -5.957   1.115  26.056  0.00  0.00    -0.050 Br
ATOM     21  C   UNL     1      -4.901   3.345  24.538  0.00  0.00    +0.014 A 
ATOM     23  C   UNL     1      -5.741   2.941  25.576  0.00  0.00    +0.027 A 
ATOM     24  C   UNL     1      -4.779   4.699  24.225  0.00  0.00    +0.011 A 
ATOM     26  C   UNL     1      -6.456   3.893  26.303  0.00  0.00    +0.016 A 
ATOM     27  C   UNL     1      -5.495   5.649  24.952  0.00  0.00    +0.001 A 
ATOM     28  C   UNL     1      -6.334   5.247  25.991  0.00  0.00    +0.001 A 
ENDBRANCH  18  21
ENDBRANCH   9  16
BRANCH  10  15
ATOM     15  C   UNL     1      -0.394  -1.732  26.022  0.00  0.00    +0.124 C 
BRANCH  15   4
ATOM      2  O   UNL     1      -0.299   0.519  24.254  0.00  0.00    -0.253 OA
ATOM      4  N   UNL     1      -0.655  -0.366  26.362  0.00  0.00    -0.298 N 
ATOM      7  N   UNL     1      -0.891   1.908  26.053  0.00  0.00    -0.269 N 
ATOM     20  C   UNL     1      -0.589   0.690  25.436  0.00  0.00    +0.304 C 
ATOM     34  H   UNL     1      -0.896  -0.149  27.323  0.00  0.00    +0.150 HD
ATOM     35  H   UNL     1      -1.110   1.875  27.045  0.00  0.00    +0.156 HD
BRANCH   7  25
ATOM     25  C   UNL     1      -0.931   3.192  25.463  0.00  0.00    +0.035 A 
ATOM     29  C   UNL     1      -1.776   4.173  25.984  0.00  0.00    +0.023 A 
ATOM     30  C   UNL     1      -0.127   3.480  24.359  0.00  0.00    +0.023 A 
ATOM     31  C   UNL     1      -1.815   5.440  25.402  0.00  0.00    +0.002 A 
ATOM     32  C   UNL     1      -0.168   4.747  23.778  0.00  0.00    +0.002 A 
ATOM     33  C   UNL     1      -1.011   5.727  24.298  0.00  0.00    +0.000 A 
ENDBRANCH   7  25
ENDBRANCH  15   4
ENDBRANCH  10  15
TORSDOF 5
ENDMDL
