MODEL 1
REMARK VINA RESULT:       8.5      0.000      0.000
REMARK  Name = 7051746
REMARK  8 active torsions:
REMARK  status: ('A' for Active; 'I' for Inactive)
REMARK    1  A    between atoms: N_2  and  C_13
REMARK    2  A    between atoms: N_4  and  C_27
REMARK    3  A    between atoms: N_5  and  C_28
REMARK    4  A    between atoms: N_5  and  C_34
REMARK    5  A    between atoms: N_5  and  C_35
REMARK    6  A    between atoms: C_13  and  C_16
REMARK    7  A    between atoms: C_17  and  C_21
REMARK    8  A    between atoms: C_23  and  C_28
REMARK                            x       y       z     vdW  Elec       q    Type
REMARK                         _______ _______ _______ _____ _____    ______ ____
ROOT
ATOM      1  O   UNL     1      -0.616  -0.238  22.126  0.00  0.00    -0.267 OA
ATOM      2  N   UNL     1      -4.259  -0.567  25.557  0.00  0.00    -0.297 NA
ATOM      3  N   UNL     1      -1.777  -1.439  23.754  0.00  0.00    -0.311 N 
ATOM      6  C   UNL     1      -4.259  -2.037  23.526  0.00  0.00    +0.024 C 
ATOM      7  C   UNL     1      -3.019  -2.736  25.518  0.00  0.00    +0.050 C 
ATOM      8  C   UNL     1      -3.894  -3.246  24.376  0.00  0.00    +0.017 C 
ATOM      9  C   UNL     1      -5.020  -1.000  24.379  0.00  0.00    +0.090 C 
ATOM     10  C   UNL     1      -3.815  -1.715  26.363  0.00  0.00    +0.094 C 
ATOM     11  C   UNL     1      -2.977  -1.463  22.906  0.00  0.00    +0.130 C 
ATOM     12  C   UNL     1      -1.748  -2.104  24.982  0.00  0.00    +0.026 A 
ATOM     14  C   UNL     1      -0.608  -2.165  25.688  0.00  0.00    +0.022 A 
ATOM     15  C   UNL     1      -0.637  -0.805  23.221  0.00  0.00    +0.259 A 
ATOM     17  C   UNL     1       0.616  -0.860  24.051  0.00  0.00    +0.047 A 
ATOM     18  C   UNL     1       0.588  -1.527  25.214  0.00  0.00    +0.015 A 
ENDROOT
BRANCH  17  21
ATOM     21  C   UNL     1       1.854  -0.193  23.610  0.00  0.00    -0.008 A 
ATOM     23  C   UNL     1       1.888   1.178  23.345  0.00  0.00    -0.026 A 
ATOM     25  C   UNL     1       3.013  -0.957  23.457  0.00  0.00    +0.009 A 
ATOM     30  C   UNL     1       3.075   1.781  22.930  0.00  0.00    +0.005 A 
ATOM     32  C   UNL     1       4.200  -0.354  23.040  0.00  0.00    +0.001 A 
ATOM     33  C   UNL     1       4.230   1.015  22.777  0.00  0.00    +0.000 A 
BRANCH  23  28
ATOM     28  C   UNL     1       0.670   2.030  23.498  0.00  0.00    +0.119 C 
BRANCH  28   5
ATOM      5  N   UNL     1       0.616   2.620  24.817  0.00  0.00    -0.304 NA
ATOM     34  C   UNL     1      -0.160   1.780  25.738  0.00  0.00    +0.104 C 
ATOM     35  C   UNL     1       0.040   3.970  24.769  0.00  0.00    +0.104 C 
ENDBRANCH  28   5
ENDBRANCH  23  28
ENDBRANCH  17  21
BRANCH   2  13
ATOM     13  C   UNL     1      -5.033   0.371  26.366  0.00  0.00    +0.121 C 
BRANCH  13  16
ATOM      4  N   UNL     1      -5.473   3.850  25.348  0.00  0.00    -0.349 N 
ATOM     16  C   UNL     1      -5.020   1.740  25.745  0.00  0.00    -0.008 A 
ATOM     19  C   UNL     1      -4.239   2.132  24.642  0.00  0.00    +0.004 A 
ATOM     20  C   UNL     1      -5.768   2.793  26.168  0.00  0.00    +0.091 A 
ATOM     22  C   UNL     1      -4.542   3.474  24.407  0.00  0.00    +0.049 A 
ATOM     24  C   UNL     1      -3.300   1.493  23.808  0.00  0.00    +0.010 A 
ATOM     26  C   UNL     1      -3.951   4.213  23.376  0.00  0.00    +0.026 A 
ATOM     27  C   UNL     1      -6.064   5.165  25.469  0.00  0.00    +0.149 C 
ATOM     29  C   UNL     1      -2.700   2.218  22.773  0.00  0.00    +0.001 A 
ATOM     31  C   UNL     1      -3.022   3.558  22.562  0.00  0.00    +0.002 A 
ENDBRANCH  13  16
ENDBRANCH   2  13
TORSDOF 5
ENDMDL
MODEL 2
REMARK VINA RESULT:      10.3      1.543      2.611
REMARK  Name = 7051746
REMARK  8 active torsions:
REMARK  status: ('A' for Active; 'I' for Inactive)
REMARK    1  A    between atoms: N_2  and  C_13
REMARK    2  A    between atoms: N_4  and  C_27
REMARK    3  A    between atoms: N_5  and  C_28
REMARK    4  A    between atoms: N_5  and  C_34
REMARK    5  A    between atoms: N_5  and  C_35
REMARK    6  A    between atoms: C_13  and  C_16
REMARK    7  A    between atoms: C_17  and  C_21
REMARK    8  A    between atoms: C_23  and  C_28
REMARK                            x       y       z     vdW  Elec       q    Type
REMARK                         _______ _______ _______ _____ _____    ______ ____
ROOT
ATOM      1  O   UNL     1       0.174  -1.193  22.323  0.00  0.00    -0.267 OA
ATOM      2  N   UNL     1      -4.294  -0.522  24.500  0.00  0.00    -0.297 NA
ATOM      3  N   UNL     1      -1.226  -1.335  24.183  0.00  0.00    -0.311 N 
ATOM      6  C   UNL     1      -3.318  -2.816  24.230  0.00  0.00    +0.024 C 
ATOM      7  C   UNL     1      -2.730  -1.481  26.197  0.00  0.00    +0.050 C 
ATOM      8  C   UNL     1      -3.046  -2.898  25.727  0.00  0.00    +0.017 C 
ATOM      9  C   UNL     1      -4.508  -1.870  23.960  0.00  0.00    +0.090 C 
ATOM     10  C   UNL     1      -3.946  -0.564  25.928  0.00  0.00    +0.094 C 
ATOM     11  C   UNL     1      -2.035  -2.368  23.518  0.00  0.00    +0.130 C 
ATOM     12  C   UNL     1      -1.496  -0.942  25.496  0.00  0.00    +0.026 A 
ATOM     14  C   UNL     1      -0.678  -0.082  26.122  0.00  0.00    +0.022 A 
ATOM     15  C   UNL     1      -0.115  -0.845  23.469  0.00  0.00    +0.259 A 
ATOM     17  C   UNL     1       0.764   0.144  24.186  0.00  0.00    +0.047 A 
ATOM     18  C   UNL     1       0.464   0.472  25.452  0.00  0.00    +0.015 A 
ENDROOT
BRANCH  17  21
ATOM     21  C   UNL     1       1.928   0.755  23.519  0.00  0.00    -0.008 A 
ATOM     23  C   UNL     1       3.095   0.027  23.279  0.00  0.00    -0.026 A 
ATOM     25  C   UNL     1       1.852   2.092  23.124  0.00  0.00    +0.009 A 
ATOM     30  C   UNL     1       4.180   0.632  22.645  0.00  0.00    +0.005 A 
ATOM     32  C   UNL     1       2.938   2.698  22.492  0.00  0.00    +0.001 A 
ATOM     33  C   UNL     1       4.101   1.968  22.253  0.00  0.00    +0.000 A 
BRANCH  23  28
ATOM     28  C   UNL     1       3.214  -1.407  23.686  0.00  0.00    +0.119 C 
BRANCH  28   5
ATOM      5  N   UNL     1       4.529  -1.681  24.222  0.00  0.00    -0.304 NA
ATOM     34  C   UNL     1       5.252  -0.435  24.508  0.00  0.00    +0.104 C 
ATOM     35  C   UNL     1       5.314  -2.510  23.298  0.00  0.00    +0.104 C 
ENDBRANCH  28   5
ENDBRANCH  23  28
ENDBRANCH  17  21
BRANCH   2  13
ATOM     13  C   UNL     1      -5.462   0.325  24.272  0.00  0.00    +0.121 C 
BRANCH  13  16
ATOM      4  N   UNL     1      -5.425   3.796  25.407  0.00  0.00    -0.349 N 
ATOM     16  C   UNL     1      -5.168   1.746  24.668  0.00  0.00    -0.008 A 
ATOM     19  C   UNL     1      -3.917   2.384  24.565  0.00  0.00    +0.004 A 
ATOM     20  C   UNL     1      -6.080   2.615  25.181  0.00  0.00    +0.091 A 
ATOM     22  C   UNL     1      -4.103   3.684  25.040  0.00  0.00    +0.049 A 
ATOM     24  C   UNL     1      -2.637   2.001  24.120  0.00  0.00    +0.010 A 
ATOM     26  C   UNL     1      -3.068   4.624  25.091  0.00  0.00    +0.026 A 
ATOM     27  C   UNL     1      -6.048   4.982  25.954  0.00  0.00    +0.149 C 
ATOM     29  C   UNL     1      -1.592   2.930  24.165  0.00  0.00    +0.001 A 
ATOM     31  C   UNL     1      -1.806   4.221  24.644  0.00  0.00    +0.002 A 
ENDBRANCH  13  16
ENDBRANCH   2  13
TORSDOF 5
ENDMDL
MODEL 3
REMARK VINA RESULT:      10.5      1.694      4.903
REMARK  Name = 7051746
REMARK  8 active torsions:
REMARK  status: ('A' for Active; 'I' for Inactive)
REMARK    1  A    between atoms: N_2  and  C_13
REMARK    2  A    between atoms: N_4  and  C_27
REMARK    3  A    between atoms: N_5  and  C_28
REMARK    4  A    between atoms: N_5  and  C_34
REMARK    5  A    between atoms: N_5  and  C_35
REMARK    6  A    between atoms: C_13  and  C_16
REMARK    7  A    between atoms: C_17  and  C_21
REMARK    8  A    between atoms: C_23  and  C_28
REMARK                            x       y       z     vdW  Elec       q    Type
REMARK                         _______ _______ _______ _____ _____    ______ ____
ROOT
ATOM      1  O   UNL     1       0.990   1.944  26.037  0.00  0.00    -0.267 OA
ATOM      2  N   UNL     1      -3.950   2.349  25.279  0.00  0.00    -0.297 NA
ATOM      3  N   UNL     1      -0.848   3.081  25.162  0.00  0.00    -0.311 N 
ATOM      6  C   UNL     1      -2.706   4.049  26.639  0.00  0.00    +0.024 C 
ATOM      7  C   UNL     1      -2.829   4.307  24.207  0.00  0.00    +0.050 C 
ATOM      8  C   UNL     1      -2.853   5.077  25.525  0.00  0.00    +0.017 C 
ATOM      9  C   UNL     1      -3.865   3.031  26.576  0.00  0.00    +0.090 C 
ATOM     10  C   UNL     1      -4.010   3.311  24.168  0.00  0.00    +0.094 C 
ATOM     11  C   UNL     1      -1.329   3.383  26.518  0.00  0.00    +0.130 C 
ATOM     12  C   UNL     1      -1.511   3.574  24.036  0.00  0.00    +0.026 A 
ATOM     14  C   UNL     1      -0.993   3.382  22.813  0.00  0.00    +0.022 A 
ATOM     15  C   UNL     1       0.360   2.364  25.064  0.00  0.00    +0.259 A 
ATOM     17  C   UNL     1       0.898   2.135  23.678  0.00  0.00    +0.047 A 
ATOM     18  C   UNL     1       0.227   2.646  22.635  0.00  0.00    +0.015 A 
ENDROOT
BRANCH  17  21
ATOM     21  C   UNL     1       2.132   1.360  23.456  0.00  0.00    -0.008 A 
ATOM     23  C   UNL     1       2.129  -0.037  23.481  0.00  0.00    -0.026 A 
ATOM     25  C   UNL     1       3.324   2.046  23.216  0.00  0.00    +0.009 A 
ATOM     30  C   UNL     1       3.313  -0.743  23.266  0.00  0.00    +0.005 A 
ATOM     32  C   UNL     1       4.508   1.340  23.003  0.00  0.00    +0.001 A 
ATOM     33  C   UNL     1       4.502  -0.054  23.028  0.00  0.00    +0.000 A 
BRANCH  23  28
ATOM     28  C   UNL     1       0.874  -0.807  23.733  0.00  0.00    +0.119 C 
BRANCH  28   5
ATOM      5  N   UNL     1       0.111  -0.962  22.515  0.00  0.00    -0.304 NA
ATOM     34  C   UNL     1       0.937  -0.674  21.336  0.00  0.00    +0.104 C 
ATOM     35  C   UNL     1      -1.072  -0.091  22.518  0.00  0.00    +0.104 C 
ENDBRANCH  28   5
ENDBRANCH  23  28
ENDBRANCH  17  21
BRANCH   2  13
ATOM     13  C   UNL     1      -5.090   1.436  25.241  0.00  0.00    +0.121 C 
BRANCH  13  16
ATOM      4  N   UNL     1      -4.632  -1.947  23.946  0.00  0.00    -0.349 N 
ATOM     16  C   UNL     1      -4.647   0.056  24.842  0.00  0.00    -0.008 A 
ATOM     19  C   UNL     1      -3.424  -0.547  25.194  0.00  0.00    +0.004 A 
ATOM     20  C   UNL     1      -5.375  -0.806  24.082  0.00  0.00    +0.091 A 
ATOM     22  C   UNL     1      -3.435  -1.817  24.614  0.00  0.00    +0.049 A 
ATOM     24  C   UNL     1      -2.299  -0.153  25.945  0.00  0.00    +0.010 A 
ATOM     26  C   UNL     1      -2.373  -2.717  24.749  0.00  0.00    +0.026 A 
ATOM     27  C   UNL     1      -5.056  -3.113  23.201  0.00  0.00    +0.149 C 
ATOM     29  C   UNL     1      -1.229  -1.043  26.088  0.00  0.00    +0.001 A 
ATOM     31  C   UNL     1      -1.267  -2.305  25.498  0.00  0.00    +0.002 A 
ENDBRANCH  13  16
ENDBRANCH   2  13
TORSDOF 5
ENDMDL
