MODEL 1
REMARK VINA RESULT:       5.8      0.000      0.000
REMARK  Name = 7144075
REMARK  5 active torsions:
REMARK  status: ('A' for Active; 'I' for Inactive)
REMARK    1  A    between atoms: O_3  and  C_19
REMARK    2  A    between atoms: N_4  and  C_13
REMARK    3  A    between atoms: C_13  and  C_18
REMARK    4  A    between atoms: C_16  and  C_20
REMARK    5  A    between atoms: C_24  and  C_26
REMARK                            x       y       z     vdW  Elec       q    Type
REMARK                         _______ _______ _______ _____ _____    ______ ____
ROOT
ATOM      2  O   UNL     1       0.102   2.651  26.158  0.00  0.00    -0.267 OA
ATOM      4  N   UNL     1      -4.668   1.443  25.233  0.00  0.00    -0.297 NA
ATOM      5  N   UNL     1      -1.895   3.006  25.008  0.00  0.00    -0.311 N 
ATOM      6  C   UNL     1      -4.067   3.681  26.190  0.00  0.00    +0.024 C 
ATOM      7  C   UNL     1      -4.052   3.367  23.762  0.00  0.00    +0.050 C 
ATOM      8  C   UNL     1      -4.402   4.359  24.868  0.00  0.00    +0.017 C 
ATOM      9  C   UNL     1      -4.887   2.382  26.340  0.00  0.00    +0.090 C 
ATOM     10  C   UNL     1      -4.900   2.085  23.931  0.00  0.00    +0.094 C 
ATOM     11  C   UNL     1      -2.554   3.433  26.251  0.00  0.00    +0.130 C 
ATOM     12  C   UNL     1      -2.573   3.032  23.787  0.00  0.00    +0.026 A 
ATOM     14  C   UNL     1      -1.921   2.743  22.650  0.00  0.00    +0.022 A 
ATOM     15  C   UNL     1      -0.530   2.667  25.099  0.00  0.00    +0.259 A 
ATOM     16  C   UNL     1       0.168   2.322  23.811  0.00  0.00    +0.040 A 
ATOM     17  C   UNL     1      -0.532   2.382  22.668  0.00  0.00    +0.015 A 
ENDROOT
BRANCH  16  20
ATOM     20  C   UNL     1       1.560   1.948  23.823  0.00  0.00    +0.014 C 
ATOM     24  C   UNL     1       2.007   0.796  23.310  0.00  0.00    +0.008 C 
BRANCH  24  26
ATOM      1 CL   UNL     1       7.715  -0.942  23.298  0.00  0.00    -0.084 Cl
ATOM     26  C   UNL     1       3.417   0.366  23.307  0.00  0.00    -0.025 A 
ATOM     27  C   UNL     1       4.402   1.275  22.956  0.00  0.00    +0.009 A 
ATOM     28  C   UNL     1       3.730  -0.937  23.656  0.00  0.00    +0.009 A 
ATOM     29  C   UNL     1       5.737   0.868  22.953  0.00  0.00    +0.020 A 
ATOM     30  C   UNL     1       5.065  -1.344  23.653  0.00  0.00    +0.020 A 
ATOM     31  C   UNL     1       6.068  -0.441  23.302  0.00  0.00    +0.041 A 
ENDBRANCH  24  26
ENDBRANCH  16  20
BRANCH   4  13
ATOM     13  C   UNL     1      -5.499   0.251  25.385  0.00  0.00    +0.123 C 
BRANCH  13  18
ATOM     18  C   UNL     1      -4.750  -0.987  24.971  0.00  0.00    +0.008 A 
ATOM     19  C   UNL     1      -3.723  -1.484  25.763  0.00  0.00    +0.121 A 
ATOM     21  C   UNL     1      -5.104  -1.619  23.786  0.00  0.00    +0.008 A 
ATOM     22  C   UNL     1      -3.039  -2.632  25.364  0.00  0.00    +0.046 A 
ATOM     23  C   UNL     1      -4.420  -2.767  23.387  0.00  0.00    +0.001 A 
ATOM     25  C   UNL     1      -3.388  -3.274  24.176  0.00  0.00    +0.004 A 
BRANCH  19   3
ATOM      3  O   UNL     1      -3.370  -0.870  26.926  0.00  0.00    -0.506 OA
ATOM     32  H   UNL     1      -4.130  -0.363  27.262  0.00  0.00    +0.292 HD
ENDBRANCH  19   3
ENDBRANCH  13  18
ENDBRANCH   4  13
TORSDOF 5
ENDMDL
