MODEL 1
REMARK VINA RESULT:      -2.2      0.000      0.000
REMARK  Name = 38026990
REMARK  13 active torsions:
REMARK  status: ('A' for Active; 'I' for Inactive)
REMARK    1  A    between atoms: S_1  and  N_7
REMARK    2  A    between atoms: S_1  and  C_25
REMARK    3  A    between atoms: N_7  and  C_17
REMARK    4  A    between atoms: N_8  and  C_23
REMARK    5  A    between atoms: N_9  and  C_24
REMARK    6  A    between atoms: C_10  and  C_14
REMARK    7  A    between atoms: C_11  and  C_17
REMARK    8  A    between atoms: C_13  and  C_18
REMARK    9  A    between atoms: C_14  and  C_19
REMARK   10  A    between atoms: C_14  and  C_20
REMARK   11  A    between atoms: C_15  and  C_21
REMARK   12  A    between atoms: C_18  and  C_22
REMARK   13  A    between atoms: C_23  and  C_24
REMARK                            x       y       z     vdW  Elec       q    Type
REMARK                         _______ _______ _______ _____ _____    ______ ____
ROOT
ATOM     10  C   UNL     1      -2.260   3.624  25.092  0.00  0.00    +0.000 C 
ATOM     11  C   UNL     1      -3.429   3.832  24.096  0.00  0.00    +0.030 C 
ATOM     12  C   UNL     1      -0.982   3.222  24.341  0.00  0.00    +0.012 C 
ATOM     13  C   UNL     1      -1.166   1.928  23.527  0.00  0.00    +0.023 C 
ATOM     15  C   UNL     1      -2.447   1.949  22.719  0.00  0.00    -0.073 C 
ATOM     16  C   UNL     1      -3.441   2.816  22.979  0.00  0.00    -0.023 C 
ATOM     21  C   UNL     1      -2.541   0.979  21.573  0.00  0.00    +0.039 C 
ENDROOT
BRANCH  10  14
ATOM     14  C   UNL     1      -1.996   4.878  25.930  0.00  0.00    -0.013 C 
ATOM     19  C   UNL     1      -3.184   5.169  26.843  0.00  0.00    +0.007 C 
ATOM     20  C   UNL     1      -1.705   6.072  25.027  0.00  0.00    +0.007 C 
ENDBRANCH  10  14
BRANCH  11  17
ATOM     17  C   UNL     1      -4.780   3.814  24.819  0.00  0.00    +0.113 C 
BRANCH  17   7
ATOM      7  N   UNL     1      -4.791   2.712  25.793  0.00  0.00    -0.189 NA
ATOM     35  H   UNL     1      -3.906   2.510  26.274  0.00  0.00    +0.148 HD
BRANCH   7   1
ATOM      1  S   UNL     1      -5.916   1.441  25.638  0.00  0.00    +0.058 S 
ATOM      4  O   UNL     1      -6.753   1.683  24.478  0.00  0.00    -0.153 OA
ATOM      5  O   UNL     1      -6.518   1.180  26.931  0.00  0.00    -0.153 OA
BRANCH   1  25
ATOM      2  F   UNL     1      -2.401  -3.134  24.419  0.00  0.00    -0.205 F 
ATOM     25  C   UNL     1      -4.862   0.070  25.272  0.00  0.00    +0.105 A 
ATOM     30  C   UNL     1      -3.988  -0.416  26.244  0.00  0.00    +0.031 A 
ATOM     31  C   UNL     1      -4.905  -0.525  24.012  0.00  0.00    +0.031 A 
ATOM     32  C   UNL     1      -3.157  -1.498  25.956  0.00  0.00    +0.040 A 
ATOM     33  C   UNL     1      -4.073  -1.609  23.723  0.00  0.00    +0.040 A 
ATOM     34  C   UNL     1      -3.199  -2.095  24.696  0.00  0.00    +0.124 A 
ENDBRANCH   1  25
ENDBRANCH   7   1
ENDBRANCH  17   7
ENDBRANCH  11  17
BRANCH  13  18
ATOM     18  C   UNL     1      -1.109   0.693  24.433  0.00  0.00    +0.103 C 
BRANCH  18  22
ATOM      3  O   UNL     1       0.146  -1.373  24.537  0.00  0.00    -0.276 OA
ATOM      8  N   UNL     1       0.598   0.157  22.847  0.00  0.00    -0.314 N 
ATOM     22  C   UNL     1      -0.069  -0.303  23.973  0.00  0.00    +0.214 C 
ATOM     36  H   UNL     1       0.349   1.058  22.450  0.00  0.00    +0.149 HD
BRANCH   8  23
ATOM     23  C   UNL     1       1.647  -0.588  22.190  0.00  0.00    +0.119 C 
BRANCH  23  24
ATOM     24  C   UNL     1       2.810   0.316  21.811  0.00  0.00    +0.103 C 
BRANCH  24   9
ATOM      6  O   UNL     1       5.643  -0.554  24.782  0.00  0.00    -0.377 OA
ATOM      9  N   UNL     1       4.035  -0.127  22.473  0.00  0.00    -0.297 NA
ATOM     26  C   UNL     1       3.754  -1.221  23.414  0.00  0.00    +0.112 C 
ATOM     27  C   UNL     1       4.681   0.989  23.178  0.00  0.00    +0.112 C 
ATOM     28  C   UNL     1       5.044  -1.657  24.102  0.00  0.00    +0.175 C 
ATOM     29  C   UNL     1       5.949   0.500  23.870  0.00  0.00    +0.175 C 
ENDBRANCH  24   9
ENDBRANCH  23  24
ENDBRANCH   8  23
ENDBRANCH  18  22
ENDBRANCH  13  18
TORSDOF 10
ENDMDL
MODEL 2
REMARK VINA RESULT:      -0.3      2.769      7.402
REMARK  Name = 38026990
REMARK  13 active torsions:
REMARK  status: ('A' for Active; 'I' for Inactive)
REMARK    1  A    between atoms: S_1  and  N_7
REMARK    2  A    between atoms: S_1  and  C_25
REMARK    3  A    between atoms: N_7  and  C_17
REMARK    4  A    between atoms: N_8  and  C_23
REMARK    5  A    between atoms: N_9  and  C_24
REMARK    6  A    between atoms: C_10  and  C_14
REMARK    7  A    between atoms: C_11  and  C_17
REMARK    8  A    between atoms: C_13  and  C_18
REMARK    9  A    between atoms: C_14  and  C_19
REMARK   10  A    between atoms: C_14  and  C_20
REMARK   11  A    between atoms: C_15  and  C_21
REMARK   12  A    between atoms: C_18  and  C_22
REMARK   13  A    between atoms: C_23  and  C_24
REMARK                            x       y       z     vdW  Elec       q    Type
REMARK                         _______ _______ _______ _____ _____    ______ ____
ROOT
ATOM     10  C   UNL     1      -2.973  -1.427  24.744  0.00  0.00    +0.000 C 
ATOM     11  C   UNL     1      -1.818  -0.662  24.049  0.00  0.00    +0.030 C 
ATOM     12  C   UNL     1      -4.308  -1.132  24.043  0.00  0.00    +0.012 C 
ATOM     13  C   UNL     1      -4.647   0.370  24.044  0.00  0.00    +0.023 C 
ATOM     15  C   UNL     1      -3.462   1.215  23.624  0.00  0.00    -0.073 C 
ATOM     16  C   UNL     1      -2.207   0.733  23.619  0.00  0.00    -0.023 C 
ATOM     21  C   UNL     1      -3.758   2.616  23.164  0.00  0.00    +0.039 C 
ENDROOT
BRANCH  10  14
ATOM     14  C   UNL     1      -2.722  -2.937  24.767  0.00  0.00    -0.013 C 
ATOM     19  C   UNL     1      -1.524  -3.292  23.892  0.00  0.00    +0.007 C 
ATOM     20  C   UNL     1      -3.966  -3.691  24.310  0.00  0.00    +0.007 C 
ENDBRANCH  10  14
BRANCH  11  17
ATOM     17  C   UNL     1      -0.580  -0.593  24.951  0.00  0.00    +0.113 C 
BRANCH  17   7
ATOM      7  N   UNL     1       0.603  -0.993  24.175  0.00  0.00    -0.189 NA
ATOM     35  H   UNL     1       1.273  -1.618  24.639  0.00  0.00    +0.148 HD
BRANCH   7   1
ATOM      1  S   UNL     1       1.190   0.009  22.928  0.00  0.00    +0.058 S 
ATOM      4  O   UNL     1       0.783   1.378  23.183  0.00  0.00    -0.153 OA
ATOM      5  O   UNL     1       0.906  -0.610  21.647  0.00  0.00    -0.153 OA
BRANCH   1  25
ATOM      2  F   UNL     1       7.019  -0.334  23.750  0.00  0.00    -0.205 F 
ATOM     25  C   UNL     1       2.938  -0.094  23.174  0.00  0.00    +0.105 A 
ATOM     30  C   UNL     1       3.748   1.002  22.881  0.00  0.00    +0.031 A 
ATOM     31  C   UNL     1       3.505  -1.271  23.660  0.00  0.00    +0.031 A 
ATOM     32  C   UNL     1       5.127   0.921  23.076  0.00  0.00    +0.040 A 
ATOM     33  C   UNL     1       4.884  -1.353  23.855  0.00  0.00    +0.040 A 
ATOM     34  C   UNL     1       5.695  -0.256  23.563  0.00  0.00    +0.124 A 
ENDBRANCH   1  25
ENDBRANCH   7   1
ENDBRANCH  17   7
ENDBRANCH  11  17
BRANCH  13  18
ATOM     18  C   UNL     1      -5.181   0.815  25.410  0.00  0.00    +0.103 C 
BRANCH  18  22
ATOM      3  O   UNL     1      -6.659   2.679  24.966  0.00  0.00    -0.276 OA
ATOM      8  N   UNL     1      -4.605   3.065  25.982  0.00  0.00    -0.314 N 
ATOM     22  C   UNL     1      -5.591   2.271  25.414  0.00  0.00    +0.214 C 
ATOM     36  H   UNL     1      -3.752   2.634  26.327  0.00  0.00    +0.149 HD
BRANCH   8  23
ATOM     23  C   UNL     1      -4.724   4.498  26.116  0.00  0.00    +0.119 C 
BRANCH  23  24
ATOM     24  C   UNL     1      -3.358   5.157  26.220  0.00  0.00    +0.103 C 
BRANCH  24   9
ATOM      6  O   UNL     1       0.355   3.340  25.493  0.00  0.00    -0.377 OA
ATOM      9  N   UNL     1      -2.326   4.278  25.673  0.00  0.00    -0.297 NA
ATOM     26  C   UNL     1      -1.728   3.453  26.732  0.00  0.00    +0.112 C 
ATOM     27  C   UNL     1      -1.283   5.058  24.992  0.00  0.00    +0.112 C 
ATOM     28  C   UNL     1      -0.646   2.554  26.139  0.00  0.00    +0.175 C 
ATOM     29  C   UNL     1      -0.213   4.120  24.441  0.00  0.00    +0.175 C 
ENDBRANCH  24   9
ENDBRANCH  23  24
ENDBRANCH   8  23
ENDBRANCH  18  22
ENDBRANCH  13  18
TORSDOF 10
ENDMDL
MODEL 3
REMARK VINA RESULT:       0.2      2.042      4.022
REMARK  Name = 38026990
REMARK  13 active torsions:
REMARK  status: ('A' for Active; 'I' for Inactive)
REMARK    1  A    between atoms: S_1  and  N_7
REMARK    2  A    between atoms: S_1  and  C_25
REMARK    3  A    between atoms: N_7  and  C_17
REMARK    4  A    between atoms: N_8  and  C_23
REMARK    5  A    between atoms: N_9  and  C_24
REMARK    6  A    between atoms: C_10  and  C_14
REMARK    7  A    between atoms: C_11  and  C_17
REMARK    8  A    between atoms: C_13  and  C_18
REMARK    9  A    between atoms: C_14  and  C_19
REMARK   10  A    between atoms: C_14  and  C_20
REMARK   11  A    between atoms: C_15  and  C_21
REMARK   12  A    between atoms: C_18  and  C_22
REMARK   13  A    between atoms: C_23  and  C_24
REMARK                            x       y       z     vdW  Elec       q    Type
REMARK                         _______ _______ _______ _____ _____    ______ ____
ROOT
ATOM     10  C   UNL     1      -3.030   0.552  23.926  0.00  0.00    +0.000 C 
ATOM     11  C   UNL     1      -4.513   0.123  24.061  0.00  0.00    +0.030 C 
ATOM     12  C   UNL     1      -2.248  -0.479  23.099  0.00  0.00    +0.012 C 
ATOM     13  C   UNL     1      -2.294  -1.886  23.724  0.00  0.00    +0.023 C 
ATOM     15  C   UNL     1      -3.701  -2.273  24.132  0.00  0.00    -0.073 C 
ATOM     16  C   UNL     1      -4.682  -1.364  24.264  0.00  0.00    -0.023 C 
ATOM     21  C   UNL     1      -3.965  -3.739  24.341  0.00  0.00    +0.039 C 
ENDROOT
BRANCH  10  14
ATOM     14  C   UNL     1      -2.894   1.939  23.291  0.00  0.00    -0.013 C 
ATOM     19  C   UNL     1      -3.602   1.978  21.940  0.00  0.00    +0.007 C 
ATOM     20  C   UNL     1      -1.423   2.314  23.140  0.00  0.00    +0.007 C 
ENDBRANCH  10  14
BRANCH  11  17
ATOM     17  C   UNL     1      -5.205   0.878  25.202  0.00  0.00    +0.113 C 
BRANCH  17   7
ATOM      7  N   UNL     1      -5.548   2.232  24.744  0.00  0.00    -0.189 NA
ATOM     35  H   UNL     1      -5.447   2.422  23.740  0.00  0.00    +0.148 HD
BRANCH   7   1
ATOM      1  S   UNL     1      -5.436   3.553  25.815  0.00  0.00    +0.058 S 
ATOM      4  O   UNL     1      -5.535   3.072  27.180  0.00  0.00    -0.153 OA
ATOM      5  O   UNL     1      -6.307   4.616  25.351  0.00  0.00    -0.153 OA
BRANCH   1  25
ATOM      2  F   UNL     1       0.108   5.354  24.925  0.00  0.00    -0.205 F 
ATOM     25  C   UNL     1      -3.774   4.093  25.548  0.00  0.00    +0.105 A 
ATOM     30  C   UNL     1      -2.730   3.526  26.279  0.00  0.00    +0.031 A 
ATOM     31  C   UNL     1      -3.506   5.087  24.607  0.00  0.00    +0.031 A 
ATOM     32  C   UNL     1      -1.419   3.951  26.068  0.00  0.00    +0.040 A 
ATOM     33  C   UNL     1      -2.194   5.514  24.396  0.00  0.00    +0.040 A 
ATOM     34  C   UNL     1      -1.151   4.945  25.127  0.00  0.00    +0.124 A 
ENDBRANCH   1  25
ENDBRANCH   7   1
ENDBRANCH  17   7
ENDBRANCH  11  17
BRANCH  13  18
ATOM     18  C   UNL     1      -1.329  -1.996  24.909  0.00  0.00    +0.103 C 
BRANCH  18  22
ATOM      3  O   UNL     1      -0.343  -0.045  25.948  0.00  0.00    -0.276 OA
ATOM      8  N   UNL     1       0.392  -0.718  23.848  0.00  0.00    -0.314 N 
ATOM     22  C   UNL     1      -0.391  -0.813  24.990  0.00  0.00    +0.214 C 
ATOM     36  H   UNL     1       0.281  -1.403  23.107  0.00  0.00    +0.149 HD
BRANCH   8  23
ATOM     23  C   UNL     1       1.378   0.319  23.651  0.00  0.00    +0.119 C 
BRANCH  23  24
ATOM     24  C   UNL     1       2.163   0.095  22.367  0.00  0.00    +0.103 C 
BRANCH  24   9
ATOM      6  O   UNL     1       5.751  -0.509  24.458  0.00  0.00    -0.377 OA
ATOM      9  N   UNL     1       3.549  -0.251  22.673  0.00  0.00    -0.297 NA
ATOM     26  C   UNL     1       3.610  -1.331  23.668  0.00  0.00    +0.112 C 
ATOM     27  C   UNL     1       4.285   0.924  23.161  0.00  0.00    +0.112 C 
ATOM     28  C   UNL     1       5.066  -1.666  23.981  0.00  0.00    +0.175 C 
ATOM     29  C   UNL     1       5.725   0.535  23.484  0.00  0.00    +0.175 C 
ENDBRANCH  24   9
ENDBRANCH  23  24
ENDBRANCH   8  23
ENDBRANCH  18  22
ENDBRANCH  13  18
TORSDOF 10
ENDMDL
MODEL 4
REMARK VINA RESULT:       0.4      2.012      4.622
REMARK  Name = 38026990
REMARK  13 active torsions:
REMARK  status: ('A' for Active; 'I' for Inactive)
REMARK    1  A    between atoms: S_1  and  N_7
REMARK    2  A    between atoms: S_1  and  C_25
REMARK    3  A    between atoms: N_7  and  C_17
REMARK    4  A    between atoms: N_8  and  C_23
REMARK    5  A    between atoms: N_9  and  C_24
REMARK    6  A    between atoms: C_10  and  C_14
REMARK    7  A    between atoms: C_11  and  C_17
REMARK    8  A    between atoms: C_13  and  C_18
REMARK    9  A    between atoms: C_14  and  C_19
REMARK   10  A    between atoms: C_14  and  C_20
REMARK   11  A    between atoms: C_15  and  C_21
REMARK   12  A    between atoms: C_18  and  C_22
REMARK   13  A    between atoms: C_23  and  C_24
REMARK                            x       y       z     vdW  Elec       q    Type
REMARK                         _______ _______ _______ _____ _____    ______ ____
ROOT
ATOM     10  C   UNL     1      -2.781  -1.644  24.560  0.00  0.00    +0.000 C 
ATOM     11  C   UNL     1      -3.278  -1.030  25.894  0.00  0.00    +0.030 C 
ATOM     12  C   UNL     1      -1.251  -1.780  24.571  0.00  0.00    +0.012 C 
ATOM     13  C   UNL     1      -0.546  -0.426  24.778  0.00  0.00    +0.023 C 
ATOM     15  C   UNL     1      -1.163   0.361  25.916  0.00  0.00    -0.073 C 
ATOM     16  C   UNL     1      -2.379   0.068  26.410  0.00  0.00    -0.023 C 
ATOM     21  C   UNL     1      -0.330   1.466  26.505  0.00  0.00    +0.039 C 
ENDROOT
BRANCH  10  14
ATOM     14  C   UNL     1      -3.421  -3.008  24.288  0.00  0.00    -0.013 C 
ATOM     19  C   UNL     1      -2.446  -3.915  23.544  0.00  0.00    +0.007 C 
ATOM     20  C   UNL     1      -4.715  -2.842  23.498  0.00  0.00    +0.007 C 
ENDBRANCH  10  14
BRANCH  11  17
ATOM     17  C   UNL     1      -4.709  -0.498  25.758  0.00  0.00    +0.113 C 
BRANCH  17   7
ATOM      7  N   UNL     1      -4.733   0.561  24.738  0.00  0.00    -0.189 NA
ATOM     35  H   UNL     1      -4.056   0.482  23.970  0.00  0.00    +0.148 HD
BRANCH   7   1
ATOM      1  S   UNL     1      -5.303   2.118  25.132  0.00  0.00    +0.058 S 
ATOM      4  O   UNL     1      -5.775   2.121  26.504  0.00  0.00    -0.153 OA
ATOM      5  O   UNL     1      -6.161   2.595  24.064  0.00  0.00    -0.153 OA
BRANCH   1  25
ATOM      2  F   UNL     1      -0.345   5.303  24.911  0.00  0.00    -0.205 F 
ATOM     25  C   UNL     1      -3.817   3.074  25.066  0.00  0.00    +0.105 A 
ATOM     30  C   UNL     1      -2.954   2.944  23.979  0.00  0.00    +0.031 A 
ATOM     31  C   UNL     1      -3.507   3.954  26.102  0.00  0.00    +0.031 A 
ATOM     32  C   UNL     1      -1.781   3.698  23.926  0.00  0.00    +0.040 A 
ATOM     33  C   UNL     1      -2.334   4.708  26.050  0.00  0.00    +0.040 A 
ATOM     34  C   UNL     1      -1.471   4.580  24.961  0.00  0.00    +0.124 A 
ENDBRANCH   1  25
ENDBRANCH   7   1
ENDBRANCH  17   7
ENDBRANCH  11  17
BRANCH  13  18
ATOM     18  C   UNL     1      -0.538   0.396  23.484  0.00  0.00    +0.103 C 
BRANCH  18  22
ATOM      3  O   UNL     1       1.576   1.574  23.537  0.00  0.00    -0.276 OA
ATOM      8  N   UNL     1       1.232  -0.090  21.950  0.00  0.00    -0.314 N 
ATOM     22  C   UNL     1       0.867   0.713  23.021  0.00  0.00    +0.214 C 
ATOM     36  H   UNL     1       0.575  -0.777  21.592  0.00  0.00    +0.149 HD
BRANCH   8  23
ATOM     23  C   UNL     1       2.520  -0.004  21.302  0.00  0.00    +0.119 C 
BRANCH  23  24
ATOM     24  C   UNL     1       3.478   0.873  22.095  0.00  0.00    +0.103 C 
BRANCH  24   9
ATOM      6  O   UNL     1       5.879  -1.076  24.931  0.00  0.00    -0.377 OA
ATOM      9  N   UNL     1       4.532   0.059  22.696  0.00  0.00    -0.297 NA
ATOM     26  C   UNL     1       3.959  -1.065  23.449  0.00  0.00    +0.112 C 
ATOM     27  C   UNL     1       5.382   0.873  23.576  0.00  0.00    +0.112 C 
ATOM     28  C   UNL     1       5.077  -1.892  24.078  0.00  0.00    +0.175 C 
ATOM     29  C   UNL     1       6.467   0.000  24.200  0.00  0.00    +0.175 C 
ENDBRANCH  24   9
ENDBRANCH  23  24
ENDBRANCH   8  23
ENDBRANCH  18  22
ENDBRANCH  13  18
TORSDOF 10
ENDMDL
MODEL 5
REMARK VINA RESULT:       0.5      2.096      3.806
REMARK  Name = 38026990
REMARK  13 active torsions:
REMARK  status: ('A' for Active; 'I' for Inactive)
REMARK    1  A    between atoms: S_1  and  N_7
REMARK    2  A    between atoms: S_1  and  C_25
REMARK    3  A    between atoms: N_7  and  C_17
REMARK    4  A    between atoms: N_8  and  C_23
REMARK    5  A    between atoms: N_9  and  C_24
REMARK    6  A    between atoms: C_10  and  C_14
REMARK    7  A    between atoms: C_11  and  C_17
REMARK    8  A    between atoms: C_13  and  C_18
REMARK    9  A    between atoms: C_14  and  C_19
REMARK   10  A    between atoms: C_14  and  C_20
REMARK   11  A    between atoms: C_15  and  C_21
REMARK   12  A    between atoms: C_18  and  C_22
REMARK   13  A    between atoms: C_23  and  C_24
REMARK                            x       y       z     vdW  Elec       q    Type
REMARK                         _______ _______ _______ _____ _____    ______ ____
ROOT
ATOM     10  C   UNL     1      -3.650   1.813  23.647  0.00  0.00    +0.000 C 
ATOM     11  C   UNL     1      -4.928   1.581  24.494  0.00  0.00    +0.030 C 
ATOM     12  C   UNL     1      -3.088   0.473  23.148  0.00  0.00    +0.012 C 
ATOM     13  C   UNL     1      -2.740  -0.480  24.306  0.00  0.00    +0.023 C 
ATOM     15  C   UNL     1      -3.855  -0.554  25.329  0.00  0.00    -0.073 C 
ATOM     16  C   UNL     1      -4.831   0.368  25.389  0.00  0.00    -0.023 C 
ATOM     21  C   UNL     1      -3.848  -1.740  26.254  0.00  0.00    +0.039 C 
ENDROOT
BRANCH  10  14
ATOM     14  C   UNL     1      -3.917   2.739  22.457  0.00  0.00    -0.013 C 
ATOM     19  C   UNL     1      -2.829   2.575  21.400  0.00  0.00    +0.007 C 
ATOM     20  C   UNL     1      -4.006   4.190  22.920  0.00  0.00    +0.007 C 
ENDBRANCH  10  14
BRANCH  11  17
ATOM     17  C   UNL     1      -5.263   2.815  25.339  0.00  0.00    +0.113 C 
BRANCH  17   7
ATOM      7  N   UNL     1      -4.402   2.830  26.531  0.00  0.00    -0.189 NA
ATOM     35  H   UNL     1      -4.721   2.284  27.340  0.00  0.00    +0.148 HD
BRANCH   7   1
ATOM      1  S   UNL     1      -3.369   4.153  26.826  0.00  0.00    +0.058 S 
ATOM      4  O   UNL     1      -3.055   4.208  28.241  0.00  0.00    -0.153 OA
ATOM      5  O   UNL     1      -3.891   5.324  26.148  0.00  0.00    -0.153 OA
BRANCH   1  25
ATOM      2  F   UNL     1       1.514   2.531  23.945  0.00  0.00    -0.205 F 
ATOM     25  C   UNL     1      -1.905   3.666  25.963  0.00  0.00    +0.105 A 
ATOM     30  C   UNL     1      -1.590   4.256  24.738  0.00  0.00    +0.031 A 
ATOM     31  C   UNL     1      -1.067   2.693  26.505  0.00  0.00    +0.031 A 
ATOM     32  C   UNL     1      -0.435   3.872  24.057  0.00  0.00    +0.040 A 
ATOM     33  C   UNL     1       0.089   2.309  25.823  0.00  0.00    +0.040 A 
ATOM     34  C   UNL     1       0.405   2.899  24.599  0.00  0.00    +0.124 A 
ENDBRANCH   1  25
ENDBRANCH   7   1
ENDBRANCH  17   7
ENDBRANCH  11  17
BRANCH  13  18
ATOM     18  C   UNL     1      -1.414  -0.086  24.967  0.00  0.00    +0.103 C 
BRANCH  18  22
ATOM      3  O   UNL     1       0.264  -1.828  24.904  0.00  0.00    -0.276 OA
ATOM      8  N   UNL     1       0.178  -0.259  23.191  0.00  0.00    -0.314 N 
ATOM     22  C   UNL     1      -0.241  -0.838  24.380  0.00  0.00    +0.214 C 
ATOM     36  H   UNL     1      -0.305   0.561  22.836  0.00  0.00    +0.149 HD
BRANCH   8  23
ATOM     23  C   UNL     1       1.283  -0.767  22.412  0.00  0.00    +0.119 C 
BRANCH  23  24
ATOM     24  C   UNL     1       2.334   0.308  22.182  0.00  0.00    +0.103 C 
BRANCH  24   9
ATOM      6  O   UNL     1       5.691  -0.623  24.522  0.00  0.00    -0.377 OA
ATOM      9  N   UNL     1       3.652  -0.176  22.588  0.00  0.00    -0.297 NA
ATOM     26  C   UNL     1       3.531  -1.233  23.602  0.00  0.00    +0.112 C 
ATOM     27  C   UNL     1       4.477   0.926  23.104  0.00  0.00    +0.112 C 
ATOM     28  C   UNL     1       4.919  -1.712  24.019  0.00  0.00    +0.175 C 
ATOM     29  C   UNL     1       5.842   0.394  23.532  0.00  0.00    +0.175 C 
ENDBRANCH  24   9
ENDBRANCH  23  24
ENDBRANCH   8  23
ENDBRANCH  18  22
ENDBRANCH  13  18
TORSDOF 10
ENDMDL
MODEL 6
REMARK VINA RESULT:       1.2      2.803      7.338
REMARK  Name = 38026990
REMARK  13 active torsions:
REMARK  status: ('A' for Active; 'I' for Inactive)
REMARK    1  A    between atoms: S_1  and  N_7
REMARK    2  A    between atoms: S_1  and  C_25
REMARK    3  A    between atoms: N_7  and  C_17
REMARK    4  A    between atoms: N_8  and  C_23
REMARK    5  A    between atoms: N_9  and  C_24
REMARK    6  A    between atoms: C_10  and  C_14
REMARK    7  A    between atoms: C_11  and  C_17
REMARK    8  A    between atoms: C_13  and  C_18
REMARK    9  A    between atoms: C_14  and  C_19
REMARK   10  A    between atoms: C_14  and  C_20
REMARK   11  A    between atoms: C_15  and  C_21
REMARK   12  A    between atoms: C_18  and  C_22
REMARK   13  A    between atoms: C_23  and  C_24
REMARK                            x       y       z     vdW  Elec       q    Type
REMARK                         _______ _______ _______ _____ _____    ______ ____
ROOT
ATOM     10  C   UNL     1      -1.812  -0.642  25.161  0.00  0.00    +0.000 C 
ATOM     11  C   UNL     1      -1.525  -2.074  24.644  0.00  0.00    +0.030 C 
ATOM     12  C   UNL     1      -3.179  -0.587  25.858  0.00  0.00    +0.012 C 
ATOM     13  C   UNL     1      -4.328  -1.008  24.923  0.00  0.00    +0.023 C 
ATOM     15  C   UNL     1      -4.003  -2.281  24.170  0.00  0.00    -0.073 C 
ATOM     16  C   UNL     1      -2.747  -2.750  24.068  0.00  0.00    -0.023 C 
ATOM     21  C   UNL     1      -5.163  -3.030  23.574  0.00  0.00    +0.039 C 
ENDROOT
BRANCH  10  14
ATOM     14  C   UNL     1      -0.721  -0.154  26.119  0.00  0.00    -0.013 C 
ATOM     19  C   UNL     1      -0.887  -0.802  27.490  0.00  0.00    +0.007 C 
ATOM     20  C   UNL     1      -0.753   1.366  26.234  0.00  0.00    +0.007 C 
ENDBRANCH  10  14
BRANCH  11  17
ATOM     17  C   UNL     1      -0.402  -2.072  23.602  0.00  0.00    +0.113 C 
BRANCH  17   7
ATOM      7  N   UNL     1       0.620  -1.092  23.998  0.00  0.00    -0.189 NA
ATOM     35  H   UNL     1       0.646  -0.823  24.989  0.00  0.00    +0.148 HD
BRANCH   7   1
ATOM      1  S   UNL     1       1.226   0.023  22.859  0.00  0.00    +0.058 S 
ATOM      4  O   UNL     1       0.792   1.359  23.221  0.00  0.00    -0.153 OA
ATOM      5  O   UNL     1       0.986  -0.486  21.522  0.00  0.00    -0.153 OA
BRANCH   1  25
ATOM      2  F   UNL     1       7.034  -0.322  23.817  0.00  0.00    -0.205 F 
ATOM     25  C   UNL     1       2.967  -0.080  23.146  0.00  0.00    +0.105 A 
ATOM     30  C   UNL     1       3.526  -1.266  23.622  0.00  0.00    +0.031 A 
ATOM     31  C   UNL     1       3.781   1.024  22.898  0.00  0.00    +0.031 A 
ATOM     32  C   UNL     1       4.900  -1.348  23.848  0.00  0.00    +0.040 A 
ATOM     33  C   UNL     1       5.156   0.943  23.124  0.00  0.00    +0.040 A 
ATOM     34  C   UNL     1       5.715  -0.244  23.600  0.00  0.00    +0.124 A 
ENDBRANCH   1  25
ENDBRANCH   7   1
ENDBRANCH  17   7
ENDBRANCH  11  17
BRANCH  13  18
ATOM     18  C   UNL     1      -4.694   0.124  23.955  0.00  0.00    +0.103 C 
BRANCH  18  22
ATOM      3  O   UNL     1      -6.646   1.395  24.609  0.00  0.00    -0.276 OA
ATOM      8  N   UNL     1      -4.542   2.082  25.319  0.00  0.00    -0.314 N 
ATOM     22  C   UNL     1      -5.427   1.250  24.648  0.00  0.00    +0.214 C 
ATOM     36  H   UNL     1      -3.548   1.879  25.295  0.00  0.00    +0.149 HD
BRANCH   8  23
ATOM     23  C   UNL     1      -4.964   3.242  26.068  0.00  0.00    +0.119 C 
BRANCH  23  24
ATOM     24  C   UNL     1      -4.139   4.466  25.699  0.00  0.00    +0.103 C 
BRANCH  24   9
ATOM      6  O   UNL     1      -0.485   4.227  23.649  0.00  0.00    -0.377 OA
ATOM      9  N   UNL     1      -2.785   4.069  25.317  0.00  0.00    -0.297 NA
ATOM     26  C   UNL     1      -1.868   5.215  25.380  0.00  0.00    +0.112 C 
ATOM     27  C   UNL     1      -2.773   3.488  23.967  0.00  0.00    +0.112 C 
ATOM     28  C   UNL     1      -0.465   4.780  24.965  0.00  0.00    +0.175 C 
ATOM     29  C   UNL     1      -1.349   3.092  23.587  0.00  0.00    +0.175 C 
ENDBRANCH  24   9
ENDBRANCH  23  24
ENDBRANCH   8  23
ENDBRANCH  18  22
ENDBRANCH  13  18
TORSDOF 10
ENDMDL
MODEL 7
REMARK VINA RESULT:       1.4      2.690      7.075
REMARK  Name = 38026990
REMARK  13 active torsions:
REMARK  status: ('A' for Active; 'I' for Inactive)
REMARK    1  A    between atoms: S_1  and  N_7
REMARK    2  A    between atoms: S_1  and  C_25
REMARK    3  A    between atoms: N_7  and  C_17
REMARK    4  A    between atoms: N_8  and  C_23
REMARK    5  A    between atoms: N_9  and  C_24
REMARK    6  A    between atoms: C_10  and  C_14
REMARK    7  A    between atoms: C_11  and  C_17
REMARK    8  A    between atoms: C_13  and  C_18
REMARK    9  A    between atoms: C_14  and  C_19
REMARK   10  A    between atoms: C_14  and  C_20
REMARK   11  A    between atoms: C_15  and  C_21
REMARK   12  A    between atoms: C_18  and  C_22
REMARK   13  A    between atoms: C_23  and  C_24
REMARK                            x       y       z     vdW  Elec       q    Type
REMARK                         _______ _______ _______ _____ _____    ______ ____
ROOT
ATOM     10  C   UNL     1      -2.312   2.237  23.644  0.00  0.00    +0.000 C 
ATOM     11  C   UNL     1      -0.939   2.940  23.802  0.00  0.00    +0.030 C 
ATOM     12  C   UNL     1      -3.417   3.272  23.385  0.00  0.00    +0.012 C 
ATOM     13  C   UNL     1      -3.525   4.306  24.522  0.00  0.00    +0.023 C 
ATOM     15  C   UNL     1      -2.169   4.850  24.919  0.00  0.00    -0.073 C 
ATOM     16  C   UNL     1      -1.024   4.233  24.577  0.00  0.00    -0.023 C 
ATOM     21  C   UNL     1      -2.156   6.146  25.681  0.00  0.00    +0.039 C 
ENDROOT
BRANCH  10  14
ATOM     14  C   UNL     1      -2.295   1.203  22.514  0.00  0.00    -0.013 C 
ATOM     19  C   UNL     1      -2.513   1.883  21.166  0.00  0.00    +0.007 C 
ATOM     20  C   UNL     1      -3.353   0.132  22.756  0.00  0.00    +0.007 C 
ENDBRANCH  10  14
BRANCH  11  17
ATOM     17  C   UNL     1       0.084   2.011  24.466  0.00  0.00    +0.113 C 
BRANCH  17   7
ATOM      7  N   UNL     1       1.126   1.667  23.488  0.00  0.00    -0.189 NA
ATOM     35  H   UNL     1       1.382   2.392  22.807  0.00  0.00    +0.148 HD
BRANCH   7   1
ATOM      1  S   UNL     1       1.384   0.041  23.047  0.00  0.00    +0.058 S 
ATOM      4  O   UNL     1       1.084  -0.125  21.637  0.00  0.00    -0.153 OA
ATOM      5  O   UNL     1       0.762  -0.823  24.032  0.00  0.00    -0.153 OA
BRANCH   1  25
ATOM      2  F   UNL     1       7.217  -0.481  23.735  0.00  0.00    -0.205 F 
ATOM     25  C   UNL     1       3.133  -0.116  23.253  0.00  0.00    +0.105 A 
ATOM     30  C   UNL     1       3.968   0.960  22.955  0.00  0.00    +0.031 A 
ATOM     31  C   UNL     1       3.676  -1.315  23.713  0.00  0.00    +0.031 A 
ATOM     32  C   UNL     1       5.348   0.837  23.118  0.00  0.00    +0.040 A 
ATOM     33  C   UNL     1       5.056  -1.439  23.876  0.00  0.00    +0.040 A 
ATOM     34  C   UNL     1       5.892  -0.362  23.578  0.00  0.00    +0.124 A 
ENDBRANCH   1  25
ENDBRANCH   7   1
ENDBRANCH  17   7
ENDBRANCH  11  17
BRANCH  13  18
ATOM     18  C   UNL     1      -4.257   3.718  25.734  0.00  0.00    +0.103 C 
BRANCH  18  22
ATOM      3  O   UNL     1      -6.143   2.422  24.946  0.00  0.00    -0.276 OA
ATOM      8  N   UNL     1      -4.214   1.329  25.644  0.00  0.00    -0.314 N 
ATOM     22  C   UNL     1      -4.997   2.446  25.390  0.00  0.00    +0.214 C 
ATOM     36  H   UNL     1      -3.275   1.449  26.011  0.00  0.00    +0.149 HD
BRANCH   8  23
ATOM     23  C   UNL     1      -4.666  -0.023  25.410  0.00  0.00    +0.119 C 
BRANCH  23  24
ATOM     24  C   UNL     1      -4.104  -0.979  26.451  0.00  0.00    +0.103 C 
BRANCH  24   9
ATOM      6  O   UNL     1      -1.667  -2.962  23.668  0.00  0.00    -0.377 OA
ATOM      9  N   UNL     1      -3.276  -1.999  25.808  0.00  0.00    -0.297 NA
ATOM     26  C   UNL     1      -1.911  -1.500  25.589  0.00  0.00    +0.112 C 
ATOM     27  C   UNL     1      -3.869  -2.424  24.532  0.00  0.00    +0.112 C 
ATOM     28  C   UNL     1      -1.071  -2.576  24.906  0.00  0.00    +0.175 C 
ATOM     29  C   UNL     1      -2.982  -3.478  23.876  0.00  0.00    +0.175 C 
ENDBRANCH  24   9
ENDBRANCH  23  24
ENDBRANCH   8  23
ENDBRANCH  18  22
ENDBRANCH  13  18
TORSDOF 10
ENDMDL
MODEL 8
REMARK VINA RESULT:       1.4      3.540      6.917
REMARK  Name = 38026990
REMARK  13 active torsions:
REMARK  status: ('A' for Active; 'I' for Inactive)
REMARK    1  A    between atoms: S_1  and  N_7
REMARK    2  A    between atoms: S_1  and  C_25
REMARK    3  A    between atoms: N_7  and  C_17
REMARK    4  A    between atoms: N_8  and  C_23
REMARK    5  A    between atoms: N_9  and  C_24
REMARK    6  A    between atoms: C_10  and  C_14
REMARK    7  A    between atoms: C_11  and  C_17
REMARK    8  A    between atoms: C_13  and  C_18
REMARK    9  A    between atoms: C_14  and  C_19
REMARK   10  A    between atoms: C_14  and  C_20
REMARK   11  A    between atoms: C_15  and  C_21
REMARK   12  A    between atoms: C_18  and  C_22
REMARK   13  A    between atoms: C_23  and  C_24
REMARK                            x       y       z     vdW  Elec       q    Type
REMARK                         _______ _______ _______ _____ _____    ______ ____
ROOT
ATOM     10  C   UNL     1      -2.980  -0.720  24.936  0.00  0.00    +0.000 C 
ATOM     11  C   UNL     1      -1.794  -0.415  23.986  0.00  0.00    +0.030 C 
ATOM     12  C   UNL     1      -4.302  -0.250  24.312  0.00  0.00    +0.012 C 
ATOM     13  C   UNL     1      -4.298   1.259  24.006  0.00  0.00    +0.023 C 
ATOM     15  C   UNL     1      -3.027   1.687  23.301  0.00  0.00    -0.073 C 
ATOM     16  C   UNL     1      -1.923   0.920  23.291  0.00  0.00    -0.023 C 
ATOM     21  C   UNL     1      -3.069   3.000  22.567  0.00  0.00    +0.039 C 
ENDROOT
BRANCH  10  14
ATOM     14  C   UNL     1      -3.068  -2.211  25.275  0.00  0.00    -0.013 C 
ATOM     19  C   UNL     1      -1.683  -2.850  25.233  0.00  0.00    +0.007 C 
ATOM     20  C   UNL     1      -4.019  -2.920  24.317  0.00  0.00    +0.007 C 
ENDBRANCH  10  14
BRANCH  11  17
ATOM     17  C   UNL     1      -0.457  -0.476  24.733  0.00  0.00    +0.113 C 
BRANCH  17   7
ATOM      7  N   UNL     1       0.588  -0.942  23.810  0.00  0.00    -0.189 NA
ATOM     35  H   UNL     1       1.127  -1.767  24.099  0.00  0.00    +0.148 HD
BRANCH   7   1
ATOM      1  S   UNL     1       1.329   0.150  22.732  0.00  0.00    +0.058 S 
ATOM      4  O   UNL     1       0.947   1.505  23.085  0.00  0.00    -0.153 OA
ATOM      5  O   UNL     1       1.151  -0.328  21.374  0.00  0.00    -0.153 OA
BRANCH   1  25
ATOM      2  F   UNL     1       7.033  -0.533  24.062  0.00  0.00    -0.205 F 
ATOM     25  C   UNL     1       3.040  -0.054  23.131  0.00  0.00    +0.105 A 
ATOM     30  C   UNL     1       3.499  -1.276  23.622  0.00  0.00    +0.031 A 
ATOM     31  C   UNL     1       3.928   1.006  22.956  0.00  0.00    +0.031 A 
ATOM     32  C   UNL     1       4.848  -1.438  23.936  0.00  0.00    +0.040 A 
ATOM     33  C   UNL     1       5.278   0.845  23.270  0.00  0.00    +0.040 A 
ATOM     34  C   UNL     1       5.738  -0.378  23.760  0.00  0.00    +0.124 A 
ENDBRANCH   1  25
ENDBRANCH   7   1
ENDBRANCH  17   7
ENDBRANCH  11  17
BRANCH  13  18
ATOM     18  C   UNL     1      -4.523   2.082  25.280  0.00  0.00    +0.103 C 
BRANCH  18  22
ATOM      3  O   UNL     1      -3.664   4.342  25.195  0.00  0.00    -0.276 OA
ATOM      8  N   UNL     1      -2.288   2.623  25.939  0.00  0.00    -0.314 N 
ATOM     22  C   UNL     1      -3.474   3.157  25.455  0.00  0.00    +0.214 C 
ATOM     36  H   UNL     1      -2.227   1.626  26.125  0.00  0.00    +0.149 HD
BRANCH   8  23
ATOM     23  C   UNL     1      -1.112   3.419  26.200  0.00  0.00    +0.119 C 
BRANCH  23  24
ATOM     24  C   UNL     1       0.111   2.541  26.418  0.00  0.00    +0.103 C 
BRANCH  24   9
ATOM      6  O   UNL     1       2.404   2.295  29.924  0.00  0.00    -0.377 OA
ATOM      9  N   UNL     1       0.777   2.898  27.669  0.00  0.00    -0.297 NA
ATOM     26  C   UNL     1       2.233   2.747  27.546  0.00  0.00    +0.112 C 
ATOM     27  C   UNL     1       0.276   2.077  28.780  0.00  0.00    +0.112 C 
ATOM     28  C   UNL     1       2.905   3.113  28.867  0.00  0.00    +0.175 C 
ATOM     29  C   UNL     1       0.994   2.461  30.071  0.00  0.00    +0.175 C 
ENDBRANCH  24   9
ENDBRANCH  23  24
ENDBRANCH   8  23
ENDBRANCH  18  22
ENDBRANCH  13  18
TORSDOF 10
ENDMDL
