MODEL 1
REMARK VINA RESULT:      -5.8      0.000      0.000
REMARK  Name = 75536930
REMARK  4 active torsions:
REMARK  status: ('A' for Active; 'I' for Inactive)
REMARK    1  A    between atoms: O_2  and  C_8
REMARK    2  A    between atoms: O_2  and  C_15
REMARK    3  A    between atoms: N_3  and  C_11
REMARK    4  A    between atoms: C_11  and  C_13
REMARK                            x       y       z     vdW  Elec       q    Type
REMARK                         _______ _______ _______ _____ _____    ______ ____
ROOT
ATOM      1  O   UNL     1      -1.203  -2.321  23.923  0.00  0.00    -0.375 OA
ATOM      3  N   UNL     1      -3.569  -0.722  24.286  0.00  0.00    -0.292 NA
ATOM      7  C   UNL     1      -2.687  -0.069  25.252  0.00  0.00    +0.131 C 
ATOM      8  C   UNL     1      -1.252   0.015  24.715  0.00  0.00    +0.215 C 
ATOM      9  C   UNL     1      -3.598  -2.186  24.382  0.00  0.00    +0.113 C 
ATOM     10  C   UNL     1      -0.501  -1.313  24.639  0.00  0.00    +0.205 C 
ATOM     12  C   UNL     1      -2.271  -2.878  24.682  0.00  0.00    +0.175 C 
ENDROOT
BRANCH   8   2
ATOM      2  O   UNL     1      -0.518   0.902  25.560  0.00  0.00    -0.468 OA
BRANCH   2  15
ATOM      5  N   UNL     1      -0.082   2.731  24.193  0.00  0.00    -0.219 NA
ATOM      6  N   UNL     1      -1.518   4.361  25.966  0.00  0.00    -0.256 NA
ATOM     15  C   UNL     1      -0.656   2.239  25.309  0.00  0.00    +0.234 A 
ATOM     18  C   UNL     1      -1.361   3.040  26.179  0.00  0.00    +0.177 A 
ATOM     20  C   UNL     1      -0.239   4.052  23.980  0.00  0.00    +0.134 A 
ATOM     21  C   UNL     1      -0.944   4.853  24.850  0.00  0.00    +0.130 A 
ENDBRANCH   2  15
ENDBRANCH   8   2
BRANCH   3  11
ATOM     11  C   UNL     1      -4.930  -0.189  24.358  0.00  0.00    +0.121 C 
BRANCH  11  13
ATOM      4  N   UNL     1      -5.669   3.080  26.118  0.00  0.00    -0.263 NA
ATOM     13  C   UNL     1      -4.940   1.282  24.676  0.00  0.00    -0.015 A 
ATOM     14  C   UNL     1      -4.268   2.194  23.868  0.00  0.00    +0.008 A 
ATOM     16  C   UNL     1      -5.619   1.773  25.779  0.00  0.00    +0.115 A 
ATOM     17  C   UNL     1      -4.295   3.547  24.185  0.00  0.00    +0.020 A 
ATOM     19  C   UNL     1      -5.004   3.936  25.311  0.00  0.00    +0.111 A 
ENDBRANCH  11  13
ENDBRANCH   3  11
TORSDOF 4
ENDMDL
MODEL 2
REMARK VINA RESULT:      -4.1     15.856     18.228
REMARK  Name = 75536930
REMARK  4 active torsions:
REMARK  status: ('A' for Active; 'I' for Inactive)
REMARK    1  A    between atoms: O_2  and  C_8
REMARK    2  A    between atoms: O_2  and  C_15
REMARK    3  A    between atoms: N_3  and  C_11
REMARK    4  A    between atoms: C_11  and  C_13
REMARK                            x       y       z     vdW  Elec       q    Type
REMARK                         _______ _______ _______ _____ _____    ______ ____
ROOT
ATOM      1  O   UNL     1      -4.233  -9.116  11.027  0.00  0.00    -0.375 OA
ATOM      3  N   UNL     1      -6.557  -9.073   9.328  0.00  0.00    -0.292 NA
ATOM      7  C   UNL     1      -6.942 -10.153  10.236  0.00  0.00    +0.131 C 
ATOM      8  C   UNL     1      -6.499  -9.848  11.672  0.00  0.00    +0.215 C 
ATOM      9  C   UNL     1      -5.199  -9.190   8.784  0.00  0.00    +0.113 C 
ATOM     10  C   UNL     1      -4.994  -9.915  11.924  0.00  0.00    +0.205 C 
ATOM     12  C   UNL     1      -4.124  -9.708   9.737  0.00  0.00    +0.175 C 
ENDROOT
BRANCH   8   2
ATOM      2  O   UNL     1      -7.144 -10.781  12.540  0.00  0.00    -0.468 OA
BRANCH   2  15
ATOM      5  N   UNL     1      -7.066 -10.390  14.830  0.00  0.00    -0.219 NA
ATOM      6  N   UNL     1      -9.567  -9.129  14.670  0.00  0.00    -0.256 NA
ATOM     15  C   UNL     1      -7.730 -10.267  13.663  0.00  0.00    +0.234 A 
ATOM     18  C   UNL     1      -8.958  -9.648  13.585  0.00  0.00    +0.177 A 
ATOM     20  C   UNL     1      -7.675  -9.871  15.915  0.00  0.00    +0.134 A 
ATOM     21  C   UNL     1      -8.902  -9.253  15.836  0.00  0.00    +0.130 A 
ENDBRANCH   2  15
ENDBRANCH   8   2
BRANCH   3  11
ATOM     11  C   UNL     1      -7.522  -8.920   8.238  0.00  0.00    +0.121 C 
BRANCH  11  13
ATOM      4  N   UNL     1     -10.614  -7.046   9.361  0.00  0.00    -0.263 NA
ATOM     13  C   UNL     1      -8.483  -7.790   8.495  0.00  0.00    -0.015 A 
ATOM     14  C   UNL     1      -8.171  -6.486   8.124  0.00  0.00    +0.008 A 
ATOM     16  C   UNL     1      -9.706  -8.014   9.105  0.00  0.00    +0.115 A 
ATOM     17  C   UNL     1      -9.078  -5.462   8.373  0.00  0.00    +0.020 A 
ATOM     19  C   UNL     1     -10.275  -5.791   8.988  0.00  0.00    +0.111 A 
ENDBRANCH  11  13
ENDBRANCH   3  11
TORSDOF 4
ENDMDL
MODEL 3
REMARK VINA RESULT:      -4.0     14.329     16.416
REMARK  Name = 75536930
REMARK  4 active torsions:
REMARK  status: ('A' for Active; 'I' for Inactive)
REMARK    1  A    between atoms: O_2  and  C_8
REMARK    2  A    between atoms: O_2  and  C_15
REMARK    3  A    between atoms: N_3  and  C_11
REMARK    4  A    between atoms: C_11  and  C_13
REMARK                            x       y       z     vdW  Elec       q    Type
REMARK                         _______ _______ _______ _____ _____    ______ ____
ROOT
ATOM      1  O   UNL     1      -4.842  -9.612  16.684  0.00  0.00    -0.375 OA
ATOM      3  N   UNL     1      -4.773 -10.323  13.895  0.00  0.00    -0.292 NA
ATOM      7  C   UNL     1      -6.122 -10.780  14.227  0.00  0.00    +0.131 C 
ATOM      8  C   UNL     1      -6.805  -9.814  15.203  0.00  0.00    +0.215 C 
ATOM      9  C   UNL     1      -3.734 -10.761  14.834  0.00  0.00    +0.113 C 
ATOM     10  C   UNL     1      -6.248  -9.815  16.625  0.00  0.00    +0.205 C 
ATOM     12  C   UNL     1      -4.113 -10.778  16.313  0.00  0.00    +0.175 C 
ENDROOT
BRANCH   8   2
ATOM      2  O   UNL     1      -8.191 -10.153  15.260  0.00  0.00    -0.468 OA
BRANCH   2  15
ATOM      5  N   UNL     1      -9.394  -8.164  15.199  0.00  0.00    -0.219 NA
ATOM      6  N   UNL     1     -10.237  -8.629  17.833  0.00  0.00    -0.256 NA
ATOM     15  C   UNL     1      -9.013  -9.259  15.888  0.00  0.00    +0.234 A 
ATOM     18  C   UNL     1      -9.428  -9.486  17.181  0.00  0.00    +0.177 A 
ATOM     20  C   UNL     1     -10.203  -7.307  15.851  0.00  0.00    +0.134 A 
ATOM     21  C   UNL     1     -10.618  -7.534  17.144  0.00  0.00    +0.130 A 
ENDBRANCH   2  15
ENDBRANCH   8   2
BRANCH   3  11
ATOM     11  C   UNL     1      -4.402 -10.695  12.529  0.00  0.00    +0.121 C 
BRANCH  11  13
ATOM      4  N   UNL     1      -7.101  -9.059  10.439  0.00  0.00    -0.263 NA
ATOM     13  C   UNL     1      -5.068  -9.813  11.507  0.00  0.00    -0.015 A 
ATOM     14  C   UNL     1      -4.320  -8.962  10.699  0.00  0.00    +0.008 A 
ATOM     16  C   UNL     1      -6.442  -9.823  11.339  0.00  0.00    +0.115 A 
ATOM     17  C   UNL     1      -4.962  -8.159   9.764  0.00  0.00    +0.020 A 
ATOM     19  C   UNL     1      -6.342  -8.244   9.673  0.00  0.00    +0.111 A 
ENDBRANCH  11  13
ENDBRANCH   3  11
TORSDOF 4
ENDMDL
MODEL 4
REMARK VINA RESULT:      -3.3      2.267      3.005
REMARK  Name = 75536930
REMARK  4 active torsions:
REMARK  status: ('A' for Active; 'I' for Inactive)
REMARK    1  A    between atoms: O_2  and  C_8
REMARK    2  A    between atoms: O_2  and  C_15
REMARK    3  A    between atoms: N_3  and  C_11
REMARK    4  A    between atoms: C_11  and  C_13
REMARK                            x       y       z     vdW  Elec       q    Type
REMARK                         _______ _______ _______ _____ _____    ______ ____
ROOT
ATOM      1  O   UNL     1      -1.387  -2.408  25.197  0.00  0.00    -0.375 OA
ATOM      3  N   UNL     1      -3.347  -0.532  24.237  0.00  0.00    -0.292 NA
ATOM      7  C   UNL     1      -2.248   0.391  24.516  0.00  0.00    +0.131 C 
ATOM      8  C   UNL     1      -0.898  -0.234  24.139  0.00  0.00    +0.215 C 
ATOM      9  C   UNL     1      -3.641  -1.475  25.322  0.00  0.00    +0.113 C 
ATOM     10  C   UNL     1      -0.426  -1.372  25.042  0.00  0.00    +0.205 C 
ATOM     12  C   UNL     1      -2.441  -2.039  26.080  0.00  0.00    +0.175 C 
ENDROOT
BRANCH   8   2
ATOM      2  O   UNL     1       0.087   0.800  24.162  0.00  0.00    -0.468 OA
BRANCH   2  15
ATOM      5  N   UNL     1       2.317   1.260  23.692  0.00  0.00    -0.219 NA
ATOM      6  N   UNL     1       2.147  -0.382  21.424  0.00  0.00    -0.256 NA
ATOM     15  C   UNL     1       1.177   0.623  23.355  0.00  0.00    +0.234 A 
ATOM     18  C   UNL     1       1.094  -0.183  22.242  0.00  0.00    +0.177 A 
ATOM     20  C   UNL     1       3.369   1.061  22.874  0.00  0.00    +0.134 A 
ATOM     21  C   UNL     1       3.286   0.256  21.760  0.00  0.00    +0.130 A 
ENDBRANCH   2  15
ENDBRANCH   8   2
BRANCH   3  11
ATOM     11  C   UNL     1      -4.565   0.185  23.855  0.00  0.00    +0.121 C 
BRANCH  11  13
ATOM      4  N   UNL     1      -5.498   3.052  26.145  0.00  0.00    -0.263 NA
ATOM     13  C   UNL     1      -4.615   1.565  24.455  0.00  0.00    -0.015 A 
ATOM     14  C   UNL     1      -3.868   2.608  23.917  0.00  0.00    +0.008 A 
ATOM     16  C   UNL     1      -5.406   1.837  25.559  0.00  0.00    +0.115 A 
ATOM     17  C   UNL     1      -3.934   3.872  24.492  0.00  0.00    +0.020 A 
ATOM     19  C   UNL     1      -4.757   4.041  25.595  0.00  0.00    +0.111 A 
ENDBRANCH  11  13
ENDBRANCH   3  11
TORSDOF 4
ENDMDL
MODEL 5
REMARK VINA RESULT:      -2.9     17.049     19.793
REMARK  Name = 75536930
REMARK  4 active torsions:
REMARK  status: ('A' for Active; 'I' for Inactive)
REMARK    1  A    between atoms: O_2  and  C_8
REMARK    2  A    between atoms: O_2  and  C_15
REMARK    3  A    between atoms: N_3  and  C_11
REMARK    4  A    between atoms: C_11  and  C_13
REMARK                            x       y       z     vdW  Elec       q    Type
REMARK                         _______ _______ _______ _____ _____    ______ ____
ROOT
ATOM      1  O   UNL     1      12.336  -5.166  31.422  0.00  0.00    -0.375 OA
ATOM      3  N   UNL     1      14.295  -7.169  30.758  0.00  0.00    -0.292 NA
ATOM      7  C   UNL     1      13.611  -7.855  31.853  0.00  0.00    +0.131 C 
ATOM      8  C   UNL     1      12.100  -7.592  31.808  0.00  0.00    +0.215 C 
ATOM      9  C   UNL     1      14.671  -5.781  31.051  0.00  0.00    +0.113 C 
ATOM     10  C   UNL     1      11.670  -6.173  32.173  0.00  0.00    +0.205 C 
ATOM     12  C   UNL     1      13.674  -4.960  31.864  0.00  0.00    +0.175 C 
ENDROOT
BRANCH   8   2
ATOM      2  O   UNL     1      11.467  -8.503  32.707  0.00  0.00    -0.468 OA
BRANCH   2  15
ATOM      5  N   UNL     1      10.273 -10.295  31.834  0.00  0.00    -0.219 NA
ATOM      6  N   UNL     1       7.925  -8.768  31.988  0.00  0.00    -0.256 NA
ATOM     15  C   UNL     1      10.273  -9.031  32.302  0.00  0.00    +0.234 A 
ATOM     18  C   UNL     1       9.120  -8.282  32.378  0.00  0.00    +0.177 A 
ATOM     20  C   UNL     1       9.078 -10.781  31.444  0.00  0.00    +0.134 A 
ATOM     21  C   UNL     1       7.925 -10.032  31.520  0.00  0.00    +0.130 A 
ENDBRANCH   2  15
ENDBRANCH   8   2
BRANCH   3  11
ATOM     11  C   UNL     1      15.466  -7.920  30.304  0.00  0.00    +0.121 C 
BRANCH  11  13
ATOM      4  N   UNL     1      15.486  -9.588  26.906  0.00  0.00    -0.263 NA
ATOM     13  C   UNL     1      15.473  -8.098  28.809  0.00  0.00    -0.015 A 
ATOM     14  C   UNL     1      15.478  -6.998  27.957  0.00  0.00    +0.008 A 
ATOM     16  C   UNL     1      15.477  -9.359  28.238  0.00  0.00    +0.115 A 
ATOM     17  C   UNL     1      15.485  -7.193  26.581  0.00  0.00    +0.020 A 
ATOM     19  C   UNL     1      15.489  -8.496  26.109  0.00  0.00    +0.111 A 
ENDBRANCH  11  13
ENDBRANCH   3  11
TORSDOF 4
ENDMDL
MODEL 6
REMARK VINA RESULT:      -2.5     14.772     17.041
REMARK  Name = 75536930
REMARK  4 active torsions:
REMARK  status: ('A' for Active; 'I' for Inactive)
REMARK    1  A    between atoms: O_2  and  C_8
REMARK    2  A    between atoms: O_2  and  C_15
REMARK    3  A    between atoms: N_3  and  C_11
REMARK    4  A    between atoms: C_11  and  C_13
REMARK                            x       y       z     vdW  Elec       q    Type
REMARK                         _______ _______ _______ _____ _____    ______ ____
ROOT
ATOM      1  O   UNL     1      -0.492  -8.239  12.779  0.00  0.00    -0.375 OA
ATOM      3  N   UNL     1      -2.383  -9.878  11.354  0.00  0.00    -0.292 NA
ATOM      7  C   UNL     1      -2.153 -10.732  12.518  0.00  0.00    +0.131 C 
ATOM      8  C   UNL     1      -2.013  -9.894  13.796  0.00  0.00    +0.215 C 
ATOM      9  C   UNL     1      -1.160  -9.371  10.720  0.00  0.00    +0.113 C 
ATOM     10  C   UNL     1      -0.730  -9.073  13.906  0.00  0.00    +0.205 C 
ATOM     12  C   UNL     1      -0.020  -8.974  11.655  0.00  0.00    +0.175 C 
ENDROOT
BRANCH   8   2
ATOM      2  O   UNL     1      -2.080 -10.781  14.913  0.00  0.00    -0.468 OA
BRANCH   2  15
ATOM      5  N   UNL     1      -4.404 -10.779  14.947  0.00  0.00    -0.219 NA
ATOM      6  N   UNL     1      -4.334 -10.748  17.750  0.00  0.00    -0.256 NA
ATOM     15  C   UNL     1      -3.244 -10.773  15.632  0.00  0.00    +0.234 A 
ATOM     18  C   UNL     1      -3.210 -10.757  17.008  0.00  0.00    +0.177 A 
ATOM     20  C   UNL     1      -5.529 -10.770  15.689  0.00  0.00    +0.134 A 
ATOM     21  C   UNL     1      -5.495 -10.755  17.065  0.00  0.00    +0.130 A 
ENDBRANCH   2  15
ENDBRANCH   8   2
BRANCH   3  11
ATOM     11  C   UNL     1      -3.224 -10.543  10.359  0.00  0.00    +0.121 C 
BRANCH  11  13
ATOM      4  N   UNL     1      -6.144  -8.841   8.652  0.00  0.00    -0.263 NA
ATOM     13  C   UNL     1      -4.533  -9.826  10.162  0.00  0.00    -0.015 A 
ATOM     14  C   UNL     1      -5.332  -9.481  11.249  0.00  0.00    +0.008 A 
ATOM     16  C   UNL     1      -4.981  -9.486   8.897  0.00  0.00    +0.115 A 
ATOM     17  C   UNL     1      -6.535  -8.819  11.037  0.00  0.00    +0.020 A 
ATOM     19  C   UNL     1      -6.893  -8.523   9.731  0.00  0.00    +0.111 A 
ENDBRANCH  11  13
ENDBRANCH   3  11
TORSDOF 4
ENDMDL
MODEL 7
REMARK VINA RESULT:      -2.0     16.387     18.364
REMARK  Name = 75536930
REMARK  4 active torsions:
REMARK  status: ('A' for Active; 'I' for Inactive)
REMARK    1  A    between atoms: O_2  and  C_8
REMARK    2  A    between atoms: O_2  and  C_15
REMARK    3  A    between atoms: N_3  and  C_11
REMARK    4  A    between atoms: C_11  and  C_13
REMARK                            x       y       z     vdW  Elec       q    Type
REMARK                         _______ _______ _______ _____ _____    ______ ____
ROOT
ATOM      1  O   UNL     1      -6.354  -7.780   9.249  0.00  0.00    -0.375 OA
ATOM      3  N   UNL     1      -4.598  -9.923  10.034  0.00  0.00    -0.292 NA
ATOM      7  C   UNL     1      -5.814 -10.340  10.732  0.00  0.00    +0.131 C 
ATOM      8  C   UNL     1      -7.059 -10.058   9.881  0.00  0.00    +0.215 C 
ATOM      9  C   UNL     1      -4.239  -8.513  10.227  0.00  0.00    +0.113 C 
ATOM     10  C   UNL     1      -7.427  -8.585   9.722  0.00  0.00    +0.205 C 
ATOM     12  C   UNL     1      -5.392  -7.513  10.264  0.00  0.00    +0.175 C 
ENDROOT
BRANCH   8   2
ATOM      2  O   UNL     1      -8.163 -10.738  10.480  0.00  0.00    -0.468 OA
BRANCH   2  15
ATOM      5  N   UNL     1      -9.826  -9.732  11.757  0.00  0.00    -0.219 NA
ATOM      6  N   UNL     1      -8.150  -9.880  14.001  0.00  0.00    -0.256 NA
ATOM     15  C   UNL     1      -8.589 -10.264  11.691  0.00  0.00    +0.234 A 
ATOM     18  C   UNL     1      -7.767 -10.337  12.792  0.00  0.00    +0.177 A 
ATOM     20  C   UNL     1     -10.209  -9.276  12.966  0.00  0.00    +0.134 A 
ATOM     21  C   UNL     1      -9.387  -9.348  14.067  0.00  0.00    +0.130 A 
ENDBRANCH   2  15
ENDBRANCH   8   2
BRANCH   3  11
ATOM     11  C   UNL     1      -3.463 -10.780  10.377  0.00  0.00    +0.121 C 
BRANCH  11  13
ATOM      4  N   UNL     1      -3.765 -10.679  14.149  0.00  0.00    -0.263 NA
ATOM     13  C   UNL     1      -3.086 -10.657  11.829  0.00  0.00    -0.015 A 
ATOM     14  C   UNL     1      -1.770 -10.412  12.210  0.00  0.00    +0.008 A 
ATOM     16  C   UNL     1      -4.036 -10.781  12.829  0.00  0.00    +0.115 A 
ATOM     17  C   UNL     1      -1.452 -10.303  13.558  0.00  0.00    +0.020 A 
ATOM     19  C   UNL     1      -2.476 -10.442  14.481  0.00  0.00    +0.111 A 
ENDBRANCH  11  13
ENDBRANCH   3  11
TORSDOF 4
ENDMDL
MODEL 8
REMARK VINA RESULT:      -1.9      3.077      4.071
REMARK  Name = 75536930
REMARK  4 active torsions:
REMARK  status: ('A' for Active; 'I' for Inactive)
REMARK    1  A    between atoms: O_2  and  C_8
REMARK    2  A    between atoms: O_2  and  C_15
REMARK    3  A    between atoms: N_3  and  C_11
REMARK    4  A    between atoms: C_11  and  C_13
REMARK                            x       y       z     vdW  Elec       q    Type
REMARK                         _______ _______ _______ _____ _____    ______ ____
ROOT
ATOM      1  O   UNL     1      -0.311  -1.391  24.849  0.00  0.00    -0.375 OA
ATOM      3  N   UNL     1      -1.956   0.545  23.495  0.00  0.00    -0.292 NA
ATOM      7  C   UNL     1      -0.666   1.229  23.417  0.00  0.00    +0.131 C 
ATOM      8  C   UNL     1       0.470   0.230  23.162  0.00  0.00    +0.215 C 
ATOM      9  C   UNL     1      -2.295   0.035  24.829  0.00  0.00    +0.113 C 
ATOM     10  C   UNL     1       0.812  -0.689  24.332  0.00  0.00    +0.205 C 
ATOM     12  C   UNL     1      -1.148  -0.558  25.644  0.00  0.00    +0.175 C 
ENDROOT
BRANCH   8   2
ATOM      2  O   UNL     1       1.639   0.973  22.814  0.00  0.00    -0.468 OA
BRANCH   2  15
ATOM      5  N   UNL     1       3.938   1.179  23.088  0.00  0.00    -0.219 NA
ATOM      6  N   UNL     1       4.077  -1.551  23.719  0.00  0.00    -0.256 NA
ATOM     15  C   UNL     1       2.842   0.395  23.111  0.00  0.00    +0.234 A 
ATOM     18  C   UNL     1       2.910  -0.945  23.421  0.00  0.00    +0.177 A 
ATOM     20  C   UNL     1       5.105   0.573  23.386  0.00  0.00    +0.134 A 
ATOM     21  C   UNL     1       5.173  -0.767  23.696  0.00  0.00    +0.130 A 
ENDBRANCH   2  15
ENDBRANCH   8   2
BRANCH   3  11
ATOM     11  C   UNL     1      -3.041   1.389  22.992  0.00  0.00    +0.121 C 
BRANCH  11  13
ATOM      4  N   UNL     1      -3.572   4.047  25.635  0.00  0.00    -0.263 NA
ATOM     13  C   UNL     1      -3.685   2.189  24.093  0.00  0.00    -0.015 A 
ATOM     14  C   UNL     1      -4.938   1.844  24.590  0.00  0.00    +0.008 A 
ATOM     16  C   UNL     1      -3.051   3.289  24.645  0.00  0.00    +0.115 A 
ATOM     17  C   UNL     1      -5.508   2.600  25.608  0.00  0.00    +0.020 A 
ATOM     19  C   UNL     1      -4.791   3.682  26.092  0.00  0.00    +0.111 A 
ENDBRANCH  11  13
ENDBRANCH   3  11
TORSDOF 4
ENDMDL
