MODEL 1
REMARK VINA RESULT:      -3.4      0.000      0.000
REMARK  Name = 26743157
REMARK  8 active torsions:
REMARK  status: ('A' for Active; 'I' for Inactive)
REMARK    1  A    between atoms: O_3  and  C_24
REMARK    2  A    between atoms: O_3  and  C_25
REMARK    3  A    between atoms: N_5  and  C_14
REMARK    4  A    between atoms: C_7  and  C_11
REMARK    5  A    between atoms: C_8  and  C_13
REMARK    6  A    between atoms: C_11  and  C_17
REMARK    7  A    between atoms: C_13  and  C_21
REMARK    8  A    between atoms: C_23  and  C_24
REMARK                            x       y       z     vdW  Elec       q    Type
REMARK                         _______ _______ _______ _____ _____    ______ ____
ROOT
ATOM      4  N   UNL     1      -3.250  -3.497  24.396  0.00  0.00    -0.316 NA
ATOM      7  C   UNL     1      -3.777  -0.595  24.328  0.00  0.00    +0.004 C 
ATOM      8  C   UNL     1      -2.465  -1.194  24.891  0.00  0.00    +0.012 C 
ATOM      9  C   UNL     1      -4.392  -1.586  23.326  0.00  0.00    +0.019 C 
ATOM     10  C   UNL     1      -2.674  -2.623  25.418  0.00  0.00    +0.085 C 
ATOM     12  C   UNL     1      -4.531  -2.992  23.907  0.00  0.00    +0.081 C 
ATOM     31  H   UNL     1      -3.381  -4.431  24.785  0.00  0.00    +0.122 HD
ENDROOT
BRANCH   7  11
ATOM     11  C   UNL     1      -4.796  -0.204  25.405  0.00  0.00    +0.099 C 
BRANCH  11  17
ATOM      1  O   UNL     1      -6.292   1.677  25.685  0.00  0.00    -0.276 OA
ATOM      5  N   UNL     1      -4.197   2.016  24.737  0.00  0.00    -0.312 N 
ATOM     17  C   UNL     1      -5.204   1.250  25.307  0.00  0.00    +0.214 C 
ATOM     32  H   UNL     1      -3.301   1.585  24.541  0.00  0.00    +0.149 HD
BRANCH   5  14
ATOM     14  C   UNL     1      -4.315   3.441  24.520  0.00  0.00    +0.073 C 
ATOM     15  C   UNL     1      -4.143   4.215  25.831  0.00  0.00    +0.022 C 
ATOM     16  C   UNL     1      -3.321   3.920  23.457  0.00  0.00    +0.022 C 
ATOM     18  C   UNL     1      -2.698   4.205  26.330  0.00  0.00    +0.002 C 
ATOM     19  C   UNL     1      -1.878   3.911  23.960  0.00  0.00    +0.002 C 
ATOM     20  C   UNL     1      -1.729   4.696  25.259  0.00  0.00    +0.000 C 
ENDBRANCH   5  14
ENDBRANCH  11  17
ENDBRANCH   7  11
BRANCH   8  13
ATOM     13  C   UNL     1      -1.816  -0.316  25.961  0.00  0.00    +0.064 C 
BRANCH  13  21
ATOM      2  O   UNL     1       0.730   2.132  25.264  0.00  0.00    -0.356 OA
ATOM      6  N   UNL     1      -0.256   1.579  26.071  0.00  0.00    -0.083 NA
ATOM     21  C   UNL     1      -0.722   0.534  25.382  0.00  0.00    +0.084 A 
ATOM     22  C   UNL     1      -0.074   0.379  24.145  0.00  0.00    +0.074 A 
ATOM     23  C   UNL     1       0.830   1.408  24.118  0.00  0.00    +0.175 A 
BRANCH  23  24
ATOM     24  C   UNL     1       1.832   1.857  23.144  0.00  0.00    +0.306 C 
BRANCH  24   3
ATOM      3  O   UNL     1       2.393   0.734  22.457  0.00  0.00    -0.484 OA
BRANCH   3  25
ATOM     25  C   UNL     1       3.524   0.193  22.998  0.00  0.00    +0.121 A 
ATOM     26  C   UNL     1       3.521  -1.131  23.439  0.00  0.00    +0.045 A 
ATOM     27  C   UNL     1       4.681   0.963  23.110  0.00  0.00    +0.045 A 
ATOM     28  C   UNL     1       4.676  -1.684  23.992  0.00  0.00    +0.004 A 
ATOM     29  C   UNL     1       5.836   0.410  23.663  0.00  0.00    +0.004 A 
ATOM     30  C   UNL     1       5.834  -0.913  24.104  0.00  0.00    +0.000 A 
ENDBRANCH   3  25
ENDBRANCH  24   3
ENDBRANCH  23  24
ENDBRANCH  13  21
ENDBRANCH   8  13
TORSDOF 8
ENDMDL
MODEL 2
REMARK VINA RESULT:      -3.1      1.526      4.514
REMARK  Name = 26743157
REMARK  8 active torsions:
REMARK  status: ('A' for Active; 'I' for Inactive)
REMARK    1  A    between atoms: O_3  and  C_24
REMARK    2  A    between atoms: O_3  and  C_25
REMARK    3  A    between atoms: N_5  and  C_14
REMARK    4  A    between atoms: C_7  and  C_11
REMARK    5  A    between atoms: C_8  and  C_13
REMARK    6  A    between atoms: C_11  and  C_17
REMARK    7  A    between atoms: C_13  and  C_21
REMARK    8  A    between atoms: C_23  and  C_24
REMARK                            x       y       z     vdW  Elec       q    Type
REMARK                         _______ _______ _______ _____ _____    ______ ____
ROOT
ATOM      4  N   UNL     1      -0.461   5.217  24.767  0.00  0.00    -0.316 NA
ATOM      7  C   UNL     1      -2.742   3.720  25.892  0.00  0.00    +0.004 C 
ATOM      8  C   UNL     1      -1.295   3.168  25.896  0.00  0.00    +0.012 C 
ATOM      9  C   UNL     1      -2.693   5.256  25.825  0.00  0.00    +0.019 C 
ATOM     10  C   UNL     1      -0.462   3.754  24.744  0.00  0.00    +0.085 C 
ATOM     12  C   UNL     1      -1.814   5.762  24.682  0.00  0.00    +0.081 C 
ATOM     31  H   UNL     1       0.093   5.567  23.986  0.00  0.00    +0.122 HD
ENDROOT
BRANCH   7  11
ATOM     11  C   UNL     1      -3.623   3.153  24.772  0.00  0.00    +0.099 C 
BRANCH  11  17
ATOM      1  O   UNL     1      -5.488   2.066  25.864  0.00  0.00    -0.276 OA
ATOM      5  N   UNL     1      -3.847   0.770  24.851  0.00  0.00    -0.312 N 
ATOM     17  C   UNL     1      -4.440   1.965  25.233  0.00  0.00    +0.214 C 
ATOM     32  H   UNL     1      -3.029   0.795  24.253  0.00  0.00    +0.149 HD
BRANCH   5  14
ATOM     14  C   UNL     1      -4.411  -0.525  25.159  0.00  0.00    +0.073 C 
ATOM     15  C   UNL     1      -4.457  -1.418  23.914  0.00  0.00    +0.022 C 
ATOM     16  C   UNL     1      -3.644  -1.203  26.300  0.00  0.00    +0.022 C 
ATOM     18  C   UNL     1      -3.069  -1.897  23.487  0.00  0.00    +0.002 C 
ATOM     19  C   UNL     1      -2.258  -1.682  25.868  0.00  0.00    +0.002 C 
ATOM     20  C   UNL     1      -2.330  -2.577  24.635  0.00  0.00    +0.000 C 
ENDBRANCH   5  14
ENDBRANCH  11  17
ENDBRANCH   7  11
BRANCH   8  13
ATOM     13  C   UNL     1      -1.237   1.641  25.878  0.00  0.00    +0.064 C 
BRANCH  13  21
ATOM      2  O   UNL     1      -0.628   0.833  22.423  0.00  0.00    -0.356 OA
ATOM      6  N   UNL     1      -1.349   1.463  23.430  0.00  0.00    -0.083 NA
ATOM     21  C   UNL     1      -0.726   1.127  24.563  0.00  0.00    +0.084 A 
ATOM     22  C   UNL     1       0.384   0.295  24.336  0.00  0.00    +0.074 A 
ATOM     23  C   UNL     1       0.402   0.140  22.975  0.00  0.00    +0.175 A 
BRANCH  23  24
ATOM     24  C   UNL     1       1.273  -0.591  22.047  0.00  0.00    +0.306 C 
BRANCH  24   3
ATOM      3  O   UNL     1       2.460   0.163  21.781  0.00  0.00    -0.484 OA
BRANCH   3  25
ATOM     25  C   UNL     1       3.515  -0.047  22.623  0.00  0.00    +0.121 A 
ATOM     26  C   UNL     1       4.400   0.993  22.905  0.00  0.00    +0.045 A 
ATOM     27  C   UNL     1       3.707  -1.302  23.200  0.00  0.00    +0.045 A 
ATOM     28  C   UNL     1       5.478   0.779  23.764  0.00  0.00    +0.004 A 
ATOM     29  C   UNL     1       4.785  -1.517  24.059  0.00  0.00    +0.004 A 
ATOM     30  C   UNL     1       5.670  -0.477  24.341  0.00  0.00    +0.000 A 
ENDBRANCH   3  25
ENDBRANCH  24   3
ENDBRANCH  23  24
ENDBRANCH  13  21
ENDBRANCH   8  13
TORSDOF 8
ENDMDL
MODEL 3
REMARK VINA RESULT:      -1.7      1.654      4.423
REMARK  Name = 26743157
REMARK  8 active torsions:
REMARK  status: ('A' for Active; 'I' for Inactive)
REMARK    1  A    between atoms: O_3  and  C_24
REMARK    2  A    between atoms: O_3  and  C_25
REMARK    3  A    between atoms: N_5  and  C_14
REMARK    4  A    between atoms: C_7  and  C_11
REMARK    5  A    between atoms: C_8  and  C_13
REMARK    6  A    between atoms: C_11  and  C_17
REMARK    7  A    between atoms: C_13  and  C_21
REMARK    8  A    between atoms: C_23  and  C_24
REMARK                            x       y       z     vdW  Elec       q    Type
REMARK                         _______ _______ _______ _____ _____    ______ ____
ROOT
ATOM      4  N   UNL     1      -5.709   4.455  26.115  0.00  0.00    -0.316 NA
ATOM      7  C   UNL     1      -3.681   2.589  25.061  0.00  0.00    +0.004 C 
ATOM      8  C   UNL     1      -3.310   3.884  25.824  0.00  0.00    +0.012 C 
ATOM      9  C   UNL     1      -5.095   2.150  25.476  0.00  0.00    +0.019 C 
ATOM     10  C   UNL     1      -4.403   4.956  25.687  0.00  0.00    +0.085 C 
ATOM     12  C   UNL     1      -6.117   3.278  25.351  0.00  0.00    +0.081 C 
ATOM     31  H   UNL     1      -6.407   5.190  26.001  0.00  0.00    +0.122 HD
ENDROOT
BRANCH   7  11
ATOM     11  C   UNL     1      -3.573   2.712  23.536  0.00  0.00    +0.099 C 
BRANCH  11  17
ATOM      1  O   UNL     1      -2.643   1.360  21.759  0.00  0.00    -0.276 OA
ATOM      5  N   UNL     1      -3.319   0.339  23.734  0.00  0.00    -0.312 N 
ATOM     17  C   UNL     1      -3.120   1.421  22.889  0.00  0.00    +0.214 C 
ATOM     32  H   UNL     1      -3.635   0.506  24.682  0.00  0.00    +0.149 HD
BRANCH   5  14
ATOM     14  C   UNL     1      -2.977  -1.019  23.373  0.00  0.00    +0.073 C 
ATOM     15  C   UNL     1      -1.501  -1.312  23.662  0.00  0.00    +0.022 C 
ATOM     16  C   UNL     1      -3.892  -2.024  24.081  0.00  0.00    +0.022 C 
ATOM     18  C   UNL     1      -1.209  -1.420  25.159  0.00  0.00    +0.002 C 
ATOM     19  C   UNL     1      -3.595  -2.131  25.577  0.00  0.00    +0.002 C 
ATOM     20  C   UNL     1      -2.123  -2.434  25.839  0.00  0.00    +0.000 C 
ENDBRANCH   5  14
ENDBRANCH  11  17
ENDBRANCH   7  11
BRANCH   8  13
ATOM     13  C   UNL     1      -1.948   4.449  25.419  0.00  0.00    +0.064 C 
BRANCH  13  21
ATOM      2  O   UNL     1       0.476   1.789  25.525  0.00  0.00    -0.356 OA
ATOM      6  N   UNL     1      -0.345   2.731  26.134  0.00  0.00    -0.083 NA
ATOM     21  C   UNL     1      -0.965   3.352  25.128  0.00  0.00    +0.084 A 
ATOM     22  C   UNL     1      -0.581   2.850  23.873  0.00  0.00    +0.074 A 
ATOM     23  C   UNL     1       0.326   1.870  24.177  0.00  0.00    +0.175 A 
BRANCH  23  24
ATOM     24  C   UNL     1       1.126   0.939  23.372  0.00  0.00    +0.306 C 
BRANCH  24   3
ATOM      3  O   UNL     1       2.437   1.470  23.155  0.00  0.00    -0.484 OA
BRANCH   3  25
ATOM     25  C   UNL     1       3.481   0.612  23.351  0.00  0.00    +0.121 A 
ATOM     26  C   UNL     1       4.791   1.090  23.326  0.00  0.00    +0.045 A 
ATOM     27  C   UNL     1       3.237  -0.743  23.576  0.00  0.00    +0.045 A 
ATOM     28  C   UNL     1       5.858   0.213  23.526  0.00  0.00    +0.004 A 
ATOM     29  C   UNL     1       4.303  -1.620  23.776  0.00  0.00    +0.004 A 
ATOM     30  C   UNL     1       5.613  -1.142  23.751  0.00  0.00    +0.000 A 
ENDBRANCH   3  25
ENDBRANCH  24   3
ENDBRANCH  23  24
ENDBRANCH  13  21
ENDBRANCH   8  13
TORSDOF 8
ENDMDL
MODEL 4
REMARK VINA RESULT:      -1.4      1.391      4.375
REMARK  Name = 26743157
REMARK  8 active torsions:
REMARK  status: ('A' for Active; 'I' for Inactive)
REMARK    1  A    between atoms: O_3  and  C_24
REMARK    2  A    between atoms: O_3  and  C_25
REMARK    3  A    between atoms: N_5  and  C_14
REMARK    4  A    between atoms: C_7  and  C_11
REMARK    5  A    between atoms: C_8  and  C_13
REMARK    6  A    between atoms: C_11  and  C_17
REMARK    7  A    between atoms: C_13  and  C_21
REMARK    8  A    between atoms: C_23  and  C_24
REMARK                            x       y       z     vdW  Elec       q    Type
REMARK                         _______ _______ _______ _____ _____    ______ ____
ROOT
ATOM      4  N   UNL     1      -2.330   5.628  24.253  0.00  0.00    -0.316 NA
ATOM      7  C   UNL     1      -4.088   3.562  25.414  0.00  0.00    +0.004 C 
ATOM      8  C   UNL     1      -2.597   3.708  25.805  0.00  0.00    +0.012 C 
ATOM      9  C   UNL     1      -4.605   4.915  24.896  0.00  0.00    +0.019 C 
ATOM     10  C   UNL     1      -1.773   4.342  24.672  0.00  0.00    +0.085 C 
ATOM     12  C   UNL     1      -3.714   5.500  23.802  0.00  0.00    +0.081 C 
ATOM     31  H   UNL     1      -1.763   6.012  23.497  0.00  0.00    +0.122 HD
ENDROOT
BRANCH   7  11
ATOM     11  C   UNL     1      -4.359   2.448  24.396  0.00  0.00    +0.099 C 
BRANCH  11  17
ATOM      1  O   UNL     1      -5.697   1.037  25.836  0.00  0.00    -0.276 OA
ATOM      5  N   UNL     1      -3.899   0.116  24.687  0.00  0.00    -0.312 N 
ATOM     17  C   UNL     1      -4.749   1.146  25.063  0.00  0.00    +0.214 C 
ATOM     32  H   UNL     1      -3.201   0.288  23.972  0.00  0.00    +0.149 HD
BRANCH   5  14
ATOM     14  C   UNL     1      -4.036  -1.239  25.173  0.00  0.00    +0.073 C 
ATOM     15  C   UNL     1      -3.658  -2.255  24.090  0.00  0.00    +0.022 C 
ATOM     16  C   UNL     1      -3.212  -1.453  26.448  0.00  0.00    +0.022 C 
ATOM     18  C   UNL     1      -2.154  -2.288  23.820  0.00  0.00    +0.002 C 
ATOM     19  C   UNL     1      -1.709  -1.488  26.173  0.00  0.00    +0.002 C 
ATOM     20  C   UNL     1      -1.356  -2.513  25.100  0.00  0.00    +0.000 C 
ENDBRANCH   5  14
ENDBRANCH  11  17
ENDBRANCH   7  11
BRANCH   8  13
ATOM     13  C   UNL     1      -1.965   2.392  26.258  0.00  0.00    +0.064 C 
BRANCH  13  21
ATOM      2  O   UNL     1       1.112   1.785  24.490  0.00  0.00    -0.356 OA
ATOM      6  N   UNL     1       0.378   2.362  25.519  0.00  0.00    -0.083 NA
ATOM     21  C   UNL     1      -0.878   1.955  25.318  0.00  0.00    +0.084 A 
ATOM     22  C   UNL     1      -0.997   1.126  24.189  0.00  0.00    +0.074 A 
ATOM     23  C   UNL     1       0.282   1.050  23.704  0.00  0.00    +0.175 A 
BRANCH  23  24
ATOM     24  C   UNL     1       0.897   0.366  22.561  0.00  0.00    +0.306 C 
BRANCH  24   3
ATOM      3  O   UNL     1       1.696  -0.732  23.011  0.00  0.00    -0.484 OA
BRANCH   3  25
ATOM     25  C   UNL     1       3.026  -0.481  23.197  0.00  0.00    +0.121 A 
ATOM     26  C   UNL     1       3.830  -1.421  23.840  0.00  0.00    +0.045 A 
ATOM     27  C   UNL     1       3.579   0.717  22.744  0.00  0.00    +0.045 A 
ATOM     28  C   UNL     1       5.188  -1.165  24.030  0.00  0.00    +0.004 A 
ATOM     29  C   UNL     1       4.936   0.974  22.934  0.00  0.00    +0.004 A 
ATOM     30  C   UNL     1       5.741   0.034  23.577  0.00  0.00    +0.000 A 
ENDBRANCH   3  25
ENDBRANCH  24   3
ENDBRANCH  23  24
ENDBRANCH  13  21
ENDBRANCH   8  13
TORSDOF 8
ENDMDL
MODEL 5
REMARK VINA RESULT:      -1.1      1.744      6.946
REMARK  Name = 26743157
REMARK  8 active torsions:
REMARK  status: ('A' for Active; 'I' for Inactive)
REMARK    1  A    between atoms: O_3  and  C_24
REMARK    2  A    between atoms: O_3  and  C_25
REMARK    3  A    between atoms: N_5  and  C_14
REMARK    4  A    between atoms: C_7  and  C_11
REMARK    5  A    between atoms: C_8  and  C_13
REMARK    6  A    between atoms: C_11  and  C_17
REMARK    7  A    between atoms: C_13  and  C_21
REMARK    8  A    between atoms: C_23  and  C_24
REMARK                            x       y       z     vdW  Elec       q    Type
REMARK                         _______ _______ _______ _____ _____    ______ ____
ROOT
ATOM      4  N   UNL     1      -3.248  -1.337  25.526  0.00  0.00    -0.316 NA
ATOM      7  C   UNL     1      -0.423  -1.036  24.730  0.00  0.00    +0.004 C 
ATOM      8  C   UNL     1      -0.958  -0.574  26.107  0.00  0.00    +0.012 C 
ATOM      9  C   UNL     1      -1.339  -2.143  24.182  0.00  0.00    +0.019 C 
ATOM     10  C   UNL     1      -2.454  -0.224  26.046  0.00  0.00    +0.085 C 
ATOM     12  C   UNL     1      -2.812  -1.738  24.190  0.00  0.00    +0.081 C 
ATOM     31  H   UNL     1      -4.230  -1.065  25.492  0.00  0.00    +0.122 HD
ENDROOT
BRANCH   7  11
ATOM     11  C   UNL     1      -0.265   0.098  23.710  0.00  0.00    +0.099 C 
BRANCH  11  17
ATOM      1  O   UNL     1       0.596  -0.753  21.615  0.00  0.00    -0.276 OA
ATOM      5  N   UNL     1       2.053   0.240  23.129  0.00  0.00    -0.312 N 
ATOM     17  C   UNL     1       0.813  -0.196  22.688  0.00  0.00    +0.214 C 
ATOM     32  H   UNL     1       2.112   0.770  23.992  0.00  0.00    +0.149 HD
BRANCH   5  14
ATOM     14  C   UNL     1       3.265   0.087  22.355  0.00  0.00    +0.073 C 
ATOM     15  C   UNL     1       4.285   1.176  22.706  0.00  0.00    +0.022 C 
ATOM     16  C   UNL     1       3.862  -1.312  22.538  0.00  0.00    +0.022 C 
ATOM     18  C   UNL     1       4.902   0.975  24.090  0.00  0.00    +0.002 C 
ATOM     19  C   UNL     1       4.480  -1.509  23.922  0.00  0.00    +0.002 C 
ATOM     20  C   UNL     1       5.499  -0.420  24.244  0.00  0.00    +0.000 C 
ENDBRANCH   5  14
ENDBRANCH  11  17
ENDBRANCH   7  11
BRANCH   8  13
ATOM     13  C   UNL     1      -0.159   0.587  26.701  0.00  0.00    +0.064 C 
BRANCH  13  21
ATOM      2  O   UNL     1      -0.209   3.526  24.623  0.00  0.00    -0.356 OA
ATOM      6  N   UNL     1       0.363   2.337  25.058  0.00  0.00    -0.083 NA
ATOM     21  C   UNL     1      -0.466   1.878  26.000  0.00  0.00    +0.084 A 
ATOM     22  C   UNL     1      -1.568   2.727  26.200  0.00  0.00    +0.074 A 
ATOM     23  C   UNL     1      -1.360   3.748  25.311  0.00  0.00    +0.175 A 
BRANCH  23  24
ATOM     24  C   UNL     1      -2.099   4.970  24.975  0.00  0.00    +0.306 C 
BRANCH  24   3
ATOM      3  O   UNL     1      -3.186   4.666  24.095  0.00  0.00    -0.484 OA
BRANCH   3  25
ATOM     25  C   UNL     1      -4.031   3.670  24.492  0.00  0.00    +0.121 A 
ATOM     26  C   UNL     1      -4.909   3.881  25.555  0.00  0.00    +0.045 A 
ATOM     27  C   UNL     1      -4.016   2.440  23.835  0.00  0.00    +0.045 A 
ATOM     28  C   UNL     1      -5.771   2.863  25.961  0.00  0.00    +0.004 A 
ATOM     29  C   UNL     1      -4.878   1.421  24.241  0.00  0.00    +0.004 A 
ATOM     30  C   UNL     1      -5.756   1.633  25.304  0.00  0.00    +0.000 A 
ENDBRANCH   3  25
ENDBRANCH  24   3
ENDBRANCH  23  24
ENDBRANCH  13  21
ENDBRANCH   8  13
TORSDOF 8
ENDMDL
MODEL 6
REMARK VINA RESULT:       0.1      1.800      4.454
REMARK  Name = 26743157
REMARK  8 active torsions:
REMARK  status: ('A' for Active; 'I' for Inactive)
REMARK    1  A    between atoms: O_3  and  C_24
REMARK    2  A    between atoms: O_3  and  C_25
REMARK    3  A    between atoms: N_5  and  C_14
REMARK    4  A    between atoms: C_7  and  C_11
REMARK    5  A    between atoms: C_8  and  C_13
REMARK    6  A    between atoms: C_11  and  C_17
REMARK    7  A    between atoms: C_13  and  C_21
REMARK    8  A    between atoms: C_23  and  C_24
REMARK                            x       y       z     vdW  Elec       q    Type
REMARK                         _______ _______ _______ _____ _____    ______ ____
ROOT
ATOM      4  N   UNL     1      -6.425   3.926  26.050  0.00  0.00    -0.316 NA
ATOM      7  C   UNL     1      -4.470   1.866  25.252  0.00  0.00    +0.004 C 
ATOM      8  C   UNL     1      -4.371   3.339  24.785  0.00  0.00    +0.012 C 
ATOM      9  C   UNL     1      -5.264   1.809  26.568  0.00  0.00    +0.019 C 
ATOM     10  C   UNL     1      -5.750   4.018  24.755  0.00  0.00    +0.085 C 
ATOM     12  C   UNL     1      -6.603   2.539  26.473  0.00  0.00    +0.081 C 
ATOM     31  H   UNL     1      -7.337   4.379  25.988  0.00  0.00    +0.122 HD
ENDROOT
BRANCH   7  11
ATOM     11  C   UNL     1      -5.075   0.920  24.207  0.00  0.00    +0.099 C 
BRANCH  11  17
ATOM      1  O   UNL     1      -4.830  -1.399  23.563  0.00  0.00    -0.276 OA
ATOM      5  N   UNL     1      -3.753  -0.625  25.471  0.00  0.00    -0.312 N 
ATOM     17  C   UNL     1      -4.558  -0.496  24.349  0.00  0.00    +0.214 C 
ATOM     32  H   UNL     1      -3.516   0.202  26.006  0.00  0.00    +0.149 HD
BRANCH   5  14
ATOM     14  C   UNL     1      -3.124  -1.871  25.853  0.00  0.00    +0.073 C 
ATOM     15  C   UNL     1      -2.596  -2.621  24.625  0.00  0.00    +0.022 C 
ATOM     16  C   UNL     1      -2.013  -1.634  26.880  0.00  0.00    +0.022 C 
ATOM     18  C   UNL     1      -1.364  -1.950  24.016  0.00  0.00    +0.002 C 
ATOM     19  C   UNL     1      -0.782  -0.966  26.267  0.00  0.00    +0.002 C 
ATOM     20  C   UNL     1      -0.268  -1.736  25.055  0.00  0.00    +0.000 C 
ENDBRANCH   5  14
ENDBRANCH  11  17
ENDBRANCH   7  11
BRANCH   8  13
ATOM     13  C   UNL     1      -3.666   3.494  23.437  0.00  0.00    +0.064 C 
BRANCH  13  21
ATOM      2  O   UNL     1      -1.008   1.172  22.725  0.00  0.00    -0.356 OA
ATOM      6  N   UNL     1      -2.279   1.691  22.508  0.00  0.00    -0.083 NA
ATOM     21  C   UNL     1      -2.399   2.690  23.387  0.00  0.00    +0.084 A 
ATOM     22  C   UNL     1      -1.247   2.847  24.177  0.00  0.00    +0.074 A 
ATOM     23  C   UNL     1      -0.403   1.870  23.722  0.00  0.00    +0.175 A 
BRANCH  23  24
ATOM     24  C   UNL     1       0.957   1.451  24.083  0.00  0.00    +0.306 C 
BRANCH  24   3
ATOM      3  O   UNL     1       1.468   0.533  23.111  0.00  0.00    -0.484 OA
BRANCH   3  25
ATOM     25  C   UNL     1       2.775   0.163  23.253  0.00  0.00    +0.121 A 
ATOM     26  C   UNL     1       3.792   1.076  22.977  0.00  0.00    +0.045 A 
ATOM     27  C   UNL     1       3.092  -1.128  23.673  0.00  0.00    +0.045 A 
ATOM     28  C   UNL     1       5.127   0.698  23.122  0.00  0.00    +0.004 A 
ATOM     29  C   UNL     1       4.427  -1.507  23.818  0.00  0.00    +0.004 A 
ATOM     30  C   UNL     1       5.444  -0.594  23.542  0.00  0.00    +0.000 A 
ENDBRANCH   3  25
ENDBRANCH  24   3
ENDBRANCH  23  24
ENDBRANCH  13  21
ENDBRANCH   8  13
TORSDOF 8
ENDMDL
MODEL 7
REMARK VINA RESULT:       0.3      1.975      7.424
REMARK  Name = 26743157
REMARK  8 active torsions:
REMARK  status: ('A' for Active; 'I' for Inactive)
REMARK    1  A    between atoms: O_3  and  C_24
REMARK    2  A    between atoms: O_3  and  C_25
REMARK    3  A    between atoms: N_5  and  C_14
REMARK    4  A    between atoms: C_7  and  C_11
REMARK    5  A    between atoms: C_8  and  C_13
REMARK    6  A    between atoms: C_11  and  C_17
REMARK    7  A    between atoms: C_13  and  C_21
REMARK    8  A    between atoms: C_23  and  C_24
REMARK                            x       y       z     vdW  Elec       q    Type
REMARK                         _______ _______ _______ _____ _____    ______ ____
ROOT
ATOM      4  N   UNL     1      -1.546   4.470  26.129  0.00  0.00    -0.316 NA
ATOM      7  C   UNL     1      -0.605   2.302  24.362  0.00  0.00    +0.004 C 
ATOM      8  C   UNL     1      -1.156   2.042  25.785  0.00  0.00    +0.012 C 
ATOM      9  C   UNL     1      -1.181   3.628  23.836  0.00  0.00    +0.019 C 
ATOM     10  C   UNL     1      -0.957   3.260  26.702  0.00  0.00    +0.085 C 
ATOM     12  C   UNL     1      -0.981   4.781  24.818  0.00  0.00    +0.081 C 
ATOM     31  H   UNL     1      -1.387   5.256  26.759  0.00  0.00    +0.122 HD
ENDROOT
BRANCH   7  11
ATOM     11  C   UNL     1       0.927   2.300  24.277  0.00  0.00    +0.099 C 
BRANCH  11  17
ATOM      1  O   UNL     1       0.730   0.367  22.835  0.00  0.00    -0.276 OA
ATOM      5  N   UNL     1       2.822   1.312  23.197  0.00  0.00    -0.312 N 
ATOM     17  C   UNL     1       1.447   1.215  23.358  0.00  0.00    +0.214 C 
ATOM     32  H   UNL     1       3.311   2.104  23.599  0.00  0.00    +0.149 HD
BRANCH   5  14
ATOM     14  C   UNL     1       3.586   0.403  22.372  0.00  0.00    +0.073 C 
ATOM     15  C   UNL     1       5.089   0.676  22.496  0.00  0.00    +0.022 C 
ATOM     16  C   UNL     1       3.257  -1.055  22.709  0.00  0.00    +0.022 C 
ATOM     18  C   UNL     1       5.651   0.243  23.851  0.00  0.00    +0.002 C 
ATOM     19  C   UNL     1       3.822  -1.485  24.062  0.00  0.00    +0.002 C 
ATOM     20  C   UNL     1       5.320  -1.214  24.158  0.00  0.00    +0.000 C 
ENDBRANCH   5  14
ENDBRANCH  11  17
ENDBRANCH   7  11
BRANCH   8  13
ATOM     13  C   UNL     1      -0.576   0.783  26.431  0.00  0.00    +0.064 C 
BRANCH  13  21
ATOM      2  O   UNL     1      -1.206  -2.410  24.892  0.00  0.00    -0.356 OA
ATOM      6  N   UNL     1      -0.354  -1.423  25.372  0.00  0.00    -0.083 NA
ATOM     21  C   UNL     1      -1.161  -0.461  25.827  0.00  0.00    +0.084 A 
ATOM     22  C   UNL     1      -2.520  -0.781  25.662  0.00  0.00    +0.074 A 
ATOM     23  C   UNL     1      -2.494  -2.016  25.070  0.00  0.00    +0.175 A 
BRANCH  23  24
ATOM     24  C   UNL     1      -3.533  -2.947  24.615  0.00  0.00    +0.306 C 
BRANCH  24   3
ATOM      3  O   UNL     1      -4.536  -2.248  23.872  0.00  0.00    -0.484 OA
BRANCH   3  25
ATOM     25  C   UNL     1      -4.479  -0.883  23.908  0.00  0.00    +0.121 A 
ATOM     26  C   UNL     1      -5.289  -0.174  24.794  0.00  0.00    +0.045 A 
ATOM     27  C   UNL     1      -3.610  -0.200  23.058  0.00  0.00    +0.045 A 
ATOM     28  C   UNL     1      -5.230   1.220  24.831  0.00  0.00    +0.004 A 
ATOM     29  C   UNL     1      -3.551   1.193  23.093  0.00  0.00    +0.004 A 
ATOM     30  C   UNL     1      -4.361   1.903  23.980  0.00  0.00    +0.000 A 
ENDBRANCH   3  25
ENDBRANCH  24   3
ENDBRANCH  23  24
ENDBRANCH  13  21
ENDBRANCH   8  13
TORSDOF 8
ENDMDL
MODEL 8
REMARK VINA RESULT:       0.4      1.801      6.587
REMARK  Name = 26743157
REMARK  8 active torsions:
REMARK  status: ('A' for Active; 'I' for Inactive)
REMARK    1  A    between atoms: O_3  and  C_24
REMARK    2  A    between atoms: O_3  and  C_25
REMARK    3  A    between atoms: N_5  and  C_14
REMARK    4  A    between atoms: C_7  and  C_11
REMARK    5  A    between atoms: C_8  and  C_13
REMARK    6  A    between atoms: C_11  and  C_17
REMARK    7  A    between atoms: C_13  and  C_21
REMARK    8  A    between atoms: C_23  and  C_24
REMARK                            x       y       z     vdW  Elec       q    Type
REMARK                         _______ _______ _______ _____ _____    ______ ____
ROOT
ATOM      4  N   UNL     1      -1.147  -3.081  24.847  0.00  0.00    -0.316 NA
ATOM      7  C   UNL     1      -1.456  -0.167  25.198  0.00  0.00    +0.004 C 
ATOM      8  C   UNL     1      -2.581  -1.065  24.629  0.00  0.00    +0.012 C 
ATOM      9  C   UNL     1      -0.519  -1.026  26.064  0.00  0.00    +0.019 C 
ATOM     10  C   UNL     1      -2.015  -2.321  23.946  0.00  0.00    +0.085 C 
ATOM     12  C   UNL     1      -0.029  -2.275  25.333  0.00  0.00    +0.081 C 
ATOM     31  H   UNL     1      -0.785  -3.899  24.357  0.00  0.00    +0.122 HD
ENDROOT
BRANCH   7  11
ATOM     11  C   UNL     1      -0.665   0.594  24.126  0.00  0.00    +0.099 C 
BRANCH  11  17
ATOM      1  O   UNL     1      -0.245  -1.288  22.665  0.00  0.00    -0.276 OA
ATOM      5  N   UNL     1       1.528   0.061  23.327  0.00  0.00    -0.312 N 
ATOM     17  C   UNL     1       0.197  -0.326  23.289  0.00  0.00    +0.214 C 
ATOM     32  H   UNL     1       1.778   0.923  23.798  0.00  0.00    +0.149 HD
BRANCH   5  14
ATOM     14  C   UNL     1       2.576  -0.640  22.618  0.00  0.00    +0.073 C 
ATOM     15  C   UNL     1       3.327   0.302  21.671  0.00  0.00    +0.022 C 
ATOM     16  C   UNL     1       3.536  -1.329  23.594  0.00  0.00    +0.022 C 
ATOM     18  C   UNL     1       4.218   1.294  22.420  0.00  0.00    +0.002 C 
ATOM     19  C   UNL     1       4.426  -0.334  24.339  0.00  0.00    +0.002 C 
ATOM     20  C   UNL     1       5.171   0.585  23.376  0.00  0.00    +0.000 C 
ENDBRANCH   5  14
ENDBRANCH  11  17
ENDBRANCH   7  11
BRANCH   8  13
ATOM     13  C   UNL     1      -3.523  -0.319  23.684  0.00  0.00    +0.064 C 
BRANCH  13  21
ATOM      2  O   UNL     1      -5.450   1.920  25.742  0.00  0.00    -0.356 OA
ATOM      6  N   UNL     1      -5.065   0.649  25.334  0.00  0.00    -0.083 NA
ATOM     21  C   UNL     1      -4.167   0.854  24.367  0.00  0.00    +0.084 A 
ATOM     22  C   UNL     1      -3.947   2.220  24.123  0.00  0.00    +0.074 A 
ATOM     23  C   UNL     1      -4.777   2.848  25.012  0.00  0.00    +0.175 A 
BRANCH  23  24
ATOM     24  C   UNL     1      -5.066   4.255  25.315  0.00  0.00    +0.306 C 
BRANCH  24   3
ATOM      3  O   UNL     1      -4.077   4.784  26.204  0.00  0.00    -0.484 OA
BRANCH   3  25
ATOM     25  C   UNL     1      -2.776   4.495  25.908  0.00  0.00    +0.121 A 
ATOM     26  C   UNL     1      -2.063   5.308  25.026  0.00  0.00    +0.045 A 
ATOM     27  C   UNL     1      -2.159   3.387  26.488  0.00  0.00    +0.045 A 
ATOM     28  C   UNL     1      -0.734   5.012  24.724  0.00  0.00    +0.004 A 
ATOM     29  C   UNL     1      -0.829   3.091  26.186  0.00  0.00    +0.004 A 
ATOM     30  C   UNL     1      -0.117   3.904  25.304  0.00  0.00    +0.000 A 
ENDBRANCH   3  25
ENDBRANCH  24   3
ENDBRANCH  23  24
ENDBRANCH  13  21
ENDBRANCH   8  13
TORSDOF 8
ENDMDL
