MODEL 1
REMARK VINA RESULT:      -0.8      0.000      0.000
REMARK  Name = 45360868
REMARK  6 active torsions:
REMARK  status: ('A' for Active; 'I' for Inactive)
REMARK    1  A    between atoms: N_4  and  C_17
REMARK    2  A    between atoms: N_5  and  C_16
REMARK    3  A    between atoms: C_11  and  C_15
REMARK    4  A    between atoms: C_15  and  C_18
REMARK    5  A    between atoms: C_16  and  C_19
REMARK    6  A    between atoms: C_18  and  C_20
REMARK                            x       y       z     vdW  Elec       q    Type
REMARK                         _______ _______ _______ _____ _____    ______ ____
ROOT
ATOM      2  O   UNL     1      -0.512   2.028  23.595  0.00  0.00    -0.274 OA
ATOM      4  N   UNL     1      -3.028  -0.376  25.292  0.00  0.00    -0.296 NA
ATOM      5  N   UNL     1       0.329  -0.525  23.843  0.00  0.00    -0.286 NA
ATOM      6  N   UNL     1      -2.681   1.481  23.112  0.00  0.00    -0.312 N 
ATOM      8  C   UNL     1      -1.893  -1.076  24.649  0.00  0.00    +0.084 C 
ATOM      9  C   UNL     1      -1.100  -0.333  23.534  0.00  0.00    +0.161 C 
ATOM     10  C   UNL     1      -0.773  -1.478  25.626  0.00  0.00    +0.036 C 
ATOM     11  C   UNL     1      -4.156  -0.058  24.372  0.00  0.00    +0.074 C 
ATOM     12  C   UNL     1       0.424  -1.686  24.723  0.00  0.00    +0.087 C 
ATOM     13  C   UNL     1      -3.736   0.494  22.996  0.00  0.00    +0.123 C 
ATOM     14  C   UNL     1      -1.374   1.166  23.435  0.00  0.00    +0.232 C 
ATOM     17  C   UNL     1      -3.517  -1.133  26.456  0.00  0.00    +0.105 C 
ATOM     30  H   UNL     1      -2.910   2.457  22.954  0.00  0.00    +0.149 HD
ENDROOT
BRANCH  11  15
ATOM     15  C   UNL     1      -5.102   0.978  25.018  0.00  0.00    +0.029 C 
BRANCH  15  18
ATOM     18  C   UNL     1      -4.349   1.978  25.873  0.00  0.00    +0.097 C 
BRANCH  18  20
ATOM      3  O   UNL     1      -5.220   3.808  24.621  0.00  0.00    -0.276 OA
ATOM      7  N   UNL     1      -2.992   3.906  25.222  0.00  0.00    -0.301 N 
ATOM     20  C   UNL     1      -4.240   3.313  25.181  0.00  0.00    +0.216 C 
ATOM     21  C   UNL     1      -2.721   5.192  24.597  0.00  0.00    +0.108 C 
ATOM     22  C   UNL     1      -1.795   3.377  25.870  0.00  0.00    +0.108 C 
ATOM     23  C   UNL     1      -1.367   5.609  25.152  0.00  0.00    +0.020 C 
ATOM     24  C   UNL     1      -0.668   4.274  25.377  0.00  0.00    +0.020 C 
ENDBRANCH  18  20
ENDBRANCH  15  18
ENDBRANCH  11  15
BRANCH   5  16
ATOM     16  C   UNL     1       1.162  -0.668  22.656  0.00  0.00    +0.120 C 
BRANCH  16  19
ATOM      1 CL   UNL     1       5.938  -1.762  24.430  0.00  0.00    -0.084 Cl
ATOM     19  C   UNL     1       2.577  -0.219  22.907  0.00  0.00    -0.032 A 
ATOM     25  C   UNL     1       3.495  -1.096  23.485  0.00  0.00    +0.025 A 
ATOM     26  C   UNL     1       2.971   1.073  22.559  0.00  0.00    +0.005 A 
ATOM     27  C   UNL     1       4.807  -0.681  23.716  0.00  0.00    +0.041 A 
ATOM     28  C   UNL     1       4.283   1.488  22.790  0.00  0.00    +0.002 A 
ATOM     29  C   UNL     1       5.201   0.611  23.368  0.00  0.00    +0.020 A 
ENDBRANCH  16  19
ENDBRANCH   5  16
TORSDOF 5
ENDMDL
MODEL 2
REMARK VINA RESULT:      -0.6      2.485      6.833
REMARK  Name = 45360868
REMARK  6 active torsions:
REMARK  status: ('A' for Active; 'I' for Inactive)
REMARK    1  A    between atoms: N_4  and  C_17
REMARK    2  A    between atoms: N_5  and  C_16
REMARK    3  A    between atoms: C_11  and  C_15
REMARK    4  A    between atoms: C_15  and  C_18
REMARK    5  A    between atoms: C_16  and  C_19
REMARK    6  A    between atoms: C_18  and  C_20
REMARK                            x       y       z     vdW  Elec       q    Type
REMARK                         _______ _______ _______ _____ _____    ______ ____
ROOT
ATOM      2  O   UNL     1      -2.576   1.650  21.755  0.00  0.00    -0.274 OA
ATOM      4  N   UNL     1      -1.208  -1.025  24.197  0.00  0.00    -0.296 NA
ATOM      5  N   UNL     1      -4.230   0.998  23.787  0.00  0.00    -0.286 NA
ATOM      6  N   UNL     1      -0.665   1.547  23.009  0.00  0.00    -0.312 N 
ATOM      8  C   UNL     1      -2.424  -0.344  24.696  0.00  0.00    +0.084 C 
ATOM      9  C   UNL     1      -2.790   1.048  24.103  0.00  0.00    +0.161 C 
ATOM     10  C   UNL     1      -3.722  -1.141  24.471  0.00  0.00    +0.036 C 
ATOM     11  C   UNL     1       0.063  -0.305  24.484  0.00  0.00    +0.074 C 
ATOM     12  C   UNL     1      -4.804  -0.087  24.576  0.00  0.00    +0.087 C 
ATOM     13  C   UNL     1       0.015   1.218  24.246  0.00  0.00    +0.123 C 
ATOM     14  C   UNL     1      -2.031   1.430  22.836  0.00  0.00    +0.232 C 
ATOM     17  C   UNL     1      -1.138  -2.407  24.702  0.00  0.00    +0.105 C 
ATOM     30  H   UNL     1      -0.111   1.875  22.224  0.00  0.00    +0.149 HD
ENDROOT
BRANCH  11  15
ATOM     15  C   UNL     1       1.212  -0.873  23.623  0.00  0.00    +0.029 C 
BRANCH  15  18
ATOM     18  C   UNL     1       1.631   0.090  22.530  0.00  0.00    +0.097 C 
BRANCH  18  20
ATOM      3  O   UNL     1       3.007   2.022  22.749  0.00  0.00    -0.276 OA
ATOM      7  N   UNL     1       3.928  -0.004  23.367  0.00  0.00    -0.301 N 
ATOM     20  C   UNL     1       2.910   0.802  22.890  0.00  0.00    +0.216 C 
ATOM     21  C   UNL     1       5.227   0.529  23.751  0.00  0.00    +0.108 C 
ATOM     22  C   UNL     1       3.877  -1.451  23.561  0.00  0.00    +0.108 C 
ATOM     23  C   UNL     1       5.898  -0.610  24.504  0.00  0.00    +0.020 C 
ATOM     24  C   UNL     1       5.322  -1.848  23.829  0.00  0.00    +0.020 C 
ENDBRANCH  18  20
ENDBRANCH  15  18
ENDBRANCH  11  15
BRANCH   5  16
ATOM     16  C   UNL     1      -4.915   2.263  24.014  0.00  0.00    +0.120 C 
BRANCH  16  19
ATOM      1 CL   UNL     1      -0.795   5.371  24.738  0.00  0.00    -0.084 Cl
ATOM     19  C   UNL     1      -4.131   3.171  24.923  0.00  0.00    -0.032 A 
ATOM     25  C   UNL     1      -2.963   3.780  24.463  0.00  0.00    +0.025 A 
ATOM     26  C   UNL     1      -4.572   3.405  26.226  0.00  0.00    +0.005 A 
ATOM     27  C   UNL     1      -2.236   4.622  25.305  0.00  0.00    +0.041 A 
ATOM     28  C   UNL     1      -3.846   4.247  27.068  0.00  0.00    +0.002 A 
ATOM     29  C   UNL     1      -2.678   4.856  26.608  0.00  0.00    +0.020 A 
ENDBRANCH  16  19
ENDBRANCH   5  16
TORSDOF 5
ENDMDL
MODEL 3
REMARK VINA RESULT:       1.3     15.848     18.288
REMARK  Name = 45360868
REMARK  6 active torsions:
REMARK  status: ('A' for Active; 'I' for Inactive)
REMARK    1  A    between atoms: N_4  and  C_17
REMARK    2  A    between atoms: N_5  and  C_16
REMARK    3  A    between atoms: C_11  and  C_15
REMARK    4  A    between atoms: C_15  and  C_18
REMARK    5  A    between atoms: C_16  and  C_19
REMARK    6  A    between atoms: C_18  and  C_20
REMARK                            x       y       z     vdW  Elec       q    Type
REMARK                         _______ _______ _______ _____ _____    ______ ____
ROOT
ATOM      2  O   UNL     1      -6.727  -7.475  11.273  0.00  0.00    -0.274 OA
ATOM      4  N   UNL     1      -4.021 -10.230  11.554  0.00  0.00    -0.296 NA
ATOM      5  N   UNL     1      -6.546  -9.127   9.146  0.00  0.00    -0.286 NA
ATOM      6  N   UNL     1      -6.353  -9.110  12.831  0.00  0.00    -0.312 N 
ATOM      8  C   UNL     1      -4.954 -10.440  10.424  0.00  0.00    +0.084 C 
ATOM      9  C   UNL     1      -6.344  -9.741  10.471  0.00  0.00    +0.161 C 
ATOM     10  C   UNL     1      -4.404  -9.967   9.066  0.00  0.00    +0.036 C 
ATOM     11  C   UNL     1      -4.507 -10.760  12.859  0.00  0.00    +0.074 C 
ATOM     12  C   UNL     1      -5.648  -9.808   8.218  0.00  0.00    +0.087 C 
ATOM     13  C   UNL     1      -5.990 -10.473  13.166  0.00  0.00    +0.123 C 
ATOM     14  C   UNL     1      -6.485  -8.654  11.533  0.00  0.00    +0.232 C 
ATOM     17  C   UNL     1      -2.691 -10.779  11.244  0.00  0.00    +0.105 C 
ATOM     30  H   UNL     1      -6.514  -8.451  13.586  0.00  0.00    +0.149 HD
ENDROOT
BRANCH  11  15
ATOM     15  C   UNL     1      -3.672 -10.180  14.021  0.00  0.00    +0.029 C 
BRANCH  15  18
ATOM     18  C   UNL     1      -2.250 -10.706  14.016  0.00  0.00    +0.097 C 
BRANCH  18  20
ATOM      3  O   UNL     1      -1.048  -9.337  15.550  0.00  0.00    -0.276 OA
ATOM      7  N   UNL     1      -0.657  -8.993  13.299  0.00  0.00    -0.301 N 
ATOM     20  C   UNL     1      -1.265  -9.621  14.370  0.00  0.00    +0.216 C 
ATOM     21  C   UNL     1       0.312  -7.921  13.474  0.00  0.00    +0.108 C 
ATOM     22  C   UNL     1      -0.866  -9.284  11.884  0.00  0.00    +0.108 C 
ATOM     23  C   UNL     1       0.951  -7.759  12.103  0.00  0.00    +0.020 C 
ATOM     24  C   UNL     1      -0.179  -8.137  11.155  0.00  0.00    +0.020 C 
ENDBRANCH  18  20
ENDBRANCH  15  18
ENDBRANCH  11  15
BRANCH   5  16
ATOM     16  C   UNL     1      -7.931  -9.166   8.696  0.00  0.00    +0.120 C 
BRANCH  16  19
ATOM      1 CL   UNL     1      -7.209  -4.006   8.648  0.00  0.00    -0.084 Cl
ATOM     19  C   UNL     1      -8.513  -7.786   8.550  0.00  0.00    -0.032 A 
ATOM     25  C   UNL     1      -7.688  -6.666   8.654  0.00  0.00    +0.025 A 
ATOM     26  C   UNL     1      -9.878  -7.626   8.310  0.00  0.00    +0.005 A 
ATOM     27  C   UNL     1      -8.226  -5.386   8.518  0.00  0.00    +0.041 A 
ATOM     28  C   UNL     1     -10.417  -6.347   8.174  0.00  0.00    +0.002 A 
ATOM     29  C   UNL     1      -9.591  -5.226   8.277  0.00  0.00    +0.020 A 
ENDBRANCH  16  19
ENDBRANCH   5  16
TORSDOF 5
ENDMDL
MODEL 4
REMARK VINA RESULT:       1.6      0.825      1.238
REMARK  Name = 45360868
REMARK  6 active torsions:
REMARK  status: ('A' for Active; 'I' for Inactive)
REMARK    1  A    between atoms: N_4  and  C_17
REMARK    2  A    between atoms: N_5  and  C_16
REMARK    3  A    between atoms: C_11  and  C_15
REMARK    4  A    between atoms: C_15  and  C_18
REMARK    5  A    between atoms: C_16  and  C_19
REMARK    6  A    between atoms: C_18  and  C_20
REMARK                            x       y       z     vdW  Elec       q    Type
REMARK                         _______ _______ _______ _____ _____    ______ ____
ROOT
ATOM      2  O   UNL     1      -0.461   2.240  23.678  0.00  0.00    -0.274 OA
ATOM      4  N   UNL     1      -2.904  -0.421  25.073  0.00  0.00    -0.296 NA
ATOM      5  N   UNL     1       0.540  -0.262  23.844  0.00  0.00    -0.286 NA
ATOM      6  N   UNL     1      -2.552   1.578  23.023  0.00  0.00    -0.312 N 
ATOM      8  C   UNL     1      -1.685  -1.005  24.470  0.00  0.00    +0.084 C 
ATOM      9  C   UNL     1      -0.877  -0.147  23.452  0.00  0.00    +0.161 C 
ATOM     10  C   UNL     1      -0.602  -1.387  25.496  0.00  0.00    +0.036 C 
ATOM     11  C   UNL     1      -3.992  -0.126  24.099  0.00  0.00    +0.074 C 
ATOM     12  C   UNL     1       0.661  -1.462  24.665  0.00  0.00    +0.087 C 
ATOM     13  C   UNL     1      -3.526   0.532  22.785  0.00  0.00    +0.123 C 
ATOM     14  C   UNL     1      -1.250   1.333  23.415  0.00  0.00    +0.232 C 
ATOM     17  C   UNL     1      -3.410  -1.274  26.160  0.00  0.00    +0.105 C 
ATOM     30  H   UNL     1      -2.839   2.544  22.902  0.00  0.00    +0.149 HD
ENDROOT
BRANCH  11  15
ATOM     15  C   UNL     1      -5.047   0.805  24.735  0.00  0.00    +0.029 C 
BRANCH  15  18
ATOM     18  C   UNL     1      -4.427   1.775  25.721  0.00  0.00    +0.097 C 
BRANCH  18  20
ATOM      3  O   UNL     1      -5.469   3.666  24.716  0.00  0.00    -0.276 OA
ATOM      7  N   UNL     1      -3.228   3.854  25.247  0.00  0.00    -0.301 N 
ATOM     20  C   UNL     1      -4.435   3.182  25.182  0.00  0.00    +0.216 C 
ATOM     21  C   UNL     1      -3.070   5.217  24.762  0.00  0.00    +0.108 C 
ATOM     22  C   UNL     1      -1.973   3.342  25.789  0.00  0.00    +0.108 C 
ATOM     23  C   UNL     1      -1.725   5.664  25.314  0.00  0.00    +0.020 C 
ATOM     24  C   UNL     1      -0.930   4.365  25.361  0.00  0.00    +0.020 C 
ENDBRANCH  18  20
ENDBRANCH  15  18
ENDBRANCH  11  15
BRANCH   5  16
ATOM     16  C   UNL     1       1.453  -0.279  22.710  0.00  0.00    +0.120 C 
BRANCH  16  19
ATOM      1 CL   UNL     1       6.091   1.882  23.698  0.00  0.00    -0.084 Cl
ATOM     19  C   UNL     1       2.885  -0.445  23.144  0.00  0.00    -0.032 A 
ATOM     25  C   UNL     1       3.727   0.666  23.212  0.00  0.00    +0.025 A 
ATOM     26  C   UNL     1       3.370  -1.709  23.481  0.00  0.00    +0.005 A 
ATOM     27  C   UNL     1       5.053   0.513  23.616  0.00  0.00    +0.041 A 
ATOM     28  C   UNL     1       4.696  -1.862  23.886  0.00  0.00    +0.002 A 
ATOM     29  C   UNL     1       5.538  -0.751  23.953  0.00  0.00    +0.020 A 
ENDBRANCH  16  19
ENDBRANCH   5  16
TORSDOF 5
ENDMDL
