MODEL 1
REMARK VINA RESULT:       7.7      0.000      0.000
REMARK  Name = 11879852
REMARK  8 active torsions:
REMARK  status: ('A' for Active; 'I' for Inactive)
REMARK    1  A    between atoms: S_1  and  N_11
REMARK    2  A    between atoms: S_1  and  C_29
REMARK    3  A    between atoms: O_6  and  C_33
REMARK    4  A    between atoms: O_8  and  C_36
REMARK    5  A    between atoms: O_8  and  C_37
REMARK    6  A    between atoms: N_11  and  C_22
REMARK    7  A    between atoms: C_21  and  C_24
REMARK    8  A    between atoms: C_27  and  C_33
REMARK                            x       y       z     vdW  Elec       q    Type
REMARK                         _______ _______ _______ _____ _____    ______ ____
ROOT
ATOM      2  O   UNL     1      -0.051   2.829  25.887  0.00  0.00    -0.266 OA
ATOM      3  O   UNL     1      -4.390   0.273  27.108  0.00  0.00    -0.270 OA
ATOM      9  N   UNL     1      -4.886   1.697  25.318  0.00  0.00    -0.297 N 
ATOM     10  N   UNL     1      -2.057   2.982  24.684  0.00  0.00    -0.310 N 
ATOM     12  C   UNL     1      -4.174   4.061  25.633  0.00  0.00    +0.027 C 
ATOM     13  C   UNL     1      -4.207   3.083  23.374  0.00  0.00    +0.054 C 
ATOM     14  C   UNL     1      -4.512   4.349  24.174  0.00  0.00    +0.018 C 
ATOM     15  C   UNL     1      -5.019   2.887  26.159  0.00  0.00    +0.113 C 
ATOM     16  C   UNL     1      -2.670   3.787  25.748  0.00  0.00    +0.130 C 
ATOM     17  C   UNL     1      -5.093   1.927  23.880  0.00  0.00    +0.117 C 
ATOM     18  C   UNL     1      -2.745   2.698  23.496  0.00  0.00    +0.027 A 
ATOM     19  C   UNL     1      -2.128   2.058  22.486  0.00  0.00    +0.024 A 
ATOM     20  C   UNL     1      -0.713   2.596  24.875  0.00  0.00    +0.274 A 
ATOM     21  C   UNL     1      -4.564   0.472  25.907  0.00  0.00    +0.247 C 
ATOM     22  C   UNL     1      -0.095   1.871  23.736  0.00  0.00    +0.112 A 
ATOM     23  C   UNL     1      -0.761   1.628  22.607  0.00  0.00    +0.031 A 
ENDROOT
BRANCH  21  24
ATOM     24  C   UNL     1      -4.394  -0.689  25.027  0.00  0.00    +0.038 A 
ATOM     25  C   UNL     1      -3.157  -1.325  24.950  0.00  0.00    +0.028 A 
ATOM     26  C   UNL     1      -5.469  -1.150  24.271  0.00  0.00    +0.013 A 
ATOM     27  C   UNL     1      -2.995  -2.429  24.113  0.00  0.00    +0.060 A 
ATOM     28  C   UNL     1      -5.308  -2.253  23.434  0.00  0.00    +0.002 A 
ATOM     30  C   UNL     1      -4.071  -2.893  23.355  0.00  0.00    +0.015 A 
BRANCH  27  33
ATOM      7  O   UNL     1      -1.335  -3.822  23.101  0.00  0.00    -0.245 OA
ATOM     33  C   UNL     1      -1.707  -3.097  24.030  0.00  0.00    +0.337 C 
BRANCH  33   6
ATOM      6  O   UNL     1      -0.918  -2.841  25.109  0.00  0.00    -0.477 OA
ATOM     39  H   UNL     1      -0.189  -2.222  24.890  0.00  0.00    +0.295 HD
ENDBRANCH  33   6
ENDBRANCH  27  33
ENDBRANCH  21  24
BRANCH  22  11
ATOM     11  N   UNL     1       1.235   1.425  23.819  0.00  0.00    -0.211 N 
ATOM     38  H   UNL     1       1.919   2.159  23.588  0.00  0.00    +0.174 HD
BRANCH  11   1
ATOM      1  S   UNL     1       1.581  -0.094  23.155  0.00  0.00    +0.073 S 
ATOM      4  O   UNL     1       1.003  -1.134  23.986  0.00  0.00    -0.150 OA
ATOM      5  O   UNL     1       1.326  -0.073  21.728  0.00  0.00    -0.150 OA
BRANCH   1  29
ATOM     29  C   UNL     1       3.335  -0.157  23.377  0.00  0.00    +0.109 A 
ATOM     31  C   UNL     1       4.091   0.970  23.103  0.00  0.00    +0.032 A 
ATOM     32  C   UNL     1       3.918  -1.331  23.818  0.00  0.00    +0.032 A 
ATOM     34  C   UNL     1       5.474   0.921  23.277  0.00  0.00    +0.047 A 
ATOM     35  C   UNL     1       5.301  -1.381  23.994  0.00  0.00    +0.047 A 
ATOM     36  C   UNL     1       6.079  -0.255  23.723  0.00  0.00    +0.120 A 
BRANCH  36   8
ATOM      8  O   UNL     1       7.428  -0.303  23.893  0.00  0.00    -0.495 OA
ATOM     37  C   UNL     1       8.218  -0.605  22.743  0.00  0.00    +0.277 C 
ENDBRANCH  36   8
ENDBRANCH   1  29
ENDBRANCH  11   1
ENDBRANCH  22  11
TORSDOF 7
ENDMDL
MODEL 2
REMARK VINA RESULT:       8.6      2.595      5.498
REMARK  Name = 11879852
REMARK  8 active torsions:
REMARK  status: ('A' for Active; 'I' for Inactive)
REMARK    1  A    between atoms: S_1  and  N_11
REMARK    2  A    between atoms: S_1  and  C_29
REMARK    3  A    between atoms: O_6  and  C_33
REMARK    4  A    between atoms: O_8  and  C_36
REMARK    5  A    between atoms: O_8  and  C_37
REMARK    6  A    between atoms: N_11  and  C_22
REMARK    7  A    between atoms: C_21  and  C_24
REMARK    8  A    between atoms: C_27  and  C_33
REMARK                            x       y       z     vdW  Elec       q    Type
REMARK                         _______ _______ _______ _____ _____    ______ ____
ROOT
ATOM      2  O   UNL     1      -3.829   0.740  22.125  0.00  0.00    -0.266 OA
ATOM      3  O   UNL     1       0.019   3.608  24.080  0.00  0.00    -0.270 OA
ATOM      9  N   UNL     1      -1.957   4.238  25.164  0.00  0.00    -0.297 N 
ATOM     10  N   UNL     1      -4.073   2.235  23.913  0.00  0.00    -0.310 N 
ATOM     12  C   UNL     1      -3.858   4.772  23.650  0.00  0.00    +0.027 C 
ATOM     13  C   UNL     1      -4.297   3.805  25.871  0.00  0.00    +0.054 C 
ATOM     14  C   UNL     1      -4.790   4.834  24.855  0.00  0.00    +0.018 C 
ATOM     15  C   UNL     1      -2.414   5.095  24.071  0.00  0.00    +0.113 C 
ATOM     16  C   UNL     1      -3.976   3.386  23.006  0.00  0.00    +0.130 C 
ATOM     17  C   UNL     1      -2.866   4.167  26.319  0.00  0.00    +0.117 C 
ATOM     18  C   UNL     1      -4.310   2.407  25.284  0.00  0.00    +0.027 A 
ATOM     19  C   UNL     1      -4.512   1.341  26.081  0.00  0.00    +0.024 A 
ATOM     20  C   UNL     1      -4.018   0.955  23.323  0.00  0.00    +0.274 A 
ATOM     21  C   UNL     1      -0.746   3.553  25.041  0.00  0.00    +0.247 C 
ATOM     22  C   UNL     1      -4.222  -0.182  24.256  0.00  0.00    +0.112 A 
ATOM     23  C   UNL     1      -4.465   0.004  25.554  0.00  0.00    +0.031 A 
ENDROOT
BRANCH  21  24
ATOM     24  C   UNL     1      -0.343   2.667  26.139  0.00  0.00    +0.038 A 
ATOM     25  C   UNL     1       0.647   3.074  27.031  0.00  0.00    +0.028 A 
ATOM     26  C   UNL     1      -0.952   1.423  26.285  0.00  0.00    +0.013 A 
ATOM     27  C   UNL     1       1.030   2.232  28.074  0.00  0.00    +0.060 A 
ATOM     28  C   UNL     1      -0.570   0.581  27.328  0.00  0.00    +0.002 A 
ATOM     30  C   UNL     1       0.421   0.986  28.223  0.00  0.00    +0.015 A 
BRANCH  27  33
ATOM      7  O   UNL     1       2.926   3.506  28.783  0.00  0.00    -0.245 OA
ATOM     33  C   UNL     1       2.061   2.653  29.008  0.00  0.00    +0.337 C 
BRANCH  33   6
ATOM      6  O   UNL     1       1.985   1.996  30.198  0.00  0.00    -0.477 OA
ATOM     39  H   UNL     1       2.782   1.449  30.365  0.00  0.00    +0.295 HD
ENDBRANCH  33   6
ENDBRANCH  27  33
ENDBRANCH  21  24
BRANCH  22  11
ATOM     11  N   UNL     1      -4.173  -1.504  23.783  0.00  0.00    -0.211 N 
ATOM     38  H   UNL     1      -5.106  -1.921  23.664  0.00  0.00    +0.174 HD
BRANCH  11   1
ATOM      1  S   UNL     1      -3.027  -2.532  24.487  0.00  0.00    +0.073 S 
ATOM      4  O   UNL     1      -3.222  -2.571  25.925  0.00  0.00    -0.150 OA
ATOM      5  O   UNL     1      -2.945  -3.766  23.728  0.00  0.00    -0.150 OA
BRANCH   1  29
ATOM     29  C   UNL     1      -1.540  -1.625  24.182  0.00  0.00    +0.109 A 
ATOM     31  C   UNL     1      -0.371  -2.010  24.817  0.00  0.00    +0.032 A 
ATOM     32  C   UNL     1      -1.572  -0.547  23.314  0.00  0.00    +0.032 A 
ATOM     34  C   UNL     1       0.801  -1.295  24.576  0.00  0.00    +0.047 A 
ATOM     35  C   UNL     1      -0.399   0.168  23.073  0.00  0.00    +0.047 A 
ATOM     36  C   UNL     1       0.788  -0.206  23.704  0.00  0.00    +0.120 A 
BRANCH  36   8
ATOM      8  O   UNL     1       1.932   0.492  23.469  0.00  0.00    -0.495 OA
ATOM     37  C   UNL     1       2.718   0.091  22.347  0.00  0.00    +0.277 C 
ENDBRANCH  36   8
ENDBRANCH   1  29
ENDBRANCH  11   1
ENDBRANCH  22  11
TORSDOF 7
ENDMDL
MODEL 3
REMARK VINA RESULT:      10.5      1.863      4.506
REMARK  Name = 11879852
REMARK  8 active torsions:
REMARK  status: ('A' for Active; 'I' for Inactive)
REMARK    1  A    between atoms: S_1  and  N_11
REMARK    2  A    between atoms: S_1  and  C_29
REMARK    3  A    between atoms: O_6  and  C_33
REMARK    4  A    between atoms: O_8  and  C_36
REMARK    5  A    between atoms: O_8  and  C_37
REMARK    6  A    between atoms: N_11  and  C_22
REMARK    7  A    between atoms: C_21  and  C_24
REMARK    8  A    between atoms: C_27  and  C_33
REMARK                            x       y       z     vdW  Elec       q    Type
REMARK                         _______ _______ _______ _____ _____    ______ ____
ROOT
ATOM      2  O   UNL     1      -2.118  -1.567  22.561  0.00  0.00    -0.266 OA
ATOM      3  O   UNL     1      -4.192   3.181  22.604  0.00  0.00    -0.270 OA
ATOM      9  N   UNL     1      -4.679   2.177  24.661  0.00  0.00    -0.297 N 
ATOM     10  N   UNL     1      -3.167  -0.601  24.421  0.00  0.00    -0.310 N 
ATOM     12  C   UNL     1      -5.675  -0.099  24.504  0.00  0.00    +0.027 C 
ATOM     13  C   UNL     1      -4.247   0.483  26.423  0.00  0.00    +0.054 C 
ATOM     14  C   UNL     1      -5.515  -0.264  26.012  0.00  0.00    +0.018 C 
ATOM     15  C   UNL     1      -5.796   1.391  24.137  0.00  0.00    +0.113 C 
ATOM     16  C   UNL     1      -4.489  -0.772  23.805  0.00  0.00    +0.130 C 
ATOM     17  C   UNL     1      -4.400   1.981  26.092  0.00  0.00    +0.117 C 
ATOM     18  C   UNL     1      -3.029  -0.076  25.714  0.00  0.00    +0.027 A 
ATOM     19  C   UNL     1      -1.821  -0.033  26.307  0.00  0.00    +0.024 A 
ATOM     20  C   UNL     1      -2.059  -1.082  23.691  0.00  0.00    +0.274 A 
ATOM     21  C   UNL     1      -3.964   3.013  23.801  0.00  0.00    +0.247 C 
ATOM     22  C   UNL     1      -0.752  -0.984  24.388  0.00  0.00    +0.112 A 
ATOM     23  C   UNL     1      -0.644  -0.500  25.625  0.00  0.00    +0.031 A 
ENDROOT
BRANCH  21  24
ATOM     24  C   UNL     1      -2.822   3.750  24.352  0.00  0.00    +0.038 A 
ATOM     25  C   UNL     1      -1.721   3.054  24.846  0.00  0.00    +0.028 A 
ATOM     26  C   UNL     1      -2.843   5.142  24.380  0.00  0.00    +0.013 A 
ATOM     27  C   UNL     1      -0.635   3.755  25.371  0.00  0.00    +0.060 A 
ATOM     28  C   UNL     1      -1.758   5.843  24.905  0.00  0.00    +0.002 A 
ATOM     30  C   UNL     1      -0.653   5.149  25.400  0.00  0.00    +0.015 A 
BRANCH  27  33
ATOM      7  O   UNL     1       0.925   3.076  27.052  0.00  0.00    -0.245 OA
ATOM     33  C   UNL     1       0.516   3.033  25.887  0.00  0.00    +0.337 C 
BRANCH  33   6
ATOM      6  O   UNL     1       1.125   2.275  24.934  0.00  0.00    -0.477 OA
ATOM     39  H   UNL     1       1.054   1.316  25.129  0.00  0.00    +0.295 HD
ENDBRANCH  33   6
ENDBRANCH  27  33
ENDBRANCH  21  24
BRANCH  22  11
ATOM     11  N   UNL     1       0.424  -1.419  23.752  0.00  0.00    -0.211 N 
ATOM     38  H   UNL     1       1.128  -1.774  24.413  0.00  0.00    +0.174 HD
BRANCH  11   1
ATOM      1  S   UNL     1       1.044  -0.433  22.523  0.00  0.00    +0.073 S 
ATOM      4  O   UNL     1       0.968  -1.129  21.252  0.00  0.00    -0.150 OA
ATOM      5  O   UNL     1       0.508   0.908  22.655  0.00  0.00    -0.150 OA
BRANCH   1  29
ATOM     29  C   UNL     1       2.750  -0.367  22.986  0.00  0.00    +0.109 A 
ATOM     31  C   UNL     1       3.326  -1.464  23.604  0.00  0.00    +0.032 A 
ATOM     32  C   UNL     1       3.477   0.781  22.722  0.00  0.00    +0.032 A 
ATOM     34  C   UNL     1       4.670  -1.412  23.968  0.00  0.00    +0.047 A 
ATOM     35  C   UNL     1       4.823   0.832  23.086  0.00  0.00    +0.047 A 
ATOM     36  C   UNL     1       5.419  -0.264  23.710  0.00  0.00    +0.120 A 
BRANCH  36   8
ATOM      8  O   UNL     1       6.732  -0.213  24.065  0.00  0.00    -0.495 OA
ATOM     37  C   UNL     1       7.693  -0.460  23.038  0.00  0.00    +0.277 C 
ENDBRANCH  36   8
ENDBRANCH   1  29
ENDBRANCH  11   1
ENDBRANCH  22  11
TORSDOF 7
ENDMDL
MODEL 4
REMARK VINA RESULT:      11.0      1.521      2.318
REMARK  Name = 11879852
REMARK  8 active torsions:
REMARK  status: ('A' for Active; 'I' for Inactive)
REMARK    1  A    between atoms: S_1  and  N_11
REMARK    2  A    between atoms: S_1  and  C_29
REMARK    3  A    between atoms: O_6  and  C_33
REMARK    4  A    between atoms: O_8  and  C_36
REMARK    5  A    between atoms: O_8  and  C_37
REMARK    6  A    between atoms: N_11  and  C_22
REMARK    7  A    between atoms: C_21  and  C_24
REMARK    8  A    between atoms: C_27  and  C_33
REMARK                            x       y       z     vdW  Elec       q    Type
REMARK                         _______ _______ _______ _____ _____    ______ ____
ROOT
ATOM      2  O   UNL     1       0.546   2.389  26.183  0.00  0.00    -0.266 OA
ATOM      3  O   UNL     1      -4.403   3.293  27.424  0.00  0.00    -0.270 OA
ATOM      9  N   UNL     1      -3.978   4.356  25.383  0.00  0.00    -0.297 N 
ATOM     10  N   UNL     1      -0.980   3.503  24.797  0.00  0.00    -0.310 N 
ATOM     12  C   UNL     1      -1.953   5.803  25.357  0.00  0.00    +0.027 C 
ATOM     13  C   UNL     1      -2.656   4.645  23.301  0.00  0.00    +0.054 C 
ATOM     14  C   UNL     1      -2.091   5.956  23.846  0.00  0.00    +0.018 C 
ATOM     15  C   UNL     1      -3.323   5.512  25.995  0.00  0.00    +0.113 C 
ATOM     16  C   UNL     1      -0.933   4.697  25.650  0.00  0.00    +0.130 C 
ATOM     17  C   UNL     1      -4.048   4.388  23.913  0.00  0.00    +0.117 C 
ATOM     18  C   UNL     1      -1.737   3.481  23.617  0.00  0.00    +0.027 A 
ATOM     19  C   UNL     1      -1.678   2.422  22.789  0.00  0.00    +0.024 A 
ATOM     20  C   UNL     1      -0.152   2.423  25.170  0.00  0.00    +0.274 A 
ATOM     21  C   UNL     1      -4.458   3.326  26.196  0.00  0.00    +0.247 C 
ATOM     22  C   UNL     1      -0.149   1.274  24.229  0.00  0.00    +0.112 A 
ATOM     23  C   UNL     1      -0.861   1.280  23.103  0.00  0.00    +0.031 A 
ENDROOT
BRANCH  21  24
ATOM     24  C   UNL     1      -5.067   2.163  25.542  0.00  0.00    +0.038 A 
ATOM     25  C   UNL     1      -4.291   1.041  25.260  0.00  0.00    +0.028 A 
ATOM     26  C   UNL     1      -6.419   2.185  25.207  0.00  0.00    +0.013 A 
ATOM     27  C   UNL     1      -4.870  -0.065  24.638  0.00  0.00    +0.060 A 
ATOM     28  C   UNL     1      -6.998   1.079  24.585  0.00  0.00    +0.002 A 
ATOM     30  C   UNL     1      -6.224  -0.046  24.301  0.00  0.00    +0.015 A 
BRANCH  27  33
ATOM      7  O   UNL     1      -4.458  -2.244  23.741  0.00  0.00    -0.245 OA
ATOM     33  C   UNL     1      -4.065  -1.239  24.342  0.00  0.00    +0.337 C 
BRANCH  33   6
ATOM      6  O   UNL     1      -2.789  -1.124  24.805  0.00  0.00    -0.477 OA
ATOM     39  H   UNL     1      -2.305  -1.977  24.755  0.00  0.00    +0.295 HD
ENDBRANCH  33   6
ENDBRANCH  27  33
ENDBRANCH  21  24
BRANCH  22  11
ATOM     11  N   UNL     1       0.627   0.135  24.505  0.00  0.00    -0.211 N 
ATOM     38  H   UNL     1       1.336   0.302  25.233  0.00  0.00    +0.174 HD
BRANCH  11   1
ATOM      1  S   UNL     1       1.177  -0.762  23.180  0.00  0.00    +0.073 S 
ATOM      4  O   UNL     1       0.956  -2.176  23.420  0.00  0.00    -0.150 OA
ATOM      5  O   UNL     1       0.714  -0.150  21.949  0.00  0.00    -0.150 OA
BRANCH   1  29
ATOM     29  C   UNL     1       2.919  -0.475  23.288  0.00  0.00    +0.109 A 
ATOM     31  C   UNL     1       3.731  -1.449  23.843  0.00  0.00    +0.032 A 
ATOM     32  C   UNL     1       3.437   0.718  22.817  0.00  0.00    +0.032 A 
ATOM     34  C   UNL     1       5.104  -1.223  23.929  0.00  0.00    +0.047 A 
ATOM     35  C   UNL     1       4.811   0.945  22.902  0.00  0.00    +0.047 A 
ATOM     36  C   UNL     1       5.644  -0.026  23.459  0.00  0.00    +0.120 A 
BRANCH  36   8
ATOM      8  O   UNL     1       6.985   0.195  23.542  0.00  0.00    -0.495 OA
ATOM     37  C   UNL     1       7.832  -0.650  22.763  0.00  0.00    +0.277 C 
ENDBRANCH  36   8
ENDBRANCH   1  29
ENDBRANCH  11   1
ENDBRANCH  22  11
TORSDOF 7
ENDMDL
