MODEL 1
REMARK VINA RESULT:      -2.9      0.000      0.000
REMARK  Name = 75536972
REMARK  3 active torsions:
REMARK  status: ('A' for Active; 'I' for Inactive)
REMARK    1  A    between atoms: N_5  and  C_17
REMARK    2  A    between atoms: C_7  and  C_13
REMARK    3  A    between atoms: C_17  and  C_18
REMARK                            x       y       z     vdW  Elec       q    Type
REMARK                         _______ _______ _______ _____ _____    ______ ____
ROOT
ATOM      1  O   UNL     1      -5.297   1.487  26.237  0.00  0.00    -0.275 OA
ATOM      2  O   UNL     1       0.534  -1.951  24.584  0.00  0.00    -0.252 OA
ATOM      3  N   UNL     1      -3.641   0.857  24.729  0.00  0.00    -0.298 N 
ATOM      4  N   UNL     1      -1.097  -0.260  24.598  0.00  0.00    -0.278 N 
ATOM      5  N   UNL     1       0.494  -0.193  23.011  0.00  0.00    -0.279 N 
ATOM      8  C   UNL     1      -1.337   0.986  23.890  0.00  0.00    +0.112 C 
ATOM     11  C   UNL     1      -2.816   1.123  23.537  0.00  0.00    +0.132 C 
ATOM     12  C   UNL     1      -0.397   0.909  22.689  0.00  0.00    +0.133 C 
ATOM     13  C   UNL     1      -4.602   1.724  25.252  0.00  0.00    +0.219 C 
ATOM     14  C   UNL     1      -3.405  -0.447  25.365  0.00  0.00    +0.127 C 
ATOM     15  C   UNL     1      -1.932  -0.618  25.730  0.00  0.00    +0.128 C 
ATOM     16  C   UNL     1       0.041  -0.928  24.126  0.00  0.00    +0.306 C 
ENDROOT
BRANCH  13   7
ATOM      7  C   UNL     1      -4.789   3.035  24.560  0.00  0.00    +0.075 C 
ATOM      9  C   UNL     1      -5.247   4.204  25.364  0.00  0.00    +0.013 C 
ATOM     10  C   UNL     1      -3.836   4.142  24.862  0.00  0.00    +0.013 C 
ENDBRANCH  13   7
BRANCH   5  17
ATOM     17  C   UNL     1       1.620  -0.539  22.172  0.00  0.00    +0.146 C 
BRANCH  17  18
ATOM      6  N   UNL     1       4.626   1.395  23.407  0.00  0.00    -0.263 NA
ATOM     18  C   UNL     1       2.930  -0.232  22.837  0.00  0.00    -0.012 A 
ATOM     19  C   UNL     1       3.658  -1.227  23.479  0.00  0.00    +0.008 A 
ATOM     20  C   UNL     1       3.453   1.052  22.829  0.00  0.00    +0.115 A 
ATOM     21  C   UNL     1       4.869  -0.914  24.086  0.00  0.00    +0.020 A 
ATOM     22  C   UNL     1       5.305   0.400  24.022  0.00  0.00    +0.111 A 
ENDBRANCH  17  18
ENDBRANCH   5  17
TORSDOF 3
ENDMDL
MODEL 2
REMARK VINA RESULT:      -2.6     16.783     18.657
REMARK  Name = 75536972
REMARK  3 active torsions:
REMARK  status: ('A' for Active; 'I' for Inactive)
REMARK    1  A    between atoms: N_5  and  C_17
REMARK    2  A    between atoms: C_7  and  C_13
REMARK    3  A    between atoms: C_17  and  C_18
REMARK                            x       y       z     vdW  Elec       q    Type
REMARK                         _______ _______ _______ _____ _____    ______ ____
ROOT
ATOM      1  O   UNL     1      14.381  -3.604  32.192  0.00  0.00    -0.275 OA
ATOM      2  O   UNL     1      17.026  -8.015  27.490  0.00  0.00    -0.252 OA
ATOM      3  N   UNL     1      14.878  -5.749  31.438  0.00  0.00    -0.298 N 
ATOM      4  N   UNL     1      15.605  -7.164  29.157  0.00  0.00    -0.278 N 
ATOM      5  N   UNL     1      15.432  -9.339  28.617  0.00  0.00    -0.279 N 
ATOM      8  C   UNL     1      14.473  -7.644  29.930  0.00  0.00    +0.112 C 
ATOM     11  C   UNL     1      14.591  -7.194  31.384  0.00  0.00    +0.132 C 
ATOM     12  C   UNL     1      14.507  -9.156  29.724  0.00  0.00    +0.133 C 
ATOM     13  C   UNL     1      14.125  -4.804  32.139  0.00  0.00    +0.219 C 
ATOM     14  C   UNL     1      16.075  -5.329  30.694  0.00  0.00    +0.127 C 
ATOM     15  C   UNL     1      15.991  -5.765  29.234  0.00  0.00    +0.128 C 
ATOM     16  C   UNL     1      16.131  -8.153  28.314  0.00  0.00    +0.306 C 
ENDROOT
BRANCH  13   7
ATOM      7  C   UNL     1      12.920  -5.298  32.871  0.00  0.00    +0.075 C 
ATOM      9  C   UNL     1      11.597  -4.685  32.556  0.00  0.00    +0.013 C 
ATOM     10  C   UNL     1      11.902  -6.085  32.116  0.00  0.00    +0.013 C 
ENDBRANCH  13   7
BRANCH   5  17
ATOM     17  C   UNL     1      15.672 -10.636  28.026  0.00  0.00    +0.146 C 
BRANCH  17  18
ATOM      6  N   UNL     1      15.842 -10.760  24.250  0.00  0.00    -0.263 NA
ATOM     18  C   UNL     1      15.237 -10.688  26.590  0.00  0.00    -0.012 A 
ATOM     19  C   UNL     1      13.889 -10.711  26.250  0.00  0.00    +0.008 A 
ATOM     20  C   UNL     1      16.166 -10.714  25.562  0.00  0.00    +0.115 A 
ATOM     21  C   UNL     1      13.516 -10.759  24.912  0.00  0.00    +0.020 A 
ATOM     22  C   UNL     1      14.521 -10.781  23.959  0.00  0.00    +0.111 A 
ENDBRANCH  17  18
ENDBRANCH   5  17
TORSDOF 3
ENDMDL
MODEL 3
REMARK VINA RESULT:      -1.0      1.854      2.431
REMARK  Name = 75536972
REMARK  3 active torsions:
REMARK  status: ('A' for Active; 'I' for Inactive)
REMARK    1  A    between atoms: N_5  and  C_17
REMARK    2  A    between atoms: C_7  and  C_13
REMARK    3  A    between atoms: C_17  and  C_18
REMARK                            x       y       z     vdW  Elec       q    Type
REMARK                         _______ _______ _______ _____ _____    ______ ____
ROOT
ATOM      1  O   UNL     1      -4.036   4.094  26.127  0.00  0.00    -0.275 OA
ATOM      2  O   UNL     1       2.180   1.932  23.836  0.00  0.00    -0.252 OA
ATOM      3  N   UNL     1      -2.596   2.443  25.342  0.00  0.00    -0.298 N 
ATOM      4  N   UNL     1      -0.154   2.085  24.059  0.00  0.00    -0.278 N 
ATOM      5  N   UNL     1       0.695   0.358  22.898  0.00  0.00    -0.279 N 
ATOM      8  C   UNL     1      -1.316   1.393  23.528  0.00  0.00    +0.112 C 
ATOM     11  C   UNL     1      -2.357   1.178  24.624  0.00  0.00    +0.132 C 
ATOM     12  C   UNL     1      -0.737   0.112  22.934  0.00  0.00    +0.133 C 
ATOM     13  C   UNL     1      -3.844   3.047  25.513  0.00  0.00    +0.219 C 
ATOM     14  C   UNL     1      -1.394   3.064  25.917  0.00  0.00    +0.127 C 
ATOM     15  C   UNL     1      -0.331   3.292  24.846  0.00  0.00    +0.128 C 
ATOM     16  C   UNL     1       1.049   1.514  23.622  0.00  0.00    +0.306 C 
ENDROOT
BRANCH  13   7
ATOM      7  C   UNL     1      -5.023   2.366  24.899  0.00  0.00    +0.075 C 
ATOM      9  C   UNL     1      -5.406   1.016  25.405  0.00  0.00    +0.013 C 
ATOM     10  C   UNL     1      -6.259   2.208  25.719  0.00  0.00    +0.013 C 
ENDBRANCH  13   7
BRANCH   5  17
ATOM     17  C   UNL     1       1.618  -0.580  22.299  0.00  0.00    +0.146 C 
BRANCH  17  18
ATOM      6  N   UNL     1       4.814  -1.277  24.196  0.00  0.00    -0.263 NA
ATOM     18  C   UNL     1       3.011  -0.416  22.834  0.00  0.00    -0.012 A 
ATOM     19  C   UNL     1       3.783   0.690  22.498  0.00  0.00    +0.008 A 
ATOM     20  C   UNL     1       3.568  -1.364  23.679  0.00  0.00    +0.115 A 
ATOM     21  C   UNL     1       5.069   0.815  23.009  0.00  0.00    +0.020 A 
ATOM     22  C   UNL     1       5.534  -0.187  23.847  0.00  0.00    +0.111 A 
ENDBRANCH  17  18
ENDBRANCH   5  17
TORSDOF 3
ENDMDL
MODEL 4
REMARK VINA RESULT:      -0.2      2.444      3.345
REMARK  Name = 75536972
REMARK  3 active torsions:
REMARK  status: ('A' for Active; 'I' for Inactive)
REMARK    1  A    between atoms: N_5  and  C_17
REMARK    2  A    between atoms: C_7  and  C_13
REMARK    3  A    between atoms: C_17  and  C_18
REMARK                            x       y       z     vdW  Elec       q    Type
REMARK                         _______ _______ _______ _____ _____    ______ ____
ROOT
ATOM      1  O   UNL     1      -4.156  -0.811  26.540  0.00  0.00    -0.275 OA
ATOM      2  O   UNL     1       1.413   2.490  23.961  0.00  0.00    -0.252 OA
ATOM      3  N   UNL     1      -2.055  -0.800  25.540  0.00  0.00    -0.298 N 
ATOM      4  N   UNL     1      -0.262   0.861  24.212  0.00  0.00    -0.278 N 
ATOM      5  N   UNL     1       1.456   0.419  22.832  0.00  0.00    -0.279 N 
ATOM      8  C   UNL     1      -0.601  -0.413  23.600  0.00  0.00    +0.112 C 
ATOM     11  C   UNL     1      -1.043  -1.415  24.663  0.00  0.00    +0.132 C 
ATOM     12  C   UNL     1       0.666  -0.800  22.842  0.00  0.00    +0.133 C 
ATOM     13  C   UNL     1      -3.325  -1.322  25.794  0.00  0.00    +0.219 C 
ATOM     14  C   UNL     1      -1.633   0.452  26.187  0.00  0.00    +0.127 C 
ATOM     15  C   UNL     1      -1.182   1.478  25.151  0.00  0.00    +0.128 C 
ATOM     16  C   UNL     1       0.927   1.397  23.699  0.00  0.00    +0.306 C 
ENDROOT
BRANCH  13   7
ATOM      7  C   UNL     1      -3.691  -2.595  25.102  0.00  0.00    +0.075 C 
ATOM      9  C   UNL     1      -4.446  -2.513  23.818  0.00  0.00    +0.013 C 
ATOM     10  C   UNL     1      -3.006  -2.929  23.820  0.00  0.00    +0.013 C 
ENDBRANCH  13   7
BRANCH   5  17
ATOM     17  C   UNL     1       2.706   0.517  22.112  0.00  0.00    +0.146 C 
BRANCH  17  18
ATOM      6  N   UNL     1       4.933  -1.763  24.148  0.00  0.00    -0.263 NA
ATOM     18  C   UNL     1       3.867   0.035  22.933  0.00  0.00    -0.012 A 
ATOM     19  C   UNL     1       4.923   0.883  23.247  0.00  0.00    +0.008 A 
ATOM     20  C   UNL     1       3.919  -1.268  23.404  0.00  0.00    +0.115 A 
ATOM     21  C   UNL     1       5.985   0.410  24.009  0.00  0.00    +0.020 A 
ATOM     22  C   UNL     1       5.942  -0.910  24.432  0.00  0.00    +0.111 A 
ENDBRANCH  17  18
ENDBRANCH   5  17
TORSDOF 3
ENDMDL
MODEL 5
REMARK VINA RESULT:       0.4      1.875      7.242
REMARK  Name = 75536972
REMARK  3 active torsions:
REMARK  status: ('A' for Active; 'I' for Inactive)
REMARK    1  A    between atoms: N_5  and  C_17
REMARK    2  A    between atoms: C_7  and  C_13
REMARK    3  A    between atoms: C_17  and  C_18
REMARK                            x       y       z     vdW  Elec       q    Type
REMARK                         _______ _______ _______ _____ _____    ______ ____
ROOT
ATOM      1  O   UNL     1       2.999  -1.608  23.617  0.00  0.00    -0.275 OA
ATOM      2  O   UNL     1      -3.710  -2.341  25.353  0.00  0.00    -0.252 OA
ATOM      3  N   UNL     1       0.908  -0.738  24.150  0.00  0.00    -0.298 N 
ATOM      4  N   UNL     1      -1.775  -1.441  24.371  0.00  0.00    -0.278 N 
ATOM      5  N   UNL     1      -3.658  -0.215  24.333  0.00  0.00    -0.279 N 
ATOM      8  C   UNL     1      -1.435  -0.271  23.580  0.00  0.00    +0.112 C 
ATOM     11  C   UNL     1      -0.109   0.325  24.049  0.00  0.00    +0.132 C 
ATOM     12  C   UNL     1      -2.643   0.646  23.748  0.00  0.00    +0.133 C 
ATOM     13  C   UNL     1       2.150  -0.726  23.514  0.00  0.00    +0.219 C 
ATOM     14  C   UNL     1       0.538  -1.865  25.019  0.00  0.00    +0.127 C 
ATOM     15  C   UNL     1      -0.786  -2.484  24.578  0.00  0.00    +0.128 C 
ATOM     16  C   UNL     1      -3.122  -1.448  24.757  0.00  0.00    +0.306 C 
ENDROOT
BRANCH  13   7
ATOM      7  C   UNL     1       2.461   0.448  22.643  0.00  0.00    +0.075 C 
ATOM      9  C   UNL     1       3.760   1.154  22.838  0.00  0.00    +0.013 C 
ATOM     10  C   UNL     1       3.537   0.310  21.620  0.00  0.00    +0.013 C 
ENDBRANCH  13   7
BRANCH   5  17
ATOM     17  C   UNL     1      -5.011   0.241  24.560  0.00  0.00    +0.146 C 
BRANCH  17  18
ATOM      6  N   UNL     1      -6.023   3.506  26.177  0.00  0.00    -0.263 NA
ATOM     18  C   UNL     1      -5.064   1.707  24.876  0.00  0.00    -0.012 A 
ATOM     19  C   UNL     1      -4.251   2.615  24.207  0.00  0.00    +0.008 A 
ATOM     20  C   UNL     1      -5.926   2.199  25.845  0.00  0.00    +0.115 A 
ATOM     21  C   UNL     1      -4.322   3.967  24.522  0.00  0.00    +0.020 A 
ATOM     22  C   UNL     1      -5.217   4.358  25.505  0.00  0.00    +0.111 A 
ENDBRANCH  17  18
ENDBRANCH   5  17
TORSDOF 3
ENDMDL
