MODEL 1
REMARK VINA RESULT:       3.8      0.000      0.000
REMARK  Name = 26762299
REMARK  10 active torsions:
REMARK  status: ('A' for Active; 'I' for Inactive)
REMARK    1  A    between atoms: N_6  and  C_11
REMARK    2  A    between atoms: N_7  and  C_23
REMARK    3  A    between atoms: N_8  and  C_26
REMARK    4  A    between atoms: N_8  and  C_30
REMARK    5  A    between atoms: N_8  and  C_31
REMARK    6  A    between atoms: C_10  and  C_16
REMARK    7  A    between atoms: C_16  and  C_17
REMARK    8  A    between atoms: C_17  and  C_19
REMARK    9  A    between atoms: C_18  and  C_20
REMARK   10  A    between atoms: C_23  and  C_27
REMARK                            x       y       z     vdW  Elec       q    Type
REMARK                         _______ _______ _______ _____ _____    ______ ____
ROOT
ATOM      1  O   UNL     1      -5.508  -0.202  24.349  0.00  0.00    -0.274 OA
ATOM      4  N   UNL     1      -3.409   2.642  24.229  0.00  0.00    -0.285 NA
ATOM      5  N   UNL     1      -5.393   1.585  25.785  0.00  0.00    -0.313 N 
ATOM      9  C   UNL     1      -4.396   1.781  23.570  0.00  0.00    +0.145 C 
ATOM     10  C   UNL     1      -4.087   3.616  25.088  0.00  0.00    +0.075 C 
ATOM     11  C   UNL     1      -2.407   1.977  22.224  0.00  0.00    +0.089 C 
ATOM     12  C   UNL     1      -3.545   1.009  22.572  0.00  0.00    +0.052 C 
ATOM     13  C   UNL     1      -2.615   3.193  23.131  0.00  0.00    +0.107 C 
ATOM     14  C   UNL     1      -4.757   2.820  26.217  0.00  0.00    +0.123 C 
ATOM     15  C   UNL     1      -5.113   0.936  24.598  0.00  0.00    +0.230 C 
ATOM     35  H   UNL     1      -5.939   1.078  26.476  0.00  0.00    +0.149 HD
ENDROOT
BRANCH  11   6
ATOM      2  O   UNL     1      -0.082   3.216  23.367  0.00  0.00    -0.270 OA
ATOM      6  N   UNL     1      -1.119   1.364  22.433  0.00  0.00    -0.307 N 
ATOM     18  C   UNL     1      -0.050   2.046  22.996  0.00  0.00    +0.244 C 
ATOM     36  H   UNL     1      -0.987   0.434  22.049  0.00  0.00    +0.149 HD
BRANCH  18  20
ATOM     20  C   UNL     1       1.217   1.280  23.118  0.00  0.00    +0.037 A 
ATOM     21  C   UNL     1       1.187  -0.113  23.178  0.00  0.00    +0.015 A 
ATOM     22  C   UNL     1       2.437   1.955  23.173  0.00  0.00    +0.015 A 
ATOM     24  C   UNL     1       2.377  -0.832  23.294  0.00  0.00    +0.024 A 
ATOM     25  C   UNL     1       3.627   1.235  23.289  0.00  0.00    +0.024 A 
ATOM     26  C   UNL     1       3.597  -0.158  23.349  0.00  0.00    +0.029 A 
BRANCH  26   8
ATOM      8  N   UNL     1       4.800  -0.884  23.465  0.00  0.00    -0.336 N 
ATOM     30  C   UNL     1       4.777  -2.289  23.825  0.00  0.00    +0.129 C 
ATOM     31  C   UNL     1       6.075  -0.235  23.232  0.00  0.00    +0.129 C 
ENDBRANCH  26   8
ENDBRANCH  18  20
ENDBRANCH  11   6
BRANCH  10  16
ATOM     16  C   UNL     1      -3.133   4.652  25.687  0.00  0.00    +0.029 C 
BRANCH  16  17
ATOM     17  C   UNL     1      -2.331   4.059  26.837  0.00  0.00    +0.097 C 
BRANCH  17  19
ATOM      3  O   UNL     1      -0.120   3.532  26.002  0.00  0.00    -0.276 OA
ATOM      7  N   UNL     1      -1.640   1.810  26.339  0.00  0.00    -0.311 N 
ATOM     19  C   UNL     1      -1.230   3.136  26.346  0.00  0.00    +0.213 C 
ATOM     37  H   UNL     1      -2.575   1.573  26.660  0.00  0.00    +0.149 HD
BRANCH   7  23
ATOM     23  C   UNL     1      -0.773   0.737  25.912  0.00  0.00    +0.139 C 
BRANCH  23  27
ATOM     27  C   UNL     1      -1.545  -0.499  25.551  0.00  0.00    -0.030 A 
ATOM     28  C   UNL     1      -2.750  -0.782  26.194  0.00  0.00    +0.005 A 
ATOM     29  C   UNL     1      -1.058  -1.365  24.572  0.00  0.00    +0.005 A 
ATOM     32  C   UNL     1      -3.467  -1.931  25.860  0.00  0.00    +0.000 A 
ATOM     33  C   UNL     1      -1.774  -2.513  24.236  0.00  0.00    +0.000 A 
ATOM     34  C   UNL     1      -2.979  -2.796  24.881  0.00  0.00    +0.000 A 
ENDBRANCH  23  27
ENDBRANCH   7  23
ENDBRANCH  17  19
ENDBRANCH  16  17
ENDBRANCH  10  16
TORSDOF 8
ENDMDL
MODEL 2
REMARK VINA RESULT:       4.5      2.020      3.385
REMARK  Name = 26762299
REMARK  10 active torsions:
REMARK  status: ('A' for Active; 'I' for Inactive)
REMARK    1  A    between atoms: N_6  and  C_11
REMARK    2  A    between atoms: N_7  and  C_23
REMARK    3  A    between atoms: N_8  and  C_26
REMARK    4  A    between atoms: N_8  and  C_30
REMARK    5  A    between atoms: N_8  and  C_31
REMARK    6  A    between atoms: C_10  and  C_16
REMARK    7  A    between atoms: C_16  and  C_17
REMARK    8  A    between atoms: C_17  and  C_19
REMARK    9  A    between atoms: C_18  and  C_20
REMARK   10  A    between atoms: C_23  and  C_27
REMARK                            x       y       z     vdW  Elec       q    Type
REMARK                         _______ _______ _______ _____ _____    ______ ____
ROOT
ATOM      1  O   UNL     1      -4.364  -0.729  25.569  0.00  0.00    -0.274 OA
ATOM      4  N   UNL     1      -3.321   2.220  23.918  0.00  0.00    -0.285 NA
ATOM      5  N   UNL     1      -4.693   1.465  26.159  0.00  0.00    -0.313 N 
ATOM      9  C   UNL     1      -4.036   0.940  23.872  0.00  0.00    +0.145 C 
ATOM     10  C   UNL     1      -4.190   3.260  24.473  0.00  0.00    +0.075 C 
ATOM     11  C   UNL     1      -2.361   1.040  22.143  0.00  0.00    +0.089 C 
ATOM     12  C   UNL     1      -3.083   0.060  23.076  0.00  0.00    +0.052 C 
ATOM     13  C   UNL     1      -2.861   2.430  22.546  0.00  0.00    +0.107 C 
ATOM     14  C   UNL     1      -4.452   2.883  25.938  0.00  0.00    +0.123 C 
ATOM     15  C   UNL     1      -4.336   0.465  25.275  0.00  0.00    +0.230 C 
ATOM     35  H   UNL     1      -4.975   1.182  27.094  0.00  0.00    +0.149 HD
ENDROOT
BRANCH  11   6
ATOM      2  O   UNL     1      -0.936  -0.458  24.137  0.00  0.00    -0.270 OA
ATOM      6  N   UNL     1      -0.929   0.924  22.274  0.00  0.00    -0.307 N 
ATOM     18  C   UNL     1      -0.330   0.173  23.275  0.00  0.00    +0.244 C 
ATOM     36  H   UNL     1      -0.365   1.507  21.665  0.00  0.00    +0.149 HD
BRANCH  18  20
ATOM     20  C   UNL     1       1.156   0.177  23.290  0.00  0.00    +0.037 A 
ATOM     21  C   UNL     1       1.851   1.381  23.172  0.00  0.00    +0.015 A 
ATOM     22  C   UNL     1       1.855  -1.022  23.422  0.00  0.00    +0.015 A 
ATOM     24  C   UNL     1       3.246   1.384  23.185  0.00  0.00    +0.024 A 
ATOM     25  C   UNL     1       3.250  -1.018  23.435  0.00  0.00    +0.024 A 
ATOM     26  C   UNL     1       3.946   0.185  23.316  0.00  0.00    +0.029 A 
BRANCH  26   8
ATOM      8  N   UNL     1       5.355   0.188  23.330  0.00  0.00    -0.336 N 
ATOM     30  C   UNL     1       6.101  -0.589  22.359  0.00  0.00    +0.129 C 
ATOM     31  C   UNL     1       6.079   0.962  24.320  0.00  0.00    +0.129 C 
ENDBRANCH  26   8
ENDBRANCH  18  20
ENDBRANCH  11   6
BRANCH  10  16
ATOM     16  C   UNL     1      -3.569   4.658  24.408  0.00  0.00    +0.029 C 
BRANCH  16  17
ATOM     17  C   UNL     1      -2.692   4.926  25.622  0.00  0.00    +0.097 C 
BRANCH  17  19
ATOM      3  O   UNL     1      -0.438   4.928  24.736  0.00  0.00    -0.276 OA
ATOM      7  N   UNL     1      -1.090   3.214  26.160  0.00  0.00    -0.311 N 
ATOM     19  C   UNL     1      -1.285   4.384  25.439  0.00  0.00    +0.213 C 
ATOM     37  H   UNL     1      -1.846   2.846  26.732  0.00  0.00    +0.149 HD
BRANCH   7  23
ATOM     23  C   UNL     1       0.166   2.503  26.150  0.00  0.00    +0.139 C 
BRANCH  23  27
ATOM     27  C   UNL     1       0.867   2.583  27.475  0.00  0.00    -0.030 A 
ATOM     28  C   UNL     1       2.205   2.973  27.535  0.00  0.00    +0.005 A 
ATOM     29  C   UNL     1       0.180   2.268  28.648  0.00  0.00    +0.005 A 
ATOM     32  C   UNL     1       2.856   3.047  28.766  0.00  0.00    +0.000 A 
ATOM     33  C   UNL     1       0.830   2.342  29.879  0.00  0.00    +0.000 A 
ATOM     34  C   UNL     1       2.169   2.731  29.938  0.00  0.00    +0.000 A 
ENDBRANCH  23  27
ENDBRANCH   7  23
ENDBRANCH  17  19
ENDBRANCH  16  17
ENDBRANCH  10  16
TORSDOF 8
ENDMDL
MODEL 3
REMARK VINA RESULT:       7.3      2.331      3.917
REMARK  Name = 26762299
REMARK  10 active torsions:
REMARK  status: ('A' for Active; 'I' for Inactive)
REMARK    1  A    between atoms: N_6  and  C_11
REMARK    2  A    between atoms: N_7  and  C_23
REMARK    3  A    between atoms: N_8  and  C_26
REMARK    4  A    between atoms: N_8  and  C_30
REMARK    5  A    between atoms: N_8  and  C_31
REMARK    6  A    between atoms: C_10  and  C_16
REMARK    7  A    between atoms: C_16  and  C_17
REMARK    8  A    between atoms: C_17  and  C_19
REMARK    9  A    between atoms: C_18  and  C_20
REMARK   10  A    between atoms: C_23  and  C_27
REMARK                            x       y       z     vdW  Elec       q    Type
REMARK                         _______ _______ _______ _____ _____    ______ ____
ROOT
ATOM      1  O   UNL     1      -0.363  -2.387  25.360  0.00  0.00    -0.274 OA
ATOM      4  N   UNL     1       0.232   1.019  24.615  0.00  0.00    -0.285 NA
ATOM      5  N   UNL     1      -0.960  -0.512  26.543  0.00  0.00    -0.313 N 
ATOM      9  C   UNL     1      -0.309  -0.281  24.205  0.00  0.00    +0.145 C 
ATOM     10  C   UNL     1      -0.749   1.735  25.435  0.00  0.00    +0.075 C 
ATOM     11  C   UNL     1       1.284   0.524  22.587  0.00  0.00    +0.089 C 
ATOM     12  C   UNL     1       0.725  -0.766  23.201  0.00  0.00    +0.052 C 
ATOM     13  C   UNL     1       0.618   1.665  23.362  0.00  0.00    +0.107 C 
ATOM     14  C   UNL     1      -0.913   0.930  26.732  0.00  0.00    +0.123 C 
ATOM     15  C   UNL     1      -0.502  -1.166  25.415  0.00  0.00    +0.230 C 
ATOM     35  H   UNL     1      -1.173  -1.081  27.357  0.00  0.00    +0.149 HD
ENDROOT
BRANCH  11   6
ATOM      2  O   UNL     1       2.987  -1.490  23.725  0.00  0.00    -0.270 OA
ATOM      6  N   UNL     1       2.722   0.570  22.691  0.00  0.00    -0.307 N 
ATOM     18  C   UNL     1       3.462  -0.457  23.260  0.00  0.00    +0.244 C 
ATOM     36  H   UNL     1       3.172   1.440  22.428  0.00  0.00    +0.149 HD
BRANCH  18  20
ATOM     20  C   UNL     1       4.932  -0.245  23.316  0.00  0.00    +0.037 A 
ATOM     21  C   UNL     1       5.787  -1.111  22.634  0.00  0.00    +0.015 A 
ATOM     22  C   UNL     1       5.455   0.821  24.048  0.00  0.00    +0.015 A 
ATOM     24  C   UNL     1       7.167  -0.911  22.687  0.00  0.00    +0.024 A 
ATOM     25  C   UNL     1       6.835   1.019  24.101  0.00  0.00    +0.024 A 
ATOM     26  C   UNL     1       7.691   0.153  23.421  0.00  0.00    +0.029 A 
BRANCH  26   8
ATOM      8  N   UNL     1       9.085   0.355  23.474  0.00  0.00    -0.336 N 
ATOM     30  C   UNL     1       9.978  -0.478  22.691  0.00  0.00    +0.129 C 
ATOM     31  C   UNL     1       9.646   1.394  24.315  0.00  0.00    +0.129 C 
ENDBRANCH  26   8
ENDBRANCH  18  20
ENDBRANCH  11   6
BRANCH  10  16
ATOM     16  C   UNL     1      -0.319   3.165  25.770  0.00  0.00    +0.029 C 
BRANCH  16  17
ATOM     17  C   UNL     1      -1.361   4.173  25.306  0.00  0.00    +0.097 C 
BRANCH  17  19
ATOM      3  O   UNL     1      -3.646   3.822  26.025  0.00  0.00    -0.276 OA
ATOM      7  N   UNL     1      -2.864   2.691  24.154  0.00  0.00    -0.311 N 
ATOM     19  C   UNL     1      -2.749   3.563  25.228  0.00  0.00    +0.213 C 
ATOM     37  H   UNL     1      -2.071   2.553  23.533  0.00  0.00    +0.149 HD
BRANCH   7  23
ATOM     23  C   UNL     1      -4.088   1.982  23.865  0.00  0.00    +0.139 C 
BRANCH  23  27
ATOM     27  C   UNL     1      -3.999   0.531  24.242  0.00  0.00    -0.030 A 
ATOM     28  C   UNL     1      -4.114   0.149  25.578  0.00  0.00    +0.005 A 
ATOM     29  C   UNL     1      -3.804  -0.434  23.254  0.00  0.00    +0.005 A 
ATOM     32  C   UNL     1      -4.031  -1.199  25.927  0.00  0.00    +0.000 A 
ATOM     33  C   UNL     1      -3.722  -1.782  23.603  0.00  0.00    +0.000 A 
ATOM     34  C   UNL     1      -3.835  -2.164  24.940  0.00  0.00    +0.000 A 
ENDBRANCH  23  27
ENDBRANCH   7  23
ENDBRANCH  17  19
ENDBRANCH  16  17
ENDBRANCH  10  16
TORSDOF 8
ENDMDL
