MODEL 1
REMARK VINA RESULT:       1.8      0.000      0.000
REMARK  Name = 38029018
REMARK  9 active torsions:
REMARK  status: ('A' for Active; 'I' for Inactive)
REMARK    1  A    between atoms: N_3  and  C_14
REMARK    2  A    between atoms: C_7  and  C_11
REMARK    3  A    between atoms: C_8  and  C_14
REMARK    4  A    between atoms: C_10  and  C_16
REMARK    5  A    between atoms: C_11  and  C_19
REMARK    6  A    between atoms: C_11  and  C_20
REMARK    7  A    between atoms: C_12  and  C_22
REMARK    8  A    between atoms: C_15  and  C_21
REMARK    9  A    between atoms: C_16  and  C_23
REMARK                            x       y       z     vdW  Elec       q    Type
REMARK                         _______ _______ _______ _____ _____    ______ ____
ROOT
ATOM      7  C   UNL     1      -3.752   2.323  24.292  0.00  0.00    +0.000 C 
ATOM      8  C   UNL     1      -4.625   3.419  24.954  0.00  0.00    +0.032 C 
ATOM      9  C   UNL     1      -4.589   1.066  24.015  0.00  0.00    +0.012 C 
ATOM     10  C   UNL     1      -5.209   0.485  25.299  0.00  0.00    +0.023 C 
ATOM     12  C   UNL     1      -5.862   1.559  26.145  0.00  0.00    -0.073 C 
ATOM     13  C   UNL     1      -5.599   2.866  25.967  0.00  0.00    -0.022 C 
ATOM     22  C   UNL     1      -6.861   1.100  27.172  0.00  0.00    +0.039 C 
ENDROOT
BRANCH   7  11
ATOM     11  C   UNL     1      -3.111   2.817  22.991  0.00  0.00    -0.013 C 
ATOM     19  C   UNL     1      -4.150   3.510  22.116  0.00  0.00    +0.007 C 
ATOM     20  C   UNL     1      -2.462   1.656  22.244  0.00  0.00    +0.007 C 
ENDBRANCH   7  11
BRANCH   8  14
ATOM     14  C   UNL     1      -3.755   4.495  25.615  0.00  0.00    +0.112 C 
BRANCH  14   3
ATOM      1  O   UNL     1      -1.502   6.103  24.726  0.00  0.00    -0.276 OA
ATOM      3  N   UNL     1      -2.376   4.120  25.585  0.00  0.00    -0.315 N 
ATOM     21  C   UNL     1      -1.359   4.959  25.142  0.00  0.00    +0.216 C 
ATOM     33  H   UNL     1      -2.120   3.210  25.957  0.00  0.00    +0.149 HD
BRANCH  21  15
ATOM     15  C   UNL     1       0.008   4.363  25.201  0.00  0.00    +0.075 C 
ATOM     17  C   UNL     1       0.190   3.014  25.834  0.00  0.00    +0.013 C 
ATOM     18  C   UNL     1       0.321   3.168  24.348  0.00  0.00    +0.013 C 
ENDBRANCH  21  15
ENDBRANCH  14   3
ENDBRANCH   8  14
BRANCH  10  16
ATOM     16  C   UNL     1      -4.170  -0.296  26.112  0.00  0.00    +0.103 C 
BRANCH  16  23
ATOM      2  O   UNL     1      -4.133  -2.360  24.937  0.00  0.00    -0.276 OA
ATOM      4  N   UNL     1      -2.209  -1.062  24.825  0.00  0.00    -0.298 N 
ATOM      5  N   UNL     1       0.411  -0.495  23.734  0.00  0.00    -0.312 N 
ATOM      6  N   UNL     1       2.701   0.010  24.017  0.00  0.00    -0.240 NA
ATOM     23  C   UNL     1      -3.513  -1.337  25.239  0.00  0.00    +0.216 C 
ATOM     24  C   UNL     1      -1.477   0.158  25.175  0.00  0.00    +0.126 C 
ATOM     25  C   UNL     1      -1.504  -2.023  23.981  0.00  0.00    +0.126 C 
ATOM     26  C   UNL     1       0.038  -0.009  25.064  0.00  0.00    +0.125 C 
ATOM     27  C   UNL     1      -0.547  -1.335  23.010  0.00  0.00    +0.125 C 
ATOM     28  C   UNL     1       1.656  -0.200  23.184  0.00  0.00    +0.121 A 
ATOM     29  C   UNL     1       1.742  -0.142  21.803  0.00  0.00    +0.043 A 
ATOM     30  C   UNL     1       2.978   0.152  21.238  0.00  0.00    +0.005 A 
ATOM     31  C   UNL     1       3.887   0.293  23.432  0.00  0.00    +0.113 A 
ATOM     32  C   UNL     1       4.077   0.374  22.062  0.00  0.00    +0.020 A 
ENDBRANCH  16  23
ENDBRANCH  10  16
TORSDOF 6
ENDMDL
MODEL 2
REMARK VINA RESULT:       4.6      1.613      4.553
REMARK  Name = 38029018
REMARK  9 active torsions:
REMARK  status: ('A' for Active; 'I' for Inactive)
REMARK    1  A    between atoms: N_3  and  C_14
REMARK    2  A    between atoms: C_7  and  C_11
REMARK    3  A    between atoms: C_8  and  C_14
REMARK    4  A    between atoms: C_10  and  C_16
REMARK    5  A    between atoms: C_11  and  C_19
REMARK    6  A    between atoms: C_11  and  C_20
REMARK    7  A    between atoms: C_12  and  C_22
REMARK    8  A    between atoms: C_15  and  C_21
REMARK    9  A    between atoms: C_16  and  C_23
REMARK                            x       y       z     vdW  Elec       q    Type
REMARK                         _______ _______ _______ _____ _____    ______ ____
ROOT
ATOM      7  C   UNL     1      -4.630   2.605  25.086  0.00  0.00    +0.000 C 
ATOM      8  C   UNL     1      -4.496   2.593  23.542  0.00  0.00    +0.032 C 
ATOM      9  C   UNL     1      -5.209   3.944  25.563  0.00  0.00    +0.012 C 
ATOM     10  C   UNL     1      -4.336   5.140  25.140  0.00  0.00    +0.023 C 
ATOM     12  C   UNL     1      -3.937   5.058  23.682  0.00  0.00    -0.073 C 
ATOM     13  C   UNL     1      -4.028   3.914  22.980  0.00  0.00    -0.022 C 
ATOM     22  C   UNL     1      -3.472   6.333  23.033  0.00  0.00    +0.039 C 
ENDROOT
BRANCH   7  11
ATOM     11  C   UNL     1      -5.504   1.452  25.589  0.00  0.00    -0.013 C 
ATOM     19  C   UNL     1      -6.596   1.130  24.574  0.00  0.00    +0.007 C 
ATOM     20  C   UNL     1      -6.111   1.797  26.946  0.00  0.00    +0.007 C 
ENDBRANCH   7  11
BRANCH   8  14
ATOM     14  C   UNL     1      -3.553   1.477  23.077  0.00  0.00    +0.112 C 
BRANCH  14   3
ATOM      1  O   UNL     1      -4.179  -1.362  23.149  0.00  0.00    -0.276 OA
ATOM      3  N   UNL     1      -3.296   0.555  24.139  0.00  0.00    -0.315 N 
ATOM     21  C   UNL     1      -3.631  -0.794  24.087  0.00  0.00    +0.216 C 
ATOM     33  H   UNL     1      -2.795   0.894  24.955  0.00  0.00    +0.149 HD
BRANCH  21  15
ATOM     15  C   UNL     1      -3.267  -1.572  25.308  0.00  0.00    +0.075 C 
ATOM     17  C   UNL     1      -3.271  -3.071  25.247  0.00  0.00    +0.013 C 
ATOM     18  C   UNL     1      -1.971  -2.328  25.333  0.00  0.00    +0.013 C 
ENDBRANCH  21  15
ENDBRANCH  14   3
ENDBRANCH   8  14
BRANCH  10  16
ATOM     16  C   UNL     1      -3.102   5.270  26.041  0.00  0.00    +0.103 C 
BRANCH  16  23
ATOM      2  O   UNL     1      -3.240   3.386  27.480  0.00  0.00    -0.276 OA
ATOM      4  N   UNL     1      -1.619   3.311  25.818  0.00  0.00    -0.298 N 
ATOM      5  N   UNL     1       0.405   1.897  24.306  0.00  0.00    -0.312 N 
ATOM      6  N   UNL     1       2.587   1.743  23.416  0.00  0.00    -0.240 NA
ATOM     23  C   UNL     1      -2.669   3.905  26.518  0.00  0.00    +0.216 C 
ATOM     24  C   UNL     1      -0.948   3.925  24.668  0.00  0.00    +0.126 C 
ATOM     25  C   UNL     1      -1.138   1.992  26.222  0.00  0.00    +0.126 C 
ATOM     26  C   UNL     1       0.450   3.356  24.427  0.00  0.00    +0.125 C 
ATOM     27  C   UNL     1      -0.645   1.175  25.030  0.00  0.00    +0.125 C 
ATOM     28  C   UNL     1       1.352   1.209  23.552  0.00  0.00    +0.121 A 
ATOM     29  C   UNL     1       0.961   0.006  22.987  0.00  0.00    +0.043 A 
ATOM     30  C   UNL     1       1.895  -0.694  22.232  0.00  0.00    +0.005 A 
ATOM     31  C   UNL     1       3.469   1.035  22.675  0.00  0.00    +0.113 A 
ATOM     32  C   UNL     1       3.176  -0.176  22.069  0.00  0.00    +0.020 A 
ENDBRANCH  16  23
ENDBRANCH  10  16
TORSDOF 6
ENDMDL
