MODEL 1
REMARK VINA RESULT:      -6.7      0.000      0.000
REMARK  Name = 51137154
REMARK  4 active torsions:
REMARK  status: ('A' for Active; 'I' for Inactive)
REMARK    1  A    between atoms: N_3  and  C_10
REMARK    2  A    between atoms: C_6  and  C_11
REMARK    3  A    between atoms: C_10  and  C_12
REMARK    4  A    between atoms: C_15  and  C_18
REMARK                            x       y       z     vdW  Elec       q    Type
REMARK                         _______ _______ _______ _____ _____    ______ ____
ROOT
ATOM      3  N   UNL     1      -0.096   1.899  24.670  0.00  0.00    -0.297 NA
ATOM      6  C   UNL     1      -0.505  -0.386  25.009  0.00  0.00    +0.092 C 
ATOM      7  C   UNL     1       0.497  -0.208  23.855  0.00  0.00    +0.029 C 
ATOM      8  C   UNL     1      -1.126   1.003  25.201  0.00  0.00    +0.097 C 
ATOM      9  C   UNL     1       0.368   1.253  23.442  0.00  0.00    +0.085 C 
ENDROOT
BRANCH   6  11
ATOM      2  O   UNL     1      -2.739  -1.080  24.292  0.00  0.00    -0.425 OA
ATOM      4  N   UNL     1      -1.452  -2.760  25.014  0.00  0.00    -0.112 NA
ATOM      5  N   UNL     1      -2.674  -3.288  24.643  0.00  0.00    -0.113 NA
ATOM     11  C   UNL     1      -1.535  -1.469  24.793  0.00  0.00    +0.222 A 
ATOM     15  C   UNL     1      -3.393  -2.272  24.228  0.00  0.00    +0.214 A 
ATOM     18  C   UNL     1      -4.769  -2.246  23.716  0.00  0.00    +0.111 C 
ENDBRANCH   6  11
BRANCH   3  10
ATOM     10  C   UNL     1      -0.598   3.243  24.433  0.00  0.00    +0.121 C 
BRANCH  10  12
ATOM      1 CL   UNL     1      -2.621   2.144  22.375  0.00  0.00    -0.083 Cl
ATOM     12  C   UNL     1      -2.066   3.359  24.751  0.00  0.00    -0.015 A 
ATOM     13  C   UNL     1      -3.043   2.887  23.874  0.00  0.00    +0.045 A 
ATOM     14  C   UNL     1      -2.437   3.954  25.956  0.00  0.00    +0.006 A 
ATOM     16  C   UNL     1      -4.393   3.012  24.203  0.00  0.00    +0.020 A 
ATOM     17  C   UNL     1      -3.787   4.079  26.285  0.00  0.00    +0.000 A 
ATOM     19  C   UNL     1      -4.765   3.608  25.408  0.00  0.00    +0.001 A 
ENDBRANCH  10  12
ENDBRANCH   3  10
TORSDOF 3
ENDMDL
MODEL 2
REMARK VINA RESULT:      -6.0      2.787      4.894
REMARK  Name = 51137154
REMARK  4 active torsions:
REMARK  status: ('A' for Active; 'I' for Inactive)
REMARK    1  A    between atoms: N_3  and  C_10
REMARK    2  A    between atoms: C_6  and  C_11
REMARK    3  A    between atoms: C_10  and  C_12
REMARK    4  A    between atoms: C_15  and  C_18
REMARK                            x       y       z     vdW  Elec       q    Type
REMARK                         _______ _______ _______ _____ _____    ______ ____
ROOT
ATOM      3  N   UNL     1      -0.384   3.062  24.261  0.00  0.00    -0.297 NA
ATOM      6  C   UNL     1      -2.575   3.900  24.315  0.00  0.00    +0.092 C 
ATOM      7  C   UNL     1      -1.688   4.712  25.276  0.00  0.00    +0.029 C 
ATOM      8  C   UNL     1      -1.763   2.632  24.018  0.00  0.00    +0.097 C 
ATOM      9  C   UNL     1      -0.447   3.854  25.489  0.00  0.00    +0.085 C 
ENDROOT
BRANCH   6  11
ATOM      2  O   UNL     1      -4.488   2.388  24.520  0.00  0.00    -0.425 OA
ATOM      4  N   UNL     1      -4.765   4.353  25.552  0.00  0.00    -0.112 NA
ATOM      5  N   UNL     1      -5.910   3.603  25.747  0.00  0.00    -0.113 NA
ATOM     11  C   UNL     1      -3.963   3.604  24.831  0.00  0.00    +0.222 A 
ATOM     15  C   UNL     1      -5.704   2.465  25.127  0.00  0.00    +0.214 A 
ATOM     18  C   UNL     1      -6.581   1.293  25.006  0.00  0.00    +0.111 C 
ENDBRANCH   6  11
BRANCH   3  10
ATOM     10  C   UNL     1       0.535   1.940  24.372  0.00  0.00    +0.121 C 
BRANCH  10  12
ATOM      1 CL   UNL     1       1.096  -0.359  22.387  0.00  0.00    -0.083 Cl
ATOM     12  C   UNL     1      -0.192   0.636  24.574  0.00  0.00    -0.015 A 
ATOM     13  C   UNL     1       0.005  -0.451  23.722  0.00  0.00    +0.045 A 
ATOM     14  C   UNL     1      -1.079   0.533  25.645  0.00  0.00    +0.006 A 
ATOM     16  C   UNL     1      -0.686  -1.642  23.941  0.00  0.00    +0.020 A 
ATOM     17  C   UNL     1      -1.771  -0.659  25.864  0.00  0.00    +0.000 A 
ATOM     19  C   UNL     1      -1.574  -1.746  25.012  0.00  0.00    +0.001 A 
ENDBRANCH  10  12
ENDBRANCH   3  10
TORSDOF 3
ENDMDL
MODEL 3
REMARK VINA RESULT:      -5.8      2.961      4.729
REMARK  Name = 51137154
REMARK  4 active torsions:
REMARK  status: ('A' for Active; 'I' for Inactive)
REMARK    1  A    between atoms: N_3  and  C_10
REMARK    2  A    between atoms: C_6  and  C_11
REMARK    3  A    between atoms: C_10  and  C_12
REMARK    4  A    between atoms: C_15  and  C_18
REMARK                            x       y       z     vdW  Elec       q    Type
REMARK                         _______ _______ _______ _____ _____    ______ ____
ROOT
ATOM      3  N   UNL     1      -0.743   1.019  24.310  0.00  0.00    -0.297 NA
ATOM      6  C   UNL     1       1.162   0.566  23.017  0.00  0.00    +0.092 C 
ATOM      7  C   UNL     1       0.413  -0.747  23.310  0.00  0.00    +0.029 C 
ATOM      8  C   UNL     1       0.580   1.574  24.016  0.00  0.00    +0.097 C 
ATOM      9  C   UNL     1      -0.522  -0.419  24.467  0.00  0.00    +0.085 C 
ENDROOT
BRANCH   6  11
ATOM      2  O   UNL     1       3.184  -0.707  23.542  0.00  0.00    -0.425 OA
ATOM      4  N   UNL     1       3.580   1.354  22.769  0.00  0.00    -0.112 NA
ATOM      5  N   UNL     1       4.798   0.752  23.022  0.00  0.00    -0.113 NA
ATOM     11  C   UNL     1       2.667   0.466  23.087  0.00  0.00    +0.222 A 
ATOM     15  C   UNL     1       4.519  -0.449  23.472  0.00  0.00    +0.214 A 
ATOM     18  C   UNL     1       5.426  -1.524  23.895  0.00  0.00    +0.111 C 
ENDBRANCH   6  11
BRANCH   3  10
ATOM     10  C   UNL     1      -1.348   1.618  25.489  0.00  0.00    +0.121 C 
BRANCH  10  12
ATOM      1 CL   UNL     1      -2.191   4.588  25.570  0.00  0.00    -0.083 Cl
ATOM     12  C   UNL     1      -2.801   1.949  25.267  0.00  0.00    -0.015 A 
ATOM     13  C   UNL     1      -3.263   3.265  25.288  0.00  0.00    +0.045 A 
ATOM     14  C   UNL     1      -3.690   0.900  25.036  0.00  0.00    +0.006 A 
ATOM     16  C   UNL     1      -4.616   3.532  25.078  0.00  0.00    +0.020 A 
ATOM     17  C   UNL     1      -5.044   1.167  24.827  0.00  0.00    +0.000 A 
ATOM     19  C   UNL     1      -5.506   2.483  24.848  0.00  0.00    +0.001 A 
ENDBRANCH  10  12
ENDBRANCH   3  10
TORSDOF 3
ENDMDL
MODEL 4
REMARK VINA RESULT:      -5.6      1.602      2.125
REMARK  Name = 51137154
REMARK  4 active torsions:
REMARK  status: ('A' for Active; 'I' for Inactive)
REMARK    1  A    between atoms: N_3  and  C_10
REMARK    2  A    between atoms: C_6  and  C_11
REMARK    3  A    between atoms: C_10  and  C_12
REMARK    4  A    between atoms: C_15  and  C_18
REMARK                            x       y       z     vdW  Elec       q    Type
REMARK                         _______ _______ _______ _____ _____    ______ ____
ROOT
ATOM      3  N   UNL     1      -0.860   2.991  24.897  0.00  0.00    -0.297 NA
ATOM      6  C   UNL     1      -0.303   0.731  25.187  0.00  0.00    +0.092 C 
ATOM      7  C   UNL     1       0.388   1.274  23.923  0.00  0.00    +0.029 C 
ATOM      8  C   UNL     1      -1.382   1.771  25.516  0.00  0.00    +0.097 C 
ATOM      9  C   UNL     1      -0.350   2.565  23.593  0.00  0.00    +0.085 C 
ENDROOT
BRANCH   6  11
ATOM      2  O   UNL     1      -2.156  -0.785  24.683  0.00  0.00    -0.425 OA
ATOM      4  N   UNL     1      -0.258  -1.823  25.250  0.00  0.00    -0.112 NA
ATOM      5  N   UNL     1      -1.212  -2.790  24.993  0.00  0.00    -0.113 NA
ATOM     11  C   UNL     1      -0.853  -0.669  25.057  0.00  0.00    +0.222 A 
ATOM     15  C   UNL     1      -2.304  -2.138  24.666  0.00  0.00    +0.214 A 
ATOM     18  C   UNL     1      -3.626  -2.656  24.291  0.00  0.00    +0.111 C 
ENDBRANCH   6  11
BRANCH   3  10
ATOM     10  C   UNL     1      -1.869   4.032  24.784  0.00  0.00    +0.121 C 
BRANCH  10  12
ATOM      1 CL   UNL     1      -3.484   4.593  27.356  0.00  0.00    -0.083 Cl
ATOM     12  C   UNL     1      -3.265   3.474  24.880  0.00  0.00    -0.015 A 
ATOM     13  C   UNL     1      -4.060   3.681  26.008  0.00  0.00    +0.045 A 
ATOM     14  C   UNL     1      -3.757   2.733  23.806  0.00  0.00    +0.006 A 
ATOM     16  C   UNL     1      -5.348   3.148  26.061  0.00  0.00    +0.020 A 
ATOM     17  C   UNL     1      -5.045   2.200  23.858  0.00  0.00    +0.000 A 
ATOM     19  C   UNL     1      -5.840   2.408  24.986  0.00  0.00    +0.001 A 
ENDBRANCH  10  12
ENDBRANCH   3  10
TORSDOF 3
ENDMDL
MODEL 5
REMARK VINA RESULT:      -5.5      3.060      4.777
REMARK  Name = 51137154
REMARK  4 active torsions:
REMARK  status: ('A' for Active; 'I' for Inactive)
REMARK    1  A    between atoms: N_3  and  C_10
REMARK    2  A    between atoms: C_6  and  C_11
REMARK    3  A    between atoms: C_10  and  C_12
REMARK    4  A    between atoms: C_15  and  C_18
REMARK                            x       y       z     vdW  Elec       q    Type
REMARK                         _______ _______ _______ _____ _____    ______ ____
ROOT
ATOM      3  N   UNL     1      -0.756   0.745  24.228  0.00  0.00    -0.297 NA
ATOM      6  C   UNL     1       1.204   0.530  22.959  0.00  0.00    +0.092 C 
ATOM      7  C   UNL     1       0.505  -0.838  23.063  0.00  0.00    +0.029 C 
ATOM      8  C   UNL     1       0.549   1.384  24.052  0.00  0.00    +0.097 C 
ATOM      9  C   UNL     1      -0.478  -0.691  24.217  0.00  0.00    +0.085 C 
ENDROOT
BRANCH   6  11
ATOM      2  O   UNL     1       3.256  -0.680  23.522  0.00  0.00    -0.425 OA
ATOM      4  N   UNL     1       3.600   1.406  22.792  0.00  0.00    -0.112 NA
ATOM      5  N   UNL     1       4.831   0.843  23.070  0.00  0.00    -0.113 NA
ATOM     11  C   UNL     1       2.710   0.482  23.070  0.00  0.00    +0.222 A 
ATOM     15  C   UNL     1       4.582  -0.374  23.493  0.00  0.00    +0.214 A 
ATOM     18  C   UNL     1       5.514  -1.424  23.925  0.00  0.00    +0.111 C 
ENDBRANCH   6  11
BRANCH   3  10
ATOM     10  C   UNL     1      -1.423   1.171  25.449  0.00  0.00    +0.121 C 
BRANCH  10  12
ATOM      1 CL   UNL     1      -3.583  -1.028  25.648  0.00  0.00    -0.083 Cl
ATOM     12  C   UNL     1      -2.857   1.561  25.199  0.00  0.00    -0.015 A 
ATOM     13  C   UNL     1      -3.891   0.628  25.269  0.00  0.00    +0.045 A 
ATOM     14  C   UNL     1      -3.136   2.892  24.892  0.00  0.00    +0.006 A 
ATOM     16  C   UNL     1      -5.207   1.026  25.032  0.00  0.00    +0.020 A 
ATOM     17  C   UNL     1      -4.452   3.291  24.654  0.00  0.00    +0.000 A 
ATOM     19  C   UNL     1      -5.487   2.358  24.724  0.00  0.00    +0.001 A 
ENDBRANCH  10  12
ENDBRANCH   3  10
TORSDOF 3
ENDMDL
MODEL 6
REMARK VINA RESULT:      -5.4      2.353      4.270
REMARK  Name = 51137154
REMARK  4 active torsions:
REMARK  status: ('A' for Active; 'I' for Inactive)
REMARK    1  A    between atoms: N_3  and  C_10
REMARK    2  A    between atoms: C_6  and  C_11
REMARK    3  A    between atoms: C_10  and  C_12
REMARK    4  A    between atoms: C_15  and  C_18
REMARK                            x       y       z     vdW  Elec       q    Type
REMARK                         _______ _______ _______ _____ _____    ______ ____
ROOT
ATOM      3  N   UNL     1      -3.566  -0.779  24.665  0.00  0.00    -0.297 NA
ATOM      6  C   UNL     1      -1.263  -0.828  24.223  0.00  0.00    +0.092 C 
ATOM      7  C   UNL     1      -1.510  -1.162  25.705  0.00  0.00    +0.029 C 
ATOM      8  C   UNL     1      -2.583  -0.214  23.739  0.00  0.00    +0.097 C 
ATOM      9  C   UNL     1      -2.934  -0.697  25.982  0.00  0.00    +0.085 C 
ENDROOT
BRANCH   6  11
ATOM      2  O   UNL     1       0.949  -0.476  23.238  0.00  0.00    -0.425 OA
ATOM      4  N   UNL     1       0.149   1.299  24.338  0.00  0.00    -0.112 NA
ATOM      5  N   UNL     1       1.393   1.634  23.836  0.00  0.00    -0.113 NA
ATOM     11  C   UNL     1      -0.069   0.060  23.965  0.00  0.00    +0.222 A 
ATOM     15  C   UNL     1       1.822   0.568  23.202  0.00  0.00    +0.214 A 
ATOM     18  C   UNL     1       3.081   0.355  22.476  0.00  0.00    +0.111 C 
ENDBRANCH   6  11
BRANCH   3  10
ATOM     10  C   UNL     1      -4.840  -0.079  24.618  0.00  0.00    +0.121 C 
BRANCH  10  12
ATOM      1 CL   UNL     1      -6.531   1.471  26.686  0.00  0.00    -0.083 Cl
ATOM     12  C   UNL     1      -4.664   1.414  24.701  0.00  0.00    -0.015 A 
ATOM     13  C   UNL     1      -5.389   2.187  25.608  0.00  0.00    +0.045 A 
ATOM     14  C   UNL     1      -3.747   2.021  23.843  0.00  0.00    +0.006 A 
ATOM     16  C   UNL     1      -5.197   3.568  25.656  0.00  0.00    +0.020 A 
ATOM     17  C   UNL     1      -3.556   3.402  23.891  0.00  0.00    +0.000 A 
ATOM     19  C   UNL     1      -4.281   4.175  24.798  0.00  0.00    +0.001 A 
ENDBRANCH  10  12
ENDBRANCH   3  10
TORSDOF 3
ENDMDL
MODEL 7
REMARK VINA RESULT:      -5.4     14.029     15.790
REMARK  Name = 51137154
REMARK  4 active torsions:
REMARK  status: ('A' for Active; 'I' for Inactive)
REMARK    1  A    between atoms: N_3  and  C_10
REMARK    2  A    between atoms: C_6  and  C_11
REMARK    3  A    between atoms: C_10  and  C_12
REMARK    4  A    between atoms: C_15  and  C_18
REMARK                            x       y       z     vdW  Elec       q    Type
REMARK                         _______ _______ _______ _____ _____    ______ ____
ROOT
ATOM      3  N   UNL     1      -5.492  -9.855  14.389  0.00  0.00    -0.297 NA
ATOM      6  C   UNL     1      -5.945  -9.503  16.663  0.00  0.00    +0.092 C 
ATOM      7  C   UNL     1      -4.592 -10.220  16.512  0.00  0.00    +0.029 C 
ATOM      8  C   UNL     1      -6.625  -9.667  15.297  0.00  0.00    +0.097 C 
ATOM      9  C   UNL     1      -4.592 -10.770  15.092  0.00  0.00    +0.085 C 
ENDROOT
BRANCH   6  11
ATOM      2  O   UNL     1      -8.147  -9.920  17.646  0.00  0.00    -0.425 OA
ATOM      4  N   UNL     1      -6.437 -10.493  18.968  0.00  0.00    -0.112 NA
ATOM      5  N   UNL     1      -7.610 -10.780  19.640  0.00  0.00    -0.113 NA
ATOM     11  C   UNL     1      -6.798  -9.993  17.809  0.00  0.00    +0.222 A 
ATOM     15  C   UNL     1      -8.582 -10.429  18.831  0.00  0.00    +0.214 A 
ATOM     18  C   UNL     1     -10.035 -10.513  19.024  0.00  0.00    +0.111 C 
ENDBRANCH   6  11
BRANCH   3  10
ATOM     10  C   UNL     1      -5.900 -10.369  13.090  0.00  0.00    +0.121 C 
BRANCH  10  12
ATOM      1 CL   UNL     1      -7.140  -8.895  10.676  0.00  0.00    -0.083 Cl
ATOM     12  C   UNL     1      -4.979  -9.910  11.990  0.00  0.00    -0.015 A 
ATOM     13  C   UNL     1      -5.459  -9.237  10.866  0.00  0.00    +0.045 A 
ATOM     14  C   UNL     1      -3.615 -10.172  12.117  0.00  0.00    +0.006 A 
ATOM     16  C   UNL     1      -4.575  -8.828   9.868  0.00  0.00    +0.020 A 
ATOM     17  C   UNL     1      -2.731  -9.762  11.119  0.00  0.00    +0.000 A 
ATOM     19  C   UNL     1      -3.211  -9.090   9.995  0.00  0.00    +0.001 A 
ENDBRANCH  10  12
ENDBRANCH   3  10
TORSDOF 3
ENDMDL
MODEL 8
REMARK VINA RESULT:      -5.0      2.391      5.124
REMARK  Name = 51137154
REMARK  4 active torsions:
REMARK  status: ('A' for Active; 'I' for Inactive)
REMARK    1  A    between atoms: N_3  and  C_10
REMARK    2  A    between atoms: C_6  and  C_11
REMARK    3  A    between atoms: C_10  and  C_12
REMARK    4  A    between atoms: C_15  and  C_18
REMARK                            x       y       z     vdW  Elec       q    Type
REMARK                         _______ _______ _______ _____ _____    ______ ____
ROOT
ATOM      3  N   UNL     1      -0.374   0.839  23.668  0.00  0.00    -0.297 NA
ATOM      6  C   UNL     1      -1.924   2.600  23.666  0.00  0.00    +0.092 C 
ATOM      7  C   UNL     1      -0.608   3.073  24.310  0.00  0.00    +0.029 C 
ATOM      8  C   UNL     1      -1.820   1.069  23.651  0.00  0.00    +0.097 C 
ATOM      9  C   UNL     1       0.148   1.794  24.647  0.00  0.00    +0.085 C 
ENDROOT
BRANCH   6  11
ATOM      2  O   UNL     1      -4.023   2.159  24.843  0.00  0.00    -0.425 OA
ATOM      4  N   UNL     1      -3.591   4.331  24.536  0.00  0.00    -0.112 NA
ATOM      5  N   UNL     1      -4.794   4.227  25.208  0.00  0.00    -0.113 NA
ATOM     11  C   UNL     1      -3.177   3.101  24.344  0.00  0.00    +0.222 A 
ATOM     15  C   UNL     1      -5.007   2.942  25.366  0.00  0.00    +0.214 A 
ATOM     18  C   UNL     1      -6.129   2.251  26.014  0.00  0.00    +0.111 C 
ENDBRANCH   6  11
BRANCH   3  10
ATOM     10  C   UNL     1      -0.035  -0.535  24.000  0.00  0.00    +0.121 C 
BRANCH  10  12
ATOM      1 CL   UNL     1      -0.995   0.095  26.867  0.00  0.00    -0.083 Cl
ATOM     12  C   UNL     1      -1.222  -1.294  24.533  0.00  0.00    -0.015 A 
ATOM     13  C   UNL     1      -1.719  -1.069  25.817  0.00  0.00    +0.045 A 
ATOM     14  C   UNL     1      -1.828  -2.240  23.706  0.00  0.00    +0.006 A 
ATOM     16  C   UNL     1      -2.821  -1.790  26.275  0.00  0.00    +0.020 A 
ATOM     17  C   UNL     1      -2.930  -2.963  24.164  0.00  0.00    +0.000 A 
ATOM     19  C   UNL     1      -3.426  -2.737  25.449  0.00  0.00    +0.001 A 
ENDBRANCH  10  12
ENDBRANCH   3  10
TORSDOF 3
ENDMDL
MODEL 9
REMARK VINA RESULT:      -4.5     15.920     18.252
REMARK  Name = 51137154
REMARK  4 active torsions:
REMARK  status: ('A' for Active; 'I' for Inactive)
REMARK    1  A    between atoms: N_3  and  C_10
REMARK    2  A    between atoms: C_6  and  C_11
REMARK    3  A    between atoms: C_10  and  C_12
REMARK    4  A    between atoms: C_15  and  C_18
REMARK                            x       y       z     vdW  Elec       q    Type
REMARK                         _______ _______ _______ _____ _____    ______ ____
ROOT
ATOM      3  N   UNL     1      -6.647  -9.666   9.783  0.00  0.00    -0.297 NA
ATOM      6  C   UNL     1      -5.215 -10.485  11.450  0.00  0.00    +0.092 C 
ATOM      7  C   UNL     1      -6.144  -9.414  12.050  0.00  0.00    +0.029 C 
ATOM      8  C   UNL     1      -5.333 -10.295   9.932  0.00  0.00    +0.097 C 
ATOM      9  C   UNL     1      -6.710  -8.666  10.849  0.00  0.00    +0.085 C 
ENDROOT
BRANCH   6  11
ATOM      2  O   UNL     1      -3.601 -10.474  13.290  0.00  0.00    -0.425 OA
ATOM      4  N   UNL     1      -2.670 -10.354  11.260  0.00  0.00    -0.112 NA
ATOM      5  N   UNL     1      -1.654 -10.339  12.197  0.00  0.00    -0.113 NA
ATOM     11  C   UNL     1      -3.788 -10.433  11.943  0.00  0.00    +0.222 A 
ATOM     15  C   UNL     1      -2.243 -10.411  13.367  0.00  0.00    +0.214 A 
ATOM     18  C   UNL     1      -1.654 -10.436  14.712  0.00  0.00    +0.111 C 
ENDBRANCH   6  11
BRANCH   3  10
ATOM     10  C   UNL     1      -6.836  -9.082   8.464  0.00  0.00    +0.121 C 
BRANCH  10  12
ATOM      1 CL   UNL     1      -9.636 -10.347   8.772  0.00  0.00    -0.083 Cl
ATOM     12  C   UNL     1      -8.034  -8.170   8.421  0.00  0.00    -0.015 A 
ATOM     13  C   UNL     1      -9.333  -8.662   8.552  0.00  0.00    +0.045 A 
ATOM     14  C   UNL     1      -7.819  -6.803   8.245  0.00  0.00    +0.006 A 
ATOM     16  C   UNL     1     -10.418  -7.786   8.508  0.00  0.00    +0.020 A 
ATOM     17  C   UNL     1      -8.905  -5.927   8.200  0.00  0.00    +0.000 A 
ATOM     19  C   UNL     1     -10.203  -6.419   8.332  0.00  0.00    +0.001 A 
ENDBRANCH  10  12
ENDBRANCH   3  10
TORSDOF 3
ENDMDL
MODEL 10
REMARK VINA RESULT:      -4.4     19.407     19.984
REMARK  Name = 51137154
REMARK  4 active torsions:
REMARK  status: ('A' for Active; 'I' for Inactive)
REMARK    1  A    between atoms: N_3  and  C_10
REMARK    2  A    between atoms: C_6  and  C_11
REMARK    3  A    between atoms: C_10  and  C_12
REMARK    4  A    between atoms: C_15  and  C_18
REMARK                            x       y       z     vdW  Elec       q    Type
REMARK                         _______ _______ _______ _____ _____    ______ ____
ROOT
ATOM      3  N   UNL     1      16.538  -5.516  26.824  0.00  0.00    -0.297 NA
ATOM      6  C   UNL     1      15.275  -6.819  28.312  0.00  0.00    +0.092 C 
ATOM      7  C   UNL     1      16.257  -5.938  29.104  0.00  0.00    +0.029 C 
ATOM      8  C   UNL     1      15.796  -6.778  26.869  0.00  0.00    +0.097 C 
ATOM      9  C   UNL     1      17.286  -5.474  28.081  0.00  0.00    +0.085 C 
ENDROOT
BRANCH   6  11
ATOM      2  O   UNL     1      14.367  -8.374  29.969  0.00  0.00    -0.425 OA
ATOM      4  N   UNL     1      15.593  -9.354  28.375  0.00  0.00    -0.112 NA
ATOM      5  N   UNL     1      15.145 -10.339  29.236  0.00  0.00    -0.113 NA
ATOM     11  C   UNL     1      15.115  -8.224  28.842  0.00  0.00    +0.222 A 
ATOM     15  C   UNL     1      14.435  -9.721  30.150  0.00  0.00    +0.214 A 
ATOM     18  C   UNL     1      13.718 -10.271  31.308  0.00  0.00    +0.111 C 
ENDBRANCH   6  11
BRANCH   3  10
ATOM     10  C   UNL     1      17.405  -5.422  25.660  0.00  0.00    +0.121 C 
BRANCH  10  12
ATOM      1 CL   UNL     1      17.405  -5.567  22.575  0.00  0.00    -0.083 Cl
ATOM     12  C   UNL     1      17.176  -4.148  24.891  0.00  0.00    -0.015 A 
ATOM     13  C   UNL     1      17.161  -4.127  23.496  0.00  0.00    +0.045 A 
ATOM     14  C   UNL     1      16.975  -2.969  25.609  0.00  0.00    +0.006 A 
ATOM     16  C   UNL     1      16.945  -2.928  22.819  0.00  0.00    +0.020 A 
ATOM     17  C   UNL     1      16.759  -1.768  24.931  0.00  0.00    +0.000 A 
ATOM     19  C   UNL     1      16.744  -1.748  23.536  0.00  0.00    +0.001 A 
ENDBRANCH  10  12
ENDBRANCH   3  10
TORSDOF 3
ENDMDL
