MODEL 1
REMARK VINA RESULT:      -3.5      0.000      0.000
REMARK  Name = 51137549
REMARK  9 active torsions:
REMARK  status: ('A' for Active; 'I' for Inactive)
REMARK    1  A    between atoms: O_5  and  C_21
REMARK    2  A    between atoms: O_5  and  C_29
REMARK    3  A    between atoms: N_6  and  C_14
REMARK    4  A    between atoms: N_9  and  C_26
REMARK    5  A    between atoms: N_9  and  C_30
REMARK    6  A    between atoms: N_9  and  C_31
REMARK    7  A    between atoms: C_10  and  C_15
REMARK    8  A    between atoms: C_14  and  C_16
REMARK    9  A    between atoms: C_18  and  C_20
REMARK                            x       y       z     vdW  Elec       q    Type
REMARK                         _______ _______ _______ _____ _____    ______ ____
ROOT
ATOM      6  N   UNL     1      13.789 -10.778  30.232  0.00  0.00    -0.297 NA
ATOM     10  C   UNL     1      15.721  -9.639  29.547  0.00  0.00    +0.092 C 
ATOM     11  C   UNL     1      16.019 -10.432  30.831  0.00  0.00    +0.029 C 
ATOM     12  C   UNL     1      14.190  -9.597  29.463  0.00  0.00    +0.097 C 
ATOM     13  C   UNL     1      14.653 -10.768  31.413  0.00  0.00    +0.085 C 
ENDROOT
BRANCH  10  15
ATOM      4  O   UNL     1      16.263  -7.600  28.304  0.00  0.00    -0.420 OA
ATOM      7  N   UNL     1      16.991  -7.598  30.420  0.00  0.00    -0.112 NA
ATOM      8  N   UNL     1      17.362  -6.400  29.840  0.00  0.00    -0.107 NA
ATOM     15  C   UNL     1      16.352  -8.266  29.488  0.00  0.00    +0.222 A 
ATOM     18  C   UNL     1      16.917  -6.445  28.606  0.00  0.00    +0.248 A 
BRANCH  18  20
ATOM     20  C   UNL     1      17.011  -5.481  27.547  0.00  0.00    +0.039 A 
ATOM     24  C   UNL     1      17.314  -4.151  27.838  0.00  0.00    +0.015 A 
ATOM     25  C   UNL     1      16.800  -5.876  26.225  0.00  0.00    +0.015 A 
ATOM     26  C   UNL     1      17.194  -3.610  25.486  0.00  0.00    +0.029 A 
ATOM     27  C   UNL     1      17.405  -3.215  26.808  0.00  0.00    +0.024 A 
ATOM     28  C   UNL     1      16.891  -4.940  25.196  0.00  0.00    +0.024 A 
BRANCH  26   9
ATOM      9  N   UNL     1      17.286  -2.663  24.445  0.00  0.00    -0.336 N 
ATOM     30  C   UNL     1      17.303  -1.244  24.743  0.00  0.00    +0.129 C 
ATOM     31  C   UNL     1      17.372  -3.096  23.065  0.00  0.00    +0.129 C 
ENDBRANCH  26   9
ENDBRANCH  18  20
ENDBRANCH  10  15
BRANCH   6  14
ATOM     14  C   UNL     1      12.376 -10.760  30.579  0.00  0.00    +0.119 C 
BRANCH  14  16
ATOM     16  C   UNL     1      11.969  -9.452  31.204  0.00  0.00    -0.030 A 
ATOM     17  C   UNL     1      12.463  -8.252  30.695  0.00  0.00    +0.051 A 
ATOM     19  C   UNL     1      11.096  -9.442  32.293  0.00  0.00    +0.005 A 
ATOM     21  C   UNL     1      12.087  -7.040  31.275  0.00  0.00    +0.130 A 
ATOM     22  C   UNL     1      10.720  -8.231  32.873  0.00  0.00    +0.004 A 
ATOM     23  C   UNL     1      11.215  -7.030  32.364  0.00  0.00    +0.046 A 
BRANCH  21   5
ATOM      5  O   UNL     1      12.569  -5.869  30.779  0.00  0.00    -0.406 OA
BRANCH   5  29
ATOM      1  F   UNL     1      13.410  -4.224  32.076  0.00  0.00    -0.133 F 
ATOM      2  F   UNL     1      14.323  -6.205  32.207  0.00  0.00    -0.133 F 
ATOM      3  F   UNL     1      14.632  -4.950  30.415  0.00  0.00    -0.133 F 
ATOM     29  C   UNL     1      13.746  -5.323  31.363  0.00  0.00    +0.575 C 
ENDBRANCH   5  29
ENDBRANCH  21   5
ENDBRANCH  14  16
ENDBRANCH   6  14
TORSDOF 7
ENDMDL
MODEL 2
REMARK VINA RESULT:      -0.3     17.856     19.768
REMARK  Name = 51137549
REMARK  9 active torsions:
REMARK  status: ('A' for Active; 'I' for Inactive)
REMARK    1  A    between atoms: O_5  and  C_21
REMARK    2  A    between atoms: O_5  and  C_29
REMARK    3  A    between atoms: N_6  and  C_14
REMARK    4  A    between atoms: N_9  and  C_26
REMARK    5  A    between atoms: N_9  and  C_30
REMARK    6  A    between atoms: N_9  and  C_31
REMARK    7  A    between atoms: C_10  and  C_15
REMARK    8  A    between atoms: C_14  and  C_16
REMARK    9  A    between atoms: C_18  and  C_20
REMARK                            x       y       z     vdW  Elec       q    Type
REMARK                         _______ _______ _______ _____ _____    ______ ____
ROOT
ATOM      6  N   UNL     1      -5.796   3.041  25.157  0.00  0.00    -0.297 NA
ATOM     10  C   UNL     1      -5.330   0.807  24.621  0.00  0.00    +0.092 C 
ATOM     11  C   UNL     1      -6.052   0.871  25.978  0.00  0.00    +0.029 C 
ATOM     12  C   UNL     1      -4.858   2.243  24.363  0.00  0.00    +0.097 C 
ATOM     13  C   UNL     1      -5.925   2.321  26.423  0.00  0.00    +0.085 C 
ENDROOT
BRANCH  10  15
ATOM      4  O   UNL     1      -2.966   0.274  24.262  0.00  0.00    -0.420 OA
ATOM      7  N   UNL     1      -4.244  -1.506  24.712  0.00  0.00    -0.112 NA
ATOM      8  N   UNL     1      -2.946  -1.946  24.534  0.00  0.00    -0.107 NA
ATOM     15  C   UNL     1      -4.209  -0.205  24.545  0.00  0.00    +0.222 A 
ATOM     18  C   UNL     1      -2.235  -0.874  24.273  0.00  0.00    +0.248 A 
BRANCH  18  20
ATOM     20  C   UNL     1      -0.834  -0.728  24.003  0.00  0.00    +0.039 A 
ATOM     24  C   UNL     1       0.086  -1.585  24.609  0.00  0.00    +0.015 A 
ATOM     25  C   UNL     1      -0.391   0.270  23.135  0.00  0.00    +0.015 A 
ATOM     26  C   UNL     1       1.891  -0.445  23.477  0.00  0.00    +0.029 A 
ATOM     27  C   UNL     1       1.449  -1.442  24.346  0.00  0.00    +0.024 A 
ATOM     28  C   UNL     1       0.971   0.411  22.872  0.00  0.00    +0.024 A 
BRANCH  26   9
ATOM      9  N   UNL     1       3.269  -0.301  23.213  0.00  0.00    -0.336 N 
ATOM     30  C   UNL     1       4.217  -1.280  23.706  0.00  0.00    +0.129 C 
ATOM     31  C   UNL     1       3.754   0.824  22.438  0.00  0.00    +0.129 C 
ENDBRANCH  26   9
ENDBRANCH  18  20
ENDBRANCH  10  15
BRANCH   6  14
ATOM     14  C   UNL     1      -5.340   4.411  25.341  0.00  0.00    +0.119 C 
BRANCH  14  16
ATOM     16  C   UNL     1      -3.842   4.522  25.233  0.00  0.00    -0.030 A 
ATOM     17  C   UNL     1      -3.026   3.836  26.131  0.00  0.00    +0.051 A 
ATOM     19  C   UNL     1      -3.273   5.311  24.233  0.00  0.00    +0.005 A 
ATOM     21  C   UNL     1      -1.638   3.940  26.031  0.00  0.00    +0.130 A 
ATOM     22  C   UNL     1      -1.885   5.415  24.134  0.00  0.00    +0.004 A 
ATOM     23  C   UNL     1      -1.068   4.729  25.032  0.00  0.00    +0.046 A 
BRANCH  21   5
ATOM      5  O   UNL     1      -0.841   3.271  26.907  0.00  0.00    -0.406 OA
BRANCH   5  29
ATOM      1  F   UNL     1       1.184   2.304  27.157  0.00  0.00    -0.133 F 
ATOM      2  F   UNL     1      -0.461   1.068  26.422  0.00  0.00    -0.133 F 
ATOM      3  F   UNL     1       0.438   2.616  25.127  0.00  0.00    -0.133 F 
ATOM     29  C   UNL     1       0.071   2.308  26.389  0.00  0.00    +0.575 C 
ENDBRANCH   5  29
ENDBRANCH  21   5
ENDBRANCH  14  16
ENDBRANCH   6  14
TORSDOF 7
ENDMDL
