MODEL 1
REMARK VINA RESULT:      -0.5      0.000      0.000
REMARK  Name = 45783631
REMARK  10 active torsions:
REMARK  status: ('A' for Active; 'I' for Inactive)
REMARK    1  A    between atoms: O_3  and  C_23
REMARK    2  A    between atoms: O_4  and  C_29
REMARK    3  A    between atoms: O_4  and  C_30
REMARK    4  A    between atoms: N_6  and  C_15
REMARK    5  A    between atoms: N_10  and  C_27
REMARK    6  A    between atoms: C_11  and  C_16
REMARK    7  A    between atoms: C_15  and  C_17
REMARK    8  A    between atoms: C_19  and  C_22
REMARK    9  A    between atoms: C_20  and  C_23
REMARK   10  A    between atoms: C_28  and  C_29
REMARK                            x       y       z     vdW  Elec       q    Type
REMARK                         _______ _______ _______ _____ _____    ______ ____
ROOT
ATOM      1  O   UNL     1      -2.363   3.723  24.493  0.00  0.00    -0.336 OA
ATOM      7  N   UNL     1      -2.126   1.575  23.903  0.00  0.00    -0.190 NA
ATOM      8  N   UNL     1      -0.989   3.518  24.307  0.00  0.00    -0.056 NA
ATOM     16  C   UNL     1      -2.958   2.529  24.236  0.00  0.00    +0.245 A 
ATOM     19  C   UNL     1      -0.930   2.229  23.960  0.00  0.00    +0.204 A 
ENDROOT
BRANCH  19  22
ATOM      9  N   UNL     1       2.715   1.672  23.480  0.00  0.00    -0.239 NA
ATOM     22  C   UNL     1       0.307   1.565  23.667  0.00  0.00    +0.041 A 
ATOM     24  C   UNL     1       0.330   0.226  23.295  0.00  0.00    +0.016 A 
ATOM     25  C   UNL     1       1.515   2.238  23.744  0.00  0.00    +0.124 A 
ATOM     26  C   UNL     1       1.545  -0.392  23.016  0.00  0.00    +0.044 A 
ATOM     27  C   UNL     1       2.698   0.369  23.122  0.00  0.00    +0.125 A 
BRANCH  27  10
ATOM      5  O   UNL     1       5.348   0.510  24.541  0.00  0.00    -0.273 OA
ATOM     10  N   UNL     1       3.915  -0.262  22.838  0.00  0.00    -0.268 N 
ATOM     28  C   UNL     1       5.122  -0.159  23.537  0.00  0.00    +0.244 C 
ATOM     32  H   UNL     1       3.895  -0.865  22.019  0.00  0.00    +0.156 HD
BRANCH  28  29
ATOM     29  C   UNL     1       6.216  -0.994  22.908  0.00  0.00    +0.255 C 
BRANCH  29   4
ATOM      4  O   UNL     1       7.226  -0.133  22.424  0.00  0.00    -0.374 OA
ATOM     30  C   UNL     1       8.435  -0.264  23.165  0.00  0.00    +0.194 C 
ENDBRANCH  29   4
ENDBRANCH  28  29
ENDBRANCH  27  10
ENDBRANCH  19  22
BRANCH  16  11
ATOM      6  N   UNL     1      -4.942   1.245  25.018  0.00  0.00    -0.284 NA
ATOM     11  C   UNL     1      -4.466   2.484  24.369  0.00  0.00    +0.146 C 
ATOM     12  C   UNL     1      -5.020   3.622  25.246  0.00  0.00    +0.030 C 
ATOM     13  C   UNL     1      -5.842   2.931  26.324  0.00  0.00    +0.017 C 
ATOM     14  C   UNL     1      -6.187   1.592  25.705  0.00  0.00    +0.085 C 
BRANCH   6  15
ATOM     15  C   UNL     1      -5.119   0.140  24.086  0.00  0.00    +0.159 C 
BRANCH  15  17
ATOM      2  O   UNL     1      -2.997  -0.629  24.999  0.00  0.00    -0.461 OA
ATOM     17  C   UNL     1      -4.137  -0.972  24.342  0.00  0.00    +0.119 A 
ATOM     18  C   UNL     1      -4.137  -2.316  24.046  0.00  0.00    +0.046 A 
ATOM     20  C   UNL     1      -2.263  -1.766  25.122  0.00  0.00    +0.131 A 
ATOM     21  C   UNL     1      -2.920  -2.831  24.552  0.00  0.00    +0.047 A 
BRANCH  20  23
ATOM     23  C   UNL     1      -0.971  -1.633  25.812  0.00  0.00    +0.230 C 
BRANCH  23   3
ATOM      3  O   UNL     1      -0.851  -0.330  26.389  0.00  0.00    -0.387 OA
ATOM     31  H   UNL     1      -0.794   0.302  25.654  0.00  0.00    +0.210 HD
ENDBRANCH  23   3
ENDBRANCH  20  23
ENDBRANCH  15  17
ENDBRANCH   6  15
ENDBRANCH  16  11
TORSDOF 9
ENDMDL
MODEL 2
REMARK VINA RESULT:      -0.2      1.881      3.635
REMARK  Name = 45783631
REMARK  10 active torsions:
REMARK  status: ('A' for Active; 'I' for Inactive)
REMARK    1  A    between atoms: O_3  and  C_23
REMARK    2  A    between atoms: O_4  and  C_29
REMARK    3  A    between atoms: O_4  and  C_30
REMARK    4  A    between atoms: N_6  and  C_15
REMARK    5  A    between atoms: N_10  and  C_27
REMARK    6  A    between atoms: C_11  and  C_16
REMARK    7  A    between atoms: C_15  and  C_17
REMARK    8  A    between atoms: C_19  and  C_22
REMARK    9  A    between atoms: C_20  and  C_23
REMARK   10  A    between atoms: C_28  and  C_29
REMARK                            x       y       z     vdW  Elec       q    Type
REMARK                         _______ _______ _______ _____ _____    ______ ____
ROOT
ATOM      1  O   UNL     1      -4.343  -0.549  24.876  0.00  0.00    -0.336 OA
ATOM      7  N   UNL     1      -2.797   1.070  24.965  0.00  0.00    -0.190 NA
ATOM      8  N   UNL     1      -3.158  -1.114  24.387  0.00  0.00    -0.056 NA
ATOM     16  C   UNL     1      -4.043   0.738  25.193  0.00  0.00    +0.245 A 
ATOM     19  C   UNL     1      -2.294  -0.099  24.471  0.00  0.00    +0.204 A 
ENDROOT
BRANCH  19  22
ATOM      9  N   UNL     1       1.195  -1.370  24.266  0.00  0.00    -0.239 NA
ATOM     22  C   UNL     1      -0.922  -0.218  24.069  0.00  0.00    +0.041 A 
ATOM     24  C   UNL     1      -0.371   0.651  23.135  0.00  0.00    +0.016 A 
ATOM     25  C   UNL     1      -0.105  -1.203  24.601  0.00  0.00    +0.124 A 
ATOM     26  C   UNL     1       0.963   0.511  22.764  0.00  0.00    +0.044 A 
ATOM     27  C   UNL     1       1.696  -0.506  23.355  0.00  0.00    +0.125 A 
BRANCH  27  10
ATOM      5  O   UNL     1       3.823   1.582  22.943  0.00  0.00    -0.273 OA
ATOM     10  N   UNL     1       3.037  -0.638  22.975  0.00  0.00    -0.268 N 
ATOM     28  C   UNL     1       3.985   0.374  22.799  0.00  0.00    +0.244 C 
ATOM     32  H   UNL     1       3.335  -1.597  22.813  0.00  0.00    +0.156 HD
BRANCH  28  29
ATOM     29  C   UNL     1       5.330  -0.175  22.374  0.00  0.00    +0.255 C 
BRANCH  29   4
ATOM      4  O   UNL     1       6.226  -0.078  23.462  0.00  0.00    -0.374 OA
ATOM     30  C   UNL     1       5.734  -0.753  24.615  0.00  0.00    +0.194 C 
ENDBRANCH  29   4
ENDBRANCH  28  29
ENDBRANCH  27  10
ENDBRANCH  19  22
BRANCH  16  11
ATOM      6  N   UNL     1      -5.000   3.018  25.473  0.00  0.00    -0.284 NA
ATOM     11  C   UNL     1      -5.173   1.578  25.751  0.00  0.00    +0.146 C 
ATOM     12  C   UNL     1      -6.539   1.221  25.137  0.00  0.00    +0.030 C 
ATOM     13  C   UNL     1      -7.085   2.533  24.592  0.00  0.00    +0.017 C 
ATOM     14  C   UNL     1      -6.347   3.586  25.393  0.00  0.00    +0.085 C 
BRANCH   6  15
ATOM     15  C   UNL     1      -4.175   3.699  26.461  0.00  0.00    +0.159 C 
BRANCH  15  17
ATOM      2  O   UNL     1      -1.838   3.115  26.119  0.00  0.00    -0.461 OA
ATOM     17  C   UNL     1      -2.814   4.039  25.917  0.00  0.00    +0.119 A 
ATOM     18  C   UNL     1      -2.317   5.123  25.230  0.00  0.00    +0.046 A 
ATOM     20  C   UNL     1      -0.706   3.615  25.556  0.00  0.00    +0.131 A 
ATOM     21  C   UNL     1      -0.948   4.848  24.997  0.00  0.00    +0.047 A 
BRANCH  20  23
ATOM     23  C   UNL     1       0.495   2.773  25.654  0.00  0.00    +0.230 C 
BRANCH  23   3
ATOM      3  O   UNL     1       0.681   2.331  27.001  0.00  0.00    -0.387 OA
ATOM     31  H   UNL     1       1.564   2.628  27.278  0.00  0.00    +0.210 HD
ENDBRANCH  23   3
ENDBRANCH  20  23
ENDBRANCH  15  17
ENDBRANCH   6  15
ENDBRANCH  16  11
TORSDOF 9
ENDMDL
MODEL 3
REMARK VINA RESULT:       2.0      1.929      3.426
REMARK  Name = 45783631
REMARK  10 active torsions:
REMARK  status: ('A' for Active; 'I' for Inactive)
REMARK    1  A    between atoms: O_3  and  C_23
REMARK    2  A    between atoms: O_4  and  C_29
REMARK    3  A    between atoms: O_4  and  C_30
REMARK    4  A    between atoms: N_6  and  C_15
REMARK    5  A    between atoms: N_10  and  C_27
REMARK    6  A    between atoms: C_11  and  C_16
REMARK    7  A    between atoms: C_15  and  C_17
REMARK    8  A    between atoms: C_19  and  C_22
REMARK    9  A    between atoms: C_20  and  C_23
REMARK   10  A    between atoms: C_28  and  C_29
REMARK                            x       y       z     vdW  Elec       q    Type
REMARK                         _______ _______ _______ _____ _____    ______ ____
ROOT
ATOM      1  O   UNL     1      -3.118   1.905  23.102  0.00  0.00    -0.336 OA
ATOM      7  N   UNL     1      -1.735   0.946  24.581  0.00  0.00    -0.190 NA
ATOM      8  N   UNL     1      -1.886   1.766  22.450  0.00  0.00    -0.056 NA
ATOM     16  C   UNL     1      -2.942   1.398  24.350  0.00  0.00    +0.245 A 
ATOM     19  C   UNL     1      -1.123   1.193  23.386  0.00  0.00    +0.204 A 
ENDROOT
BRANCH  19  22
ATOM      9  N   UNL     1       2.589   1.380  23.495  0.00  0.00    -0.239 NA
ATOM     22  C   UNL     1       0.253   0.856  23.161  0.00  0.00    +0.041 A 
ATOM     24  C   UNL     1       0.602  -0.268  22.421  0.00  0.00    +0.016 A 
ATOM     25  C   UNL     1       1.274   1.641  23.671  0.00  0.00    +0.124 A 
ATOM     26  C   UNL     1       1.945  -0.570  22.218  0.00  0.00    +0.044 A 
ATOM     27  C   UNL     1       2.891   0.279  22.771  0.00  0.00    +0.125 A 
BRANCH  27  10
ATOM      5  O   UNL     1       5.183   0.110  24.713  0.00  0.00    -0.273 OA
ATOM     10  N   UNL     1       4.239  -0.034  22.560  0.00  0.00    -0.268 N 
ATOM     28  C   UNL     1       5.266  -0.098  23.506  0.00  0.00    +0.244 C 
ATOM     32  H   UNL     1       4.477  -0.235  21.592  0.00  0.00    +0.156 HD
BRANCH  28  29
ATOM     29  C   UNL     1       6.595  -0.463  22.880  0.00  0.00    +0.255 C 
BRANCH  29   4
ATOM      4  O   UNL     1       7.608   0.329  23.464  0.00  0.00    -0.374 OA
ATOM     30  C   UNL     1       8.909  -0.129  23.111  0.00  0.00    +0.194 C 
ENDBRANCH  29   4
ENDBRANCH  28  29
ENDBRANCH  27  10
ENDBRANCH  19  22
BRANCH  16  11
ATOM      6  N   UNL     1      -4.794   2.759  25.305  0.00  0.00    -0.284 NA
ATOM     11  C   UNL     1      -4.146   1.432  25.269  0.00  0.00    +0.146 C 
ATOM     12  C   UNL     1      -5.259   0.464  24.827  0.00  0.00    +0.030 C 
ATOM     13  C   UNL     1      -6.507   1.325  24.699  0.00  0.00    +0.017 C 
ATOM     14  C   UNL     1      -6.210   2.517  25.585  0.00  0.00    +0.085 C 
BRANCH   6  15
ATOM     15  C   UNL     1      -4.191   3.667  26.271  0.00  0.00    +0.159 C 
BRANCH  15  17
ATOM      2  O   UNL     1      -2.332   4.697  25.085  0.00  0.00    -0.461 OA
ATOM     17  C   UNL     1      -2.710   3.817  26.050  0.00  0.00    +0.119 A 
ATOM     18  C   UNL     1      -1.606   3.237  26.633  0.00  0.00    +0.046 A 
ATOM     20  C   UNL     1      -0.973   4.677  25.052  0.00  0.00    +0.131 A 
ATOM     21  C   UNL     1      -0.479   3.795  25.984  0.00  0.00    +0.047 A 
BRANCH  20  23
ATOM     23  C   UNL     1      -0.335   5.565  24.069  0.00  0.00    +0.230 C 
BRANCH  23   3
ATOM      3  O   UNL     1       0.153   4.805  22.960  0.00  0.00    -0.387 OA
ATOM     31  H   UNL     1      -0.246   3.922  23.024  0.00  0.00    +0.210 HD
ENDBRANCH  23   3
ENDBRANCH  20  23
ENDBRANCH  15  17
ENDBRANCH   6  15
ENDBRANCH  16  11
TORSDOF 9
ENDMDL
