MODEL 1
REMARK VINA RESULT:       3.2      0.000      0.000
REMARK  Name = 11885135
REMARK  5 active torsions:
REMARK  status: ('A' for Active; 'I' for Inactive)
REMARK    1  A    between atoms: S_1  and  N_6
REMARK    2  A    between atoms: S_1  and  C_19
REMARK    3  A    between atoms: O_5  and  C_30
REMARK    4  A    between atoms: O_5  and  C_31
REMARK    5  A    between atoms: C_17  and  C_20
REMARK                            x       y       z     vdW  Elec       q    Type
REMARK                         _______ _______ _______ _____ _____    ______ ____
ROOT
ATOM      4  O   UNL     1       0.286   2.206  25.807  0.00  0.00    -0.267 OA
ATOM      6  N   UNL     1      -4.658   2.390  25.195  0.00  0.00    -0.176 NA
ATOM      7  N   UNL     1      -1.601   3.031  24.713  0.00  0.00    -0.311 N 
ATOM      8  C   UNL     1      -3.391   4.420  25.909  0.00  0.00    +0.025 C 
ATOM      9  C   UNL     1      -3.635   3.914  23.517  0.00  0.00    +0.052 C 
ATOM     10  C   UNL     1      -3.617   5.048  24.539  0.00  0.00    +0.017 C 
ATOM     11  C   UNL     1      -4.526   3.439  26.246  0.00  0.00    +0.114 C 
ATOM     12  C   UNL     1      -4.807   2.963  23.823  0.00  0.00    +0.119 C 
ATOM     13  C   UNL     1      -2.012   3.750  25.927  0.00  0.00    +0.130 C 
ATOM     14  C   UNL     1      -2.322   3.152  23.523  0.00  0.00    +0.026 A 
ATOM     15  C   UNL     1      -1.865   2.581  22.398  0.00  0.00    +0.022 A 
ATOM     16  C   UNL     1      -0.396   2.306  24.785  0.00  0.00    +0.259 A 
ATOM     17  C   UNL     1       0.073   1.647  23.516  0.00  0.00    +0.047 A 
ATOM     18  C   UNL     1      -0.653   1.813  22.400  0.00  0.00    +0.015 A 
ENDROOT
BRANCH  17  20
ATOM     20  C   UNL     1       1.296   0.826  23.488  0.00  0.00    -0.012 A 
ATOM     23  C   UNL     1       1.229  -0.538  23.772  0.00  0.00    +0.012 A 
ATOM     24  C   UNL     1       2.523   1.412  23.178  0.00  0.00    +0.012 A 
ATOM     28  C   UNL     1       2.388  -1.315  23.746  0.00  0.00    +0.046 A 
ATOM     29  C   UNL     1       3.682   0.636  23.151  0.00  0.00    +0.046 A 
ATOM     30  C   UNL     1       3.614  -0.727  23.436  0.00  0.00    +0.120 A 
BRANCH  30   5
ATOM      5  O   UNL     1       4.744  -1.485  23.411  0.00  0.00    -0.495 OA
ATOM     31  C   UNL     1       5.908  -0.937  24.029  0.00  0.00    +0.277 C 
ENDBRANCH  30   5
ENDBRANCH  17  20
BRANCH   6   1
ATOM      1  S   UNL     1      -5.707   1.092  25.571  0.00  0.00    +0.061 S 
ATOM      2  O   UNL     1      -6.793   1.068  24.614  0.00  0.00    -0.153 OA
ATOM      3  O   UNL     1      -5.969   1.095  26.996  0.00  0.00    -0.153 OA
BRANCH   1  19
ATOM     19  C   UNL     1      -4.646  -0.275  25.217  0.00  0.00    +0.105 A 
ATOM     21  C   UNL     1      -3.618  -0.580  26.094  0.00  0.00    +0.028 A 
ATOM     22  C   UNL     1      -4.860  -1.018  24.069  0.00  0.00    +0.028 A 
ATOM     25  C   UNL     1      -2.780  -1.659  25.814  0.00  0.00    +0.002 A 
ATOM     26  C   UNL     1      -4.021  -2.098  23.788  0.00  0.00    +0.002 A 
ATOM     27  C   UNL     1      -2.981  -2.417  24.661  0.00  0.00    +0.000 A 
ENDBRANCH   1  19
ENDBRANCH   6   1
TORSDOF 4
ENDMDL
MODEL 2
REMARK VINA RESULT:       5.5      1.821      4.187
REMARK  Name = 11885135
REMARK  5 active torsions:
REMARK  status: ('A' for Active; 'I' for Inactive)
REMARK    1  A    between atoms: S_1  and  N_6
REMARK    2  A    between atoms: S_1  and  C_19
REMARK    3  A    between atoms: O_5  and  C_30
REMARK    4  A    between atoms: O_5  and  C_31
REMARK    5  A    between atoms: C_17  and  C_20
REMARK                            x       y       z     vdW  Elec       q    Type
REMARK                         _______ _______ _______ _____ _____    ______ ____
ROOT
ATOM      4  O   UNL     1      -0.562   0.167  22.087  0.00  0.00    -0.267 OA
ATOM      6  N   UNL     1      -4.220   1.551  25.178  0.00  0.00    -0.176 NA
ATOM      7  N   UNL     1      -2.115  -0.328  23.755  0.00  0.00    -0.311 N 
ATOM      8  C   UNL     1      -4.643  -0.136  23.387  0.00  0.00    +0.025 C 
ATOM      9  C   UNL     1      -3.779  -0.865  25.568  0.00  0.00    +0.052 C 
ATOM     10  C   UNL     1      -4.736  -1.235  24.438  0.00  0.00    +0.017 C 
ATOM     11  C   UNL     1      -5.051   1.220  23.986  0.00  0.00    +0.114 C 
ATOM     12  C   UNL     1      -4.223   0.465  26.204  0.00  0.00    +0.119 C 
ATOM     13  C   UNL     1      -3.222  -0.119  22.811  0.00  0.00    +0.130 C 
ATOM     14  C   UNL     1      -2.352  -0.758  25.062  0.00  0.00    +0.026 A 
ATOM     15  C   UNL     1      -1.323  -1.054  25.871  0.00  0.00    +0.022 A 
ATOM     16  C   UNL     1      -0.811  -0.176  23.244  0.00  0.00    +0.259 A 
ATOM     17  C   UNL     1       0.323  -0.481  24.185  0.00  0.00    +0.047 A 
ATOM     18  C   UNL     1       0.033  -0.906  25.424  0.00  0.00    +0.015 A 
ENDROOT
BRANCH  17  20
ATOM     20  C   UNL     1       1.726  -0.312  23.771  0.00  0.00    -0.012 A 
ATOM     23  C   UNL     1       2.630  -1.364  23.917  0.00  0.00    +0.012 A 
ATOM     24  C   UNL     1       2.153   0.902  23.230  0.00  0.00    +0.012 A 
ATOM     28  C   UNL     1       3.959  -1.203  23.524  0.00  0.00    +0.046 A 
ATOM     29  C   UNL     1       3.481   1.063  22.837  0.00  0.00    +0.046 A 
ATOM     30  C   UNL     1       4.384   0.011  22.985  0.00  0.00    +0.120 A 
BRANCH  30   5
ATOM      5  O   UNL     1       5.681   0.168  22.602  0.00  0.00    -0.495 OA
ATOM     31  C   UNL     1       6.686  -0.261  23.521  0.00  0.00    +0.277 C 
ENDBRANCH  30   5
ENDBRANCH  17  20
BRANCH   6   1
ATOM      1  S   UNL     1      -4.395   3.141  25.784  0.00  0.00    +0.061 S 
ATOM      2  O   UNL     1      -4.491   3.090  27.228  0.00  0.00    -0.153 OA
ATOM      3  O   UNL     1      -5.390   3.840  24.996  0.00  0.00    -0.153 OA
BRANCH   1  19
ATOM     19  C   UNL     1      -2.811   3.806  25.372  0.00  0.00    +0.105 A 
ATOM     21  C   UNL     1      -1.772   2.941  25.070  0.00  0.00    +0.028 A 
ATOM     22  C   UNL     1      -2.636   5.179  25.359  0.00  0.00    +0.028 A 
ATOM     25  C   UNL     1      -0.521   3.466  24.746  0.00  0.00    +0.002 A 
ATOM     26  C   UNL     1      -1.384   5.704  25.035  0.00  0.00    +0.002 A 
ATOM     27  C   UNL     1      -0.327   4.847  24.729  0.00  0.00    +0.000 A 
ENDBRANCH   1  19
ENDBRANCH   6   1
TORSDOF 4
ENDMDL
