MODEL 1
REMARK VINA RESULT:       3.7      0.000      0.000
REMARK  Name = 11943270
REMARK  6 active torsions:
REMARK  status: ('A' for Active; 'I' for Inactive)
REMARK    1  A    between atoms: O_6  and  C_29
REMARK    2  A    between atoms: N_7  and  C_16
REMARK    3  A    between atoms: C_16  and  C_21
REMARK    4  A    between atoms: C_19  and  C_22
REMARK    5  A    between atoms: C_24  and  C_29
REMARK    6  A    between atoms: C_28  and  C_32
REMARK                            x       y       z     vdW  Elec       q    Type
REMARK                         _______ _______ _______ _____ _____    ______ ____
ROOT
ATOM      4  O   UNL     1      -0.227  -1.947  22.322  0.00  0.00    -0.267 OA
ATOM      7  N   UNL     1      -4.419  -0.208  24.455  0.00  0.00    -0.294 NA
ATOM      8  N   UNL     1      -1.559  -1.597  24.205  0.00  0.00    -0.311 N 
ATOM      9  C   UNL     1      -3.877  -2.656  24.477  0.00  0.00    +0.024 C 
ATOM     10  C   UNL     1      -2.987  -1.210  26.241  0.00  0.00    +0.050 C 
ATOM     11  C   UNL     1      -3.568  -2.594  25.967  0.00  0.00    +0.017 C 
ATOM     12  C   UNL     1      -4.889  -1.553  24.101  0.00  0.00    +0.090 C 
ATOM     13  C   UNL     1      -4.030  -0.131  25.871  0.00  0.00    +0.094 C 
ATOM     14  C   UNL     1      -2.563  -2.541  23.693  0.00  0.00    +0.130 C 
ATOM     15  C   UNL     1      -1.705  -0.998  25.458  0.00  0.00    +0.026 A 
ATOM     17  C   UNL     1      -0.724  -0.227  25.955  0.00  0.00    +0.022 A 
ATOM     18  C   UNL     1      -0.407  -1.409  23.417  0.00  0.00    +0.259 A 
ATOM     19  C   UNL     1       0.661  -0.512  23.985  0.00  0.00    +0.047 A 
ATOM     20  C   UNL     1       0.472   0.022  25.201  0.00  0.00    +0.015 A 
ENDROOT
BRANCH  19  22
ATOM     22  C   UNL     1       1.889  -0.213  23.227  0.00  0.00    -0.012 A 
ATOM     26  C   UNL     1       3.126  -0.212  23.873  0.00  0.00    +0.021 A 
ATOM     27  C   UNL     1       1.816   0.068  21.862  0.00  0.00    +0.009 A 
ATOM     28  C   UNL     1       4.288   0.069  23.155  0.00  0.00    +0.055 A 
ATOM     30  C   UNL     1       2.979   0.350  21.145  0.00  0.00    +0.001 A 
ATOM     31  C   UNL     1       4.214   0.351  21.791  0.00  0.00    +0.012 A 
BRANCH  28  32
ATOM      1  F   UNL     1       5.690  -0.828  24.872  0.00  0.00    -0.166 F 
ATOM      2  F   UNL     1       6.658  -0.235  23.024  0.00  0.00    -0.166 F 
ATOM      3  F   UNL     1       5.915   1.281  24.396  0.00  0.00    -0.166 F 
ATOM     32  C   UNL     1       5.610   0.070  23.846  0.00  0.00    +0.417 C 
ENDBRANCH  28  32
ENDBRANCH  19  22
BRANCH   7  16
ATOM     16  C   UNL     1      -5.426   0.801  24.133  0.00  0.00    +0.158 C 
BRANCH  16  21
ATOM      5  O   UNL     1      -3.776   2.500  24.532  0.00  0.00    -0.461 OA
ATOM     21  C   UNL     1      -5.056   2.138  24.714  0.00  0.00    +0.119 A 
ATOM     23  C   UNL     1      -5.774   3.060  25.394  0.00  0.00    +0.046 A 
ATOM     24  C   UNL     1      -3.660   3.718  25.124  0.00  0.00    +0.131 A 
ATOM     25  C   UNL     1      -4.862   4.107  25.668  0.00  0.00    +0.047 A 
BRANCH  24  29
ATOM     29  C   UNL     1      -2.333   4.347  25.066  0.00  0.00    +0.230 C 
BRANCH  29   6
ATOM      6  O   UNL     1      -1.410   3.500  25.755  0.00  0.00    -0.387 OA
ATOM     33  H   UNL     1      -1.480   2.618  25.353  0.00  0.00    +0.210 HD
ENDBRANCH  29   6
ENDBRANCH  24  29
ENDBRANCH  16  21
ENDBRANCH   7  16
TORSDOF 6
ENDMDL
MODEL 2
REMARK VINA RESULT:       5.5      4.134      6.325
REMARK  Name = 11943270
REMARK  6 active torsions:
REMARK  status: ('A' for Active; 'I' for Inactive)
REMARK    1  A    between atoms: O_6  and  C_29
REMARK    2  A    between atoms: N_7  and  C_16
REMARK    3  A    between atoms: C_16  and  C_21
REMARK    4  A    between atoms: C_19  and  C_22
REMARK    5  A    between atoms: C_24  and  C_29
REMARK    6  A    between atoms: C_28  and  C_32
REMARK                            x       y       z     vdW  Elec       q    Type
REMARK                         _______ _______ _______ _____ _____    ______ ____
ROOT
ATOM      4  O   UNL     1      -1.931   3.649  27.703  0.00  0.00    -0.267 OA
ATOM      7  N   UNL     1      -4.306   0.902  24.245  0.00  0.00    -0.294 NA
ATOM      8  N   UNL     1      -2.333   3.085  25.476  0.00  0.00    -0.311 N 
ATOM      9  C   UNL     1      -4.622   3.386  24.364  0.00  0.00    +0.024 C 
ATOM     10  C   UNL     1      -2.754   2.470  23.072  0.00  0.00    +0.050 C 
ATOM     11  C   UNL     1      -3.813   3.570  23.087  0.00  0.00    +0.017 C 
ATOM     12  C   UNL     1      -5.282   1.992  24.375  0.00  0.00    +0.090 C 
ATOM     13  C   UNL     1      -3.447   1.089  23.066  0.00  0.00    +0.094 C 
ATOM     14  C   UNL     1      -3.702   3.613  25.570  0.00  0.00    +0.130 C 
ATOM     15  C   UNL     1      -1.830   2.595  24.269  0.00  0.00    +0.026 A 
ATOM     17  C   UNL     1      -0.544   2.223  24.176  0.00  0.00    +0.022 A 
ATOM     18  C   UNL     1      -1.532   3.192  26.630  0.00  0.00    +0.259 A 
ATOM     19  C   UNL     1      -0.103   2.733  26.506  0.00  0.00    +0.047 A 
ATOM     20  C   UNL     1       0.327   2.288  25.316  0.00  0.00    +0.015 A 
ENDROOT
BRANCH  19  22
ATOM     22  C   UNL     1       0.810   2.761  27.661  0.00  0.00    -0.012 A 
ATOM     26  C   UNL     1       0.300   2.666  28.957  0.00  0.00    +0.021 A 
ATOM     27  C   UNL     1       2.186   2.879  27.461  0.00  0.00    +0.009 A 
ATOM     28  C   UNL     1       1.166   2.690  30.051  0.00  0.00    +0.055 A 
ATOM     30  C   UNL     1       3.051   2.904  28.556  0.00  0.00    +0.001 A 
ATOM     31  C   UNL     1       2.541   2.810  29.850  0.00  0.00    +0.012 A 
BRANCH  28  32
ATOM      1  F   UNL     1      -0.684   2.185  31.481  0.00  0.00    -0.166 F 
ATOM      2  F   UNL     1       1.294   1.700  32.226  0.00  0.00    -0.166 F 
ATOM      3  F   UNL     1       0.658   3.777  32.104  0.00  0.00    -0.166 F 
ATOM     32  C   UNL     1       0.620   2.588  31.436  0.00  0.00    +0.417 C 
ENDBRANCH  28  32
ENDBRANCH  19  22
BRANCH   7  16
ATOM     16  C   UNL     1      -4.973  -0.397  24.206  0.00  0.00    +0.158 C 
BRANCH  16  21
ATOM      5  O   UNL     1      -2.754  -1.155  24.729  0.00  0.00    -0.461 OA
ATOM     21  C   UNL     1      -3.977  -1.520  24.311  0.00  0.00    +0.119 A 
ATOM     23  C   UNL     1      -4.076  -2.845  24.062  0.00  0.00    +0.046 A 
ATOM     24  C   UNL     1      -2.025  -2.302  24.752  0.00  0.00    +0.131 A 
ATOM     25  C   UNL     1      -2.794  -3.369  24.351  0.00  0.00    +0.047 A 
BRANCH  24  29
ATOM     29  C   UNL     1      -0.626  -2.175  25.183  0.00  0.00    +0.230 C 
BRANCH  29   6
ATOM      6  O   UNL     1      -0.479  -0.920  25.849  0.00  0.00    -0.387 OA
ATOM     33  H   UNL     1      -0.873  -0.245  25.272  0.00  0.00    +0.210 HD
ENDBRANCH  29   6
ENDBRANCH  24  29
ENDBRANCH  16  21
ENDBRANCH   7  16
TORSDOF 6
ENDMDL
