MODEL 1
REMARK VINA RESULT:       0.5      0.000      0.000
REMARK  Name = 11884022
REMARK  9 active torsions:
REMARK  status: ('A' for Active; 'I' for Inactive)
REMARK    1  A    between atoms: O_3  and  C_13
REMARK    2  A    between atoms: O_3  and  C_17
REMARK    3  A    between atoms: O_5  and  C_18
REMARK    4  A    between atoms: O_5  and  C_20
REMARK    5  A    between atoms: O_7  and  C_27
REMARK    6  A    between atoms: O_7  and  C_31
REMARK    7  A    between atoms: N_8  and  C_12
REMARK    8  A    between atoms: N_9  and  C_19
REMARK    9  A    between atoms: C_16  and  C_18
REMARK                            x       y       z     vdW  Elec       q    Type
REMARK                         _______ _______ _______ _____ _____    ______ ____
ROOT
ATOM      1  O   UNL     1      -3.794   2.308  26.173  0.00  0.00    -0.368 OA
ATOM      2  O   UNL     1      -6.248   3.792  25.086  0.00  0.00    -0.368 OA
ATOM     10  C   UNL     1      -5.601   2.574  24.661  0.00  0.00    +0.173 C 
ATOM     11  C   UNL     1      -4.111   2.778  24.852  0.00  0.00    +0.192 C 
ATOM     12  C   UNL     1      -5.937   1.448  25.610  0.00  0.00    +0.130 C 
ATOM     13  C   UNL     1      -3.971   4.278  24.744  0.00  0.00    +0.235 C 
ATOM     14  C   UNL     1      -4.951   1.676  26.742  0.00  0.00    +0.185 C 
ATOM     15  C   UNL     1      -5.242   4.766  25.399  0.00  0.00    +0.207 C 
ENDROOT
BRANCH  12   8
ATOM      4  O   UNL     1      -3.913   0.734  23.662  0.00  0.00    -0.272 OA
ATOM      8  N   UNL     1      -5.737   0.163  24.989  0.00  0.00    -0.305 N 
ATOM     16  C   UNL     1      -4.735  -0.086  24.061  0.00  0.00    +0.251 C 
ATOM     37  H   UNL     1      -6.329  -0.609  25.286  0.00  0.00    +0.149 HD
BRANCH  16  18
ATOM     18  C   UNL     1      -4.760  -1.521  23.578  0.00  0.00    +0.324 C 
BRANCH  18   5
ATOM      5  O   UNL     1      -4.163  -2.378  24.529  0.00  0.00    -0.483 OA
BRANCH   5  20
ATOM     20  C   UNL     1      -2.878  -2.087  24.918  0.00  0.00    +0.121 A 
ATOM     25  C   UNL     1      -2.660  -1.131  25.901  0.00  0.00    +0.045 A 
ATOM     26  C   UNL     1      -1.816  -2.753  24.322  0.00  0.00    +0.045 A 
ATOM     28  C   UNL     1      -1.356  -0.836  26.296  0.00  0.00    +0.004 A 
ATOM     29  C   UNL     1      -0.511  -2.458  24.717  0.00  0.00    +0.004 A 
ATOM     30  C   UNL     1      -0.281  -1.500  25.704  0.00  0.00    +0.000 A 
ENDBRANCH   5  20
ENDBRANCH  18   5
ENDBRANCH  16  18
ENDBRANCH  12   8
BRANCH  13   3
ATOM      3  O   UNL     1      -2.818   4.782  25.378  0.00  0.00    -0.442 OA
BRANCH   3  17
ATOM      6  O   UNL     1      -0.571   4.943  24.986  0.00  0.00    -0.226 OA
ATOM      9  N   UNL     1      -1.763   2.984  24.514  0.00  0.00    -0.251 N 
ATOM     17  C   UNL     1      -1.603   4.285  24.953  0.00  0.00    +0.405 C 
ATOM     38  H   UNL     1      -2.707   2.607  24.565  0.00  0.00    +0.158 HD
BRANCH   9  19
ATOM     19  C   UNL     1      -0.778   2.112  23.999  0.00  0.00    +0.037 A 
ATOM     21  C   UNL     1      -1.148   1.133  23.091  0.00  0.00    +0.027 A 
ATOM     22  C   UNL     1       0.537   2.252  24.410  0.00  0.00    +0.027 A 
ATOM     23  C   UNL     1      -0.178   0.271  22.581  0.00  0.00    +0.048 A 
ATOM     24  C   UNL     1       1.508   1.390  23.900  0.00  0.00    +0.048 A 
ATOM     27  C   UNL     1       1.151   0.400  22.985  0.00  0.00    +0.129 A 
BRANCH  27   7
ATOM      7  O   UNL     1       2.099  -0.441  22.489  0.00  0.00    -0.456 OA
BRANCH   7  31
ATOM     31  C   UNL     1       3.377  -0.351  23.016  0.00  0.00    +0.128 A 
ATOM     32  C   UNL     1       3.907  -1.438  23.687  0.00  0.00    +0.046 A 
ATOM     33  C   UNL     1       4.090   0.823  22.858  0.00  0.00    +0.046 A 
ATOM     34  C   UNL     1       5.193  -1.348  24.218  0.00  0.00    +0.004 A 
ATOM     35  C   UNL     1       5.377   0.914  23.389  0.00  0.00    +0.004 A 
ATOM     36  C   UNL     1       5.929  -0.171  24.069  0.00  0.00    +0.000 A 
ENDBRANCH   7  31
ENDBRANCH  27   7
ENDBRANCH   9  19
ENDBRANCH   3  17
ENDBRANCH  13   3
TORSDOF 9
ENDMDL
MODEL 2
REMARK VINA RESULT:       2.2      2.307      4.467
REMARK  Name = 11884022
REMARK  9 active torsions:
REMARK  status: ('A' for Active; 'I' for Inactive)
REMARK    1  A    between atoms: O_3  and  C_13
REMARK    2  A    between atoms: O_3  and  C_17
REMARK    3  A    between atoms: O_5  and  C_18
REMARK    4  A    between atoms: O_5  and  C_20
REMARK    5  A    between atoms: O_7  and  C_27
REMARK    6  A    between atoms: O_7  and  C_31
REMARK    7  A    between atoms: N_8  and  C_12
REMARK    8  A    between atoms: N_9  and  C_19
REMARK    9  A    between atoms: C_16  and  C_18
REMARK                            x       y       z     vdW  Elec       q    Type
REMARK                         _______ _______ _______ _____ _____    ______ ____
ROOT
ATOM      1  O   UNL     1      -3.661   2.028  23.882  0.00  0.00    -0.368 OA
ATOM      2  O   UNL     1      -5.781   3.175  25.777  0.00  0.00    -0.368 OA
ATOM     10  C   UNL     1      -4.359   2.987  25.935  0.00  0.00    +0.173 C 
ATOM     11  C   UNL     1      -4.008   1.690  25.235  0.00  0.00    +0.192 C 
ATOM     12  C   UNL     1      -3.607   4.037  25.152  0.00  0.00    +0.130 C 
ATOM     13  C   UNL     1      -5.305   0.919  25.304  0.00  0.00    +0.235 C 
ATOM     14  C   UNL     1      -3.613   3.458  23.748  0.00  0.00    +0.185 C 
ATOM     15  C   UNL     1      -6.335   2.013  25.142  0.00  0.00    +0.207 C 
ENDROOT
BRANCH  12   8
ATOM      4  O   UNL     1      -1.157   3.088  23.929  0.00  0.00    -0.272 OA
ATOM      8  N   UNL     1      -2.263   4.197  25.649  0.00  0.00    -0.305 N 
ATOM     16  C   UNL     1      -1.145   3.705  24.991  0.00  0.00    +0.251 C 
ATOM     37  H   UNL     1      -2.129   4.741  26.498  0.00  0.00    +0.149 HD
BRANCH  16  18
ATOM     18  C   UNL     1       0.133   4.020  25.739  0.00  0.00    +0.324 C 
BRANCH  18   5
ATOM      5  O   UNL     1       0.775   2.832  26.152  0.00  0.00    -0.483 OA
BRANCH   5  20
ATOM     20  C   UNL     1       1.148   2.746  27.472  0.00  0.00    +0.121 A 
ATOM     25  C   UNL     1       0.201   2.410  28.430  0.00  0.00    +0.045 A 
ATOM     26  C   UNL     1       2.466   2.995  27.828  0.00  0.00    +0.045 A 
ATOM     28  C   UNL     1       0.579   2.322  29.769  0.00  0.00    +0.004 A 
ATOM     29  C   UNL     1       2.845   2.907  29.168  0.00  0.00    +0.004 A 
ATOM     30  C   UNL     1       1.902   2.571  30.138  0.00  0.00    +0.000 A 
ENDBRANCH   5  20
ENDBRANCH  18   5
ENDBRANCH  16  18
ENDBRANCH  12   8
BRANCH  13   3
ATOM      3  O   UNL     1      -5.423  -0.073  24.311  0.00  0.00    -0.442 OA
BRANCH   3  17
ATOM      6  O   UNL     1      -4.399  -2.009  23.654  0.00  0.00    -0.226 OA
ATOM      9  N   UNL     1      -3.171  -0.169  24.417  0.00  0.00    -0.251 N 
ATOM     17  C   UNL     1      -4.317  -0.866  24.085  0.00  0.00    +0.405 C 
ATOM     38  H   UNL     1      -3.308   0.780  24.762  0.00  0.00    +0.158 HD
BRANCH   9  19
ATOM     19  C   UNL     1      -1.830  -0.608  24.338  0.00  0.00    +0.037 A 
ATOM     21  C   UNL     1      -0.985  -0.038  23.400  0.00  0.00    +0.027 A 
ATOM     22  C   UNL     1      -1.387  -1.597  25.200  0.00  0.00    +0.027 A 
ATOM     23  C   UNL     1       0.339  -0.469  23.321  0.00  0.00    +0.048 A 
ATOM     24  C   UNL     1      -0.063  -2.029  25.121  0.00  0.00    +0.048 A 
ATOM     27  C   UNL     1       0.801  -1.464  24.182  0.00  0.00    +0.129 A 
BRANCH  27   7
ATOM      7  O   UNL     1       2.092  -1.887  24.106  0.00  0.00    -0.456 OA
BRANCH   7  31
ATOM     31  C   UNL     1       3.045  -0.971  23.692  0.00  0.00    +0.128 A 
ATOM     32  C   UNL     1       4.376  -1.205  23.985  0.00  0.00    +0.046 A 
ATOM     33  C   UNL     1       2.641   0.154  22.996  0.00  0.00    +0.046 A 
ATOM     34  C   UNL     1       5.336  -0.283  23.568  0.00  0.00    +0.004 A 
ATOM     35  C   UNL     1       3.601   1.077  22.579  0.00  0.00    +0.004 A 
ATOM     36  C   UNL     1       4.949   0.859  22.865  0.00  0.00    +0.000 A 
ENDBRANCH   7  31
ENDBRANCH  27   7
ENDBRANCH   9  19
ENDBRANCH   3  17
ENDBRANCH  13   3
TORSDOF 9
ENDMDL
MODEL 3
REMARK VINA RESULT:       2.9      1.530      4.181
REMARK  Name = 11884022
REMARK  9 active torsions:
REMARK  status: ('A' for Active; 'I' for Inactive)
REMARK    1  A    between atoms: O_3  and  C_13
REMARK    2  A    between atoms: O_3  and  C_17
REMARK    3  A    between atoms: O_5  and  C_18
REMARK    4  A    between atoms: O_5  and  C_20
REMARK    5  A    between atoms: O_7  and  C_27
REMARK    6  A    between atoms: O_7  and  C_31
REMARK    7  A    between atoms: N_8  and  C_12
REMARK    8  A    between atoms: N_9  and  C_19
REMARK    9  A    between atoms: C_16  and  C_18
REMARK                            x       y       z     vdW  Elec       q    Type
REMARK                         _______ _______ _______ _____ _____    ______ ____
ROOT
ATOM      1  O   UNL     1      -5.176   1.605  24.324  0.00  0.00    -0.368 OA
ATOM      2  O   UNL     1      -6.234   2.177  27.145  0.00  0.00    -0.368 OA
ATOM     10  C   UNL     1      -5.123   2.732  26.409  0.00  0.00    +0.173 C 
ATOM     11  C   UNL     1      -4.521   1.600  25.603  0.00  0.00    +0.192 C 
ATOM     12  C   UNL     1      -5.626   3.696  25.360  0.00  0.00    +0.130 C 
ATOM     13  C   UNL     1      -4.893   0.384  26.417  0.00  0.00    +0.235 C 
ATOM     14  C   UNL     1      -6.019   2.764  24.228  0.00  0.00    +0.185 C 
ATOM     15  C   UNL     1      -6.262   0.757  26.939  0.00  0.00    +0.207 C 
ENDROOT
BRANCH  12   8
ATOM      4  O   UNL     1      -3.848   3.436  23.086  0.00  0.00    -0.272 OA
ATOM      8  N   UNL     1      -4.590   4.612  24.952  0.00  0.00    -0.305 N 
ATOM     16  C   UNL     1      -3.784   4.402  23.842  0.00  0.00    +0.251 C 
ATOM     37  H   UNL     1      -4.483   5.477  25.476  0.00  0.00    +0.149 HD
BRANCH  16  18
ATOM     18  C   UNL     1      -2.786   5.525  23.651  0.00  0.00    +0.324 C 
BRANCH  18   5
ATOM      5  O   UNL     1      -1.924   5.621  24.766  0.00  0.00    -0.483 OA
BRANCH   5  20
ATOM     20  C   UNL     1      -1.224   4.491  25.118  0.00  0.00    +0.121 A 
ATOM     25  C   UNL     1      -0.123   4.106  24.366  0.00  0.00    +0.045 A 
ATOM     26  C   UNL     1      -1.630   3.752  26.221  0.00  0.00    +0.045 A 
ATOM     28  C   UNL     1       0.587   2.961  24.724  0.00  0.00    +0.004 A 
ATOM     29  C   UNL     1      -0.920   2.606  26.579  0.00  0.00    +0.004 A 
ATOM     30  C   UNL     1       0.189   2.210  25.830  0.00  0.00    +0.000 A 
ENDBRANCH   5  20
ENDBRANCH  18   5
ENDBRANCH  16  18
ENDBRANCH  12   8
BRANCH  13   3
ATOM      3  O   UNL     1      -4.917  -0.809  25.669  0.00  0.00    -0.442 OA
BRANCH   3  17
ATOM      6  O   UNL     1      -4.273  -1.451  23.571  0.00  0.00    -0.226 OA
ATOM      9  N   UNL     1      -2.803  -0.353  25.024  0.00  0.00    -0.251 N 
ATOM     17  C   UNL     1      -4.004  -0.920  24.641  0.00  0.00    +0.405 C 
ATOM     38  H   UNL     1      -2.773   0.041  25.962  0.00  0.00    +0.158 HD
BRANCH   9  19
ATOM     19  C   UNL     1      -1.608  -0.254  24.276  0.00  0.00    +0.037 A 
ATOM     21  C   UNL     1      -0.545  -1.087  24.584  0.00  0.00    +0.027 A 
ATOM     22  C   UNL     1      -1.524   0.673  23.250  0.00  0.00    +0.027 A 
ATOM     23  C   UNL     1       0.635  -0.991  23.847  0.00  0.00    +0.048 A 
ATOM     24  C   UNL     1      -0.344   0.769  22.511  0.00  0.00    +0.048 A 
ATOM     27  C   UNL     1       0.736  -0.064  22.810  0.00  0.00    +0.129 A 
BRANCH  27   7
ATOM      7  O   UNL     1       1.886   0.032  22.090  0.00  0.00    -0.456 OA
BRANCH   7  31
ATOM     31  C   UNL     1       3.085  -0.102  22.771  0.00  0.00    +0.128 A 
ATOM     32  C   UNL     1       3.928   0.990  22.872  0.00  0.00    +0.046 A 
ATOM     33  C   UNL     1       3.407  -1.324  23.332  0.00  0.00    +0.046 A 
ATOM     34  C   UNL     1       5.134   0.856  23.558  0.00  0.00    +0.004 A 
ATOM     35  C   UNL     1       4.615  -1.459  24.019  0.00  0.00    +0.004 A 
ATOM     36  C   UNL     1       5.479  -0.369  24.131  0.00  0.00    +0.000 A 
ENDBRANCH   7  31
ENDBRANCH  27   7
ENDBRANCH   9  19
ENDBRANCH   3  17
ENDBRANCH  13   3
TORSDOF 9
ENDMDL
MODEL 4
REMARK VINA RESULT:       3.4      1.555      4.184
REMARK  Name = 11884022
REMARK  9 active torsions:
REMARK  status: ('A' for Active; 'I' for Inactive)
REMARK    1  A    between atoms: O_3  and  C_13
REMARK    2  A    between atoms: O_3  and  C_17
REMARK    3  A    between atoms: O_5  and  C_18
REMARK    4  A    between atoms: O_5  and  C_20
REMARK    5  A    between atoms: O_7  and  C_27
REMARK    6  A    between atoms: O_7  and  C_31
REMARK    7  A    between atoms: N_8  and  C_12
REMARK    8  A    between atoms: N_9  and  C_19
REMARK    9  A    between atoms: C_16  and  C_18
REMARK                            x       y       z     vdW  Elec       q    Type
REMARK                         _______ _______ _______ _____ _____    ______ ____
ROOT
ATOM      1  O   UNL     1      -3.139   1.171  24.111  0.00  0.00    -0.368 OA
ATOM      2  O   UNL     1      -6.142   1.580  24.579  0.00  0.00    -0.368 OA
ATOM     10  C   UNL     1      -4.996   2.352  24.995  0.00  0.00    +0.173 C 
ATOM     11  C   UNL     1      -3.894   1.362  25.318  0.00  0.00    +0.192 C 
ATOM     12  C   UNL     1      -4.447   3.136  23.826  0.00  0.00    +0.130 C 
ATOM     13  C   UNL     1      -4.669   0.123  25.696  0.00  0.00    +0.235 C 
ATOM     14  C   UNL     1      -3.596   2.099  23.114  0.00  0.00    +0.185 C 
ATOM     15  C   UNL     1      -5.851   0.186  24.755  0.00  0.00    +0.207 C 
ENDROOT
BRANCH  12   8
ATOM      4  O   UNL     1      -4.140   4.100  26.542  0.00  0.00    -0.272 OA
ATOM      8  N   UNL     1      -3.651   4.252  24.273  0.00  0.00    -0.305 N 
ATOM     16  C   UNL     1      -3.565   4.642  25.601  0.00  0.00    +0.251 C 
ATOM     37  H   UNL     1      -3.087   4.742  23.583  0.00  0.00    +0.149 HD
BRANCH  16  18
ATOM     18  C   UNL     1      -2.658   5.841  25.779  0.00  0.00    +0.324 C 
BRANCH  18   5
ATOM      5  O   UNL     1      -1.449   5.662  25.070  0.00  0.00    -0.483 OA
BRANCH   5  20
ATOM     20  C   UNL     1      -0.867   4.418  25.125  0.00  0.00    +0.121 A 
ATOM     25  C   UNL     1      -0.214   3.919  24.006  0.00  0.00    +0.045 A 
ATOM     26  C   UNL     1      -0.941   3.680  26.298  0.00  0.00    +0.045 A 
ATOM     28  C   UNL     1       0.377   2.657  24.062  0.00  0.00    +0.004 A 
ATOM     29  C   UNL     1      -0.349   2.418  26.354  0.00  0.00    +0.004 A 
ATOM     30  C   UNL     1       0.309   1.906  25.236  0.00  0.00    +0.000 A 
ENDBRANCH   5  20
ENDBRANCH  18   5
ENDBRANCH  16  18
ENDBRANCH  12   8
BRANCH  13   3
ATOM      3  O   UNL     1      -3.933  -1.069  25.545  0.00  0.00    -0.442 OA
BRANCH   3  17
ATOM      6  O   UNL     1      -1.819  -0.936  26.407  0.00  0.00    -0.226 OA
ATOM      9  N   UNL     1      -2.213  -0.847  24.102  0.00  0.00    -0.251 N 
ATOM     17  C   UNL     1      -2.563  -0.947  25.434  0.00  0.00    +0.405 C 
ATOM     38  H   UNL     1      -2.981  -0.876  23.433  0.00  0.00    +0.158 HD
BRANCH   9  19
ATOM     19  C   UNL     1      -0.921  -0.708  23.548  0.00  0.00    +0.037 A 
ATOM     21  C   UNL     1       0.181  -1.092  24.296  0.00  0.00    +0.027 A 
ATOM     22  C   UNL     1      -0.780  -0.193  22.270  0.00  0.00    +0.027 A 
ATOM     23  C   UNL     1       1.458  -0.956  23.752  0.00  0.00    +0.048 A 
ATOM     24  C   UNL     1       0.498  -0.058  21.725  0.00  0.00    +0.048 A 
ATOM     27  C   UNL     1       1.617  -0.440  22.466  0.00  0.00    +0.129 A 
BRANCH  27   7
ATOM      7  O   UNL     1       2.861  -0.306  21.934  0.00  0.00    -0.456 OA
BRANCH   7  31
ATOM     31  C   UNL     1       3.936  -0.280  22.808  0.00  0.00    +0.128 A 
ATOM     32  C   UNL     1       4.312  -1.447  23.448  0.00  0.00    +0.046 A 
ATOM     33  C   UNL     1       4.604   0.912  23.019  0.00  0.00    +0.046 A 
ATOM     34  C   UNL     1       5.394  -1.421  24.328  0.00  0.00    +0.004 A 
ATOM     35  C   UNL     1       5.686   0.939  23.899  0.00  0.00    +0.004 A 
ATOM     36  C   UNL     1       6.080  -0.228  24.554  0.00  0.00    +0.000 A 
ENDBRANCH   7  31
ENDBRANCH  27   7
ENDBRANCH   9  19
ENDBRANCH   3  17
ENDBRANCH  13   3
TORSDOF 9
ENDMDL
MODEL 5
REMARK VINA RESULT:       3.5      1.729      4.436
REMARK  Name = 11884022
REMARK  9 active torsions:
REMARK  status: ('A' for Active; 'I' for Inactive)
REMARK    1  A    between atoms: O_3  and  C_13
REMARK    2  A    between atoms: O_3  and  C_17
REMARK    3  A    between atoms: O_5  and  C_18
REMARK    4  A    between atoms: O_5  and  C_20
REMARK    5  A    between atoms: O_7  and  C_27
REMARK    6  A    between atoms: O_7  and  C_31
REMARK    7  A    between atoms: N_8  and  C_12
REMARK    8  A    between atoms: N_9  and  C_19
REMARK    9  A    between atoms: C_16  and  C_18
REMARK                            x       y       z     vdW  Elec       q    Type
REMARK                         _______ _______ _______ _____ _____    ______ ____
ROOT
ATOM      1  O   UNL     1      -2.723   0.423  24.013  0.00  0.00    -0.368 OA
ATOM      2  O   UNL     1      -5.718  -0.219  24.154  0.00  0.00    -0.368 OA
ATOM     10  C   UNL     1      -4.916   0.759  24.848  0.00  0.00    +0.173 C 
ATOM     11  C   UNL     1      -3.576   0.110  25.127  0.00  0.00    +0.192 C 
ATOM     12  C   UNL     1      -4.580   1.905  23.924  0.00  0.00    +0.130 C 
ATOM     13  C   UNL     1      -3.925  -1.358  25.168  0.00  0.00    +0.235 C 
ATOM     14  C   UNL     1      -3.392   1.357  23.151  0.00  0.00    +0.185 C 
ATOM     15  C   UNL     1      -4.999  -1.460  24.109  0.00  0.00    +0.207 C 
ENDROOT
BRANCH  12   8
ATOM      4  O   UNL     1      -5.845   2.922  26.325  0.00  0.00    -0.272 OA
ATOM      8  N   UNL     1      -4.223   3.089  24.666  0.00  0.00    -0.305 N 
ATOM     16  C   UNL     1      -4.891   3.499  25.811  0.00  0.00    +0.251 C 
ATOM     37  H   UNL     1      -3.409   3.617  24.360  0.00  0.00    +0.149 HD
BRANCH  16  18
ATOM     18  C   UNL     1      -4.301   4.772  26.381  0.00  0.00    +0.324 C 
BRANCH  18   5
ATOM      5  O   UNL     1      -3.030   4.524  26.945  0.00  0.00    -0.483 OA
BRANCH   5  20
ATOM     20  C   UNL     1      -2.000   4.252  26.077  0.00  0.00    +0.121 A 
ATOM     25  C   UNL     1      -1.369   3.016  26.130  0.00  0.00    +0.045 A 
ATOM     26  C   UNL     1      -1.606   5.216  25.160  0.00  0.00    +0.045 A 
ATOM     28  C   UNL     1      -0.325   2.740  25.249  0.00  0.00    +0.004 A 
ATOM     29  C   UNL     1      -0.560   4.940  24.278  0.00  0.00    +0.004 A 
ATOM     30  C   UNL     1       0.080   3.702  24.323  0.00  0.00    +0.000 A 
ENDBRANCH   5  20
ENDBRANCH  18   5
ENDBRANCH  16  18
ENDBRANCH  12   8
BRANCH  13   3
ATOM      3  O   UNL     1      -2.832  -2.205  24.900  0.00  0.00    -0.442 OA
BRANCH   3  17
ATOM      6  O   UNL     1      -0.977  -1.418  25.981  0.00  0.00    -0.226 OA
ATOM      9  N   UNL     1      -1.151  -1.370  23.647  0.00  0.00    -0.251 N 
ATOM     17  C   UNL     1      -1.577  -1.634  24.935  0.00  0.00    +0.405 C 
ATOM     38  H   UNL     1      -1.797  -1.622  22.901  0.00  0.00    +0.158 HD
BRANCH   9  19
ATOM     19  C   UNL     1       0.070  -0.790  23.235  0.00  0.00    +0.037 A 
ATOM     21  C   UNL     1       0.584  -1.110  21.988  0.00  0.00    +0.027 A 
ATOM     22  C   UNL     1       0.726   0.087  24.082  0.00  0.00    +0.027 A 
ATOM     23  C   UNL     1       1.789  -0.539  21.579  0.00  0.00    +0.048 A 
ATOM     24  C   UNL     1       1.931   0.659  23.672  0.00  0.00    +0.048 A 
ATOM     27  C   UNL     1       2.462   0.347  22.420  0.00  0.00    +0.129 A 
BRANCH  27   7
ATOM      7  O   UNL     1       3.637   0.905  22.023  0.00  0.00    -0.456 OA
BRANCH   7  31
ATOM     31  C   UNL     1       4.793   0.505  22.674  0.00  0.00    +0.128 A 
ATOM     32  C   UNL     1       5.026   0.946  23.964  0.00  0.00    +0.046 A 
ATOM     33  C   UNL     1       5.683  -0.325  22.018  0.00  0.00    +0.046 A 
ATOM     34  C   UNL     1       6.189   0.543  24.620  0.00  0.00    +0.004 A 
ATOM     35  C   UNL     1       6.847  -0.728  22.674  0.00  0.00    +0.004 A 
ATOM     36  C   UNL     1       7.100  -0.294  23.975  0.00  0.00    +0.000 A 
ENDBRANCH   7  31
ENDBRANCH  27   7
ENDBRANCH   9  19
ENDBRANCH   3  17
ENDBRANCH  13   3
TORSDOF 9
ENDMDL
