MODEL 1
REMARK VINA RESULT:      -0.3      0.000      0.000
REMARK  Name = 26745086
REMARK  9 active torsions:
REMARK  status: ('A' for Active; 'I' for Inactive)
REMARK    1  A    between atoms: O_3  and  C_24
REMARK    2  A    between atoms: C_11  and  C_13
REMARK    3  A    between atoms: C_11  and  C_19
REMARK    4  A    between atoms: C_11  and  C_20
REMARK    5  A    between atoms: C_11  and  C_21
REMARK    6  A    between atoms: C_12  and  C_22
REMARK    7  A    between atoms: C_13  and  C_16
REMARK    8  A    between atoms: C_19  and  C_24
REMARK    9  A    between atoms: C_25  and  C_26
REMARK                            x       y       z     vdW  Elec       q    Type
REMARK                         _______ _______ _______ _____ _____    ______ ____
ROOT
ATOM      1  O   UNL     1      -1.788   3.068  25.882  0.00  0.00    -0.276 OA
ATOM      5  N   UNL     1      -2.367   1.176  24.650  0.00  0.00    -0.284 N 
ATOM      6  N   UNL     1      -4.357  -1.694  23.339  0.00  0.00    -0.347 N 
ATOM      7  N   UNL     1      -3.461  -2.816  25.052  0.00  0.00    -0.240 NA
ATOM     12  C   UNL     1      -1.328   0.320  25.321  0.00  0.00    +0.171 C 
ATOM     14  C   UNL     1      -1.957  -0.973  25.922  0.00  0.00    +0.089 C 
ATOM     15  C   UNL     1      -3.184   0.556  23.570  0.00  0.00    +0.163 C 
ATOM     16  C   UNL     1      -2.453   2.533  24.992  0.00  0.00    +0.217 C 
ATOM     17  C   UNL     1      -3.494  -0.835  23.951  0.00  0.00    +0.056 A 
ATOM     18  C   UNL     1      -2.956  -1.548  24.995  0.00  0.00    +0.066 A 
ATOM     23  C   UNL     1      -4.303  -2.873  24.040  0.00  0.00    +0.197 A 
ATOM     31  H   UNL     1      -4.929  -1.504  22.526  0.00  0.00    +0.167 HD
ENDROOT
BRANCH  12  22
ATOM      2  O   UNL     1      -0.378  -0.096  23.095  0.00  0.00    -0.336 OA
ATOM      8  N   UNL     1       1.157   0.147  24.708  0.00  0.00    -0.190 NA
ATOM      9  N   UNL     1       0.868  -0.239  22.472  0.00  0.00    -0.056 NA
ATOM     22  C   UNL     1      -0.117   0.129  24.410  0.00  0.00    +0.249 A 
ATOM     25  C   UNL     1       1.723  -0.084  23.487  0.00  0.00    +0.202 A 
BRANCH  25  26
ATOM     10  N   UNL     1       5.917  -0.278  22.982  0.00  0.00    -0.263 NA
ATOM     26  C   UNL     1       3.144  -0.150  23.316  0.00  0.00    +0.025 A 
ATOM     27  C   UNL     1       3.819   0.883  22.674  0.00  0.00    +0.031 A 
ATOM     28  C   UNL     1       3.855  -1.246  23.792  0.00  0.00    +0.031 A 
ATOM     29  C   UNL     1       5.193   0.771  22.533  0.00  0.00    +0.111 A 
ATOM     30  C   UNL     1       5.227  -1.262  23.603  0.00  0.00    +0.111 A 
ENDBRANCH  25  26
ENDBRANCH  12  22
BRANCH  16  13
ATOM     13  C   UNL     1      -3.434   3.365  24.203  0.00  0.00    +0.103 C 
BRANCH  13  11
ATOM     11  C   UNL     1      -4.682   3.753  25.020  0.00  0.00    -0.017 C 
ATOM     20  C   UNL     1      -5.119   5.162  24.568  0.00  0.00    +0.012 C 
ATOM     21  C   UNL     1      -4.329   3.834  26.521  0.00  0.00    +0.012 C 
BRANCH  11  19
ATOM     19  C   UNL     1      -5.849   2.750  24.855  0.00  0.00    +0.127 C 
BRANCH  19  24
ATOM      4  O   UNL     1      -5.341   0.644  25.933  0.00  0.00    -0.251 OA
ATOM     24  C   UNL     1      -5.946   1.707  25.946  0.00  0.00    +0.305 C 
BRANCH  24   3
ATOM      3  O   UNL     1      -6.787   2.068  26.947  0.00  0.00    -0.481 OA
ATOM     32  H   UNL     1      -7.721   1.855  26.735  0.00  0.00    +0.295 HD
ENDBRANCH  24   3
ENDBRANCH  19  24
ENDBRANCH  11  19
ENDBRANCH  13  11
ENDBRANCH  16  13
TORSDOF 7
ENDMDL
MODEL 2
REMARK VINA RESULT:      -0.0      3.377      5.730
REMARK  Name = 26745086
REMARK  9 active torsions:
REMARK  status: ('A' for Active; 'I' for Inactive)
REMARK    1  A    between atoms: O_3  and  C_24
REMARK    2  A    between atoms: C_11  and  C_13
REMARK    3  A    between atoms: C_11  and  C_19
REMARK    4  A    between atoms: C_11  and  C_20
REMARK    5  A    between atoms: C_11  and  C_21
REMARK    6  A    between atoms: C_12  and  C_22
REMARK    7  A    between atoms: C_13  and  C_16
REMARK    8  A    between atoms: C_19  and  C_24
REMARK    9  A    between atoms: C_25  and  C_26
REMARK                            x       y       z     vdW  Elec       q    Type
REMARK                         _______ _______ _______ _____ _____    ______ ____
ROOT
ATOM      1  O   UNL     1      -2.719  -0.076  22.322  0.00  0.00    -0.276 OA
ATOM      5  N   UNL     1      -3.470   1.162  24.149  0.00  0.00    -0.284 N 
ATOM      6  N   UNL     1      -5.755   3.016  26.442  0.00  0.00    -0.347 N 
ATOM      7  N   UNL     1      -5.225   4.786  25.184  0.00  0.00    -0.240 NA
ATOM     12  C   UNL     1      -2.653   2.367  23.773  0.00  0.00    +0.171 C 
ATOM     14  C   UNL     1      -3.539   3.646  23.677  0.00  0.00    +0.089 C 
ATOM     15  C   UNL     1      -4.264   1.227  25.407  0.00  0.00    +0.163 C 
ATOM     16  C   UNL     1      -3.370   0.003  23.367  0.00  0.00    +0.217 C 
ATOM     17  C   UNL     1      -4.830   2.583  25.539  0.00  0.00    +0.056 A 
ATOM     18  C   UNL     1      -4.520   3.687  24.783  0.00  0.00    +0.066 A 
ATOM     23  C   UNL     1      -5.961   4.349  26.187  0.00  0.00    +0.197 A 
ATOM     31  H   UNL     1      -6.205   2.466  27.162  0.00  0.00    +0.167 HD
ENDROOT
BRANCH  12  22
ATOM      2  O   UNL     1      -0.214   2.547  23.997  0.00  0.00    -0.336 OA
ATOM      8  N   UNL     1      -1.304   2.485  25.952  0.00  0.00    -0.190 NA
ATOM      9  N   UNL     1       0.767   2.627  24.992  0.00  0.00    -0.056 NA
ATOM     22  C   UNL     1      -1.405   2.467  24.647  0.00  0.00    +0.249 A 
ATOM     25  C   UNL     1       0.047   2.584  26.117  0.00  0.00    +0.202 A 
BRANCH  25  26
ATOM     10  N   UNL     1       1.811   2.751  29.957  0.00  0.00    -0.263 NA
ATOM     26  C   UNL     1       0.645   2.641  27.418  0.00  0.00    +0.025 A 
ATOM     27  C   UNL     1      -0.130   2.425  28.553  0.00  0.00    +0.031 A 
ATOM     28  C   UNL     1       2.003   2.912  27.552  0.00  0.00    +0.031 A 
ATOM     29  C   UNL     1       0.496   2.490  29.788  0.00  0.00    +0.111 A 
ATOM     30  C   UNL     1       2.533   2.955  28.832  0.00  0.00    +0.111 A 
ENDBRANCH  25  26
ENDBRANCH  12  22
BRANCH  16  13
ATOM     13  C   UNL     1      -4.121  -1.209  23.859  0.00  0.00    +0.103 C 
BRANCH  13  11
ATOM     11  C   UNL     1      -3.237  -2.167  24.683  0.00  0.00    -0.017 C 
ATOM     20  C   UNL     1      -3.792  -3.594  24.498  0.00  0.00    +0.012 C 
ATOM     21  C   UNL     1      -3.334  -1.819  26.183  0.00  0.00    +0.012 C 
BRANCH  11  19
ATOM     19  C   UNL     1      -1.745  -2.114  24.274  0.00  0.00    +0.127 C 
BRANCH  19  24
ATOM      4  O   UNL     1      -1.028  -0.894  26.237  0.00  0.00    -0.251 OA
ATOM     24  C   UNL     1      -0.915  -1.106  25.037  0.00  0.00    +0.305 C 
BRANCH  24   3
ATOM      3  O   UNL     1      -0.030  -0.447  24.248  0.00  0.00    -0.481 OA
ATOM     32  H   UNL     1      -0.294  -0.470  23.304  0.00  0.00    +0.295 HD
ENDBRANCH  24   3
ENDBRANCH  19  24
ENDBRANCH  11  19
ENDBRANCH  13  11
ENDBRANCH  16  13
TORSDOF 7
ENDMDL
MODEL 3
REMARK VINA RESULT:       0.3      2.178      4.731
REMARK  Name = 26745086
REMARK  9 active torsions:
REMARK  status: ('A' for Active; 'I' for Inactive)
REMARK    1  A    between atoms: O_3  and  C_24
REMARK    2  A    between atoms: C_11  and  C_13
REMARK    3  A    between atoms: C_11  and  C_19
REMARK    4  A    between atoms: C_11  and  C_20
REMARK    5  A    between atoms: C_11  and  C_21
REMARK    6  A    between atoms: C_12  and  C_22
REMARK    7  A    between atoms: C_13  and  C_16
REMARK    8  A    between atoms: C_19  and  C_24
REMARK    9  A    between atoms: C_25  and  C_26
REMARK                            x       y       z     vdW  Elec       q    Type
REMARK                         _______ _______ _______ _____ _____    ______ ____
ROOT
ATOM      1  O   UNL     1      -3.569  -0.806  22.284  0.00  0.00    -0.276 OA
ATOM      5  N   UNL     1      -3.338   0.845  23.913  0.00  0.00    -0.284 N 
ATOM      6  N   UNL     1      -4.224   3.473  26.408  0.00  0.00    -0.347 N 
ATOM      7  N   UNL     1      -4.082   4.865  24.667  0.00  0.00    -0.240 NA
ATOM     12  C   UNL     1      -2.628   1.785  22.978  0.00  0.00    +0.171 C 
ATOM     14  C   UNL     1      -3.325   3.179  22.936  0.00  0.00    +0.089 C 
ATOM     15  C   UNL     1      -3.515   1.276  25.328  0.00  0.00    +0.163 C 
ATOM     16  C   UNL     1      -3.705  -0.426  23.449  0.00  0.00    +0.217 C 
ATOM     17  C   UNL     1      -3.820   2.720  25.347  0.00  0.00    +0.056 A 
ATOM     18  C   UNL     1      -3.738   3.598  24.293  0.00  0.00    +0.066 A 
ATOM     23  C   UNL     1      -4.370   4.757  25.949  0.00  0.00    +0.197 A 
ATOM     31  H   UNL     1      -4.386   3.151  27.354  0.00  0.00    +0.167 HD
ENDROOT
BRANCH  12  22
ATOM      2  O   UNL     1      -0.627   2.858  23.912  0.00  0.00    -0.336 OA
ATOM      8  N   UNL     1      -0.226   0.886  22.929  0.00  0.00    -0.190 NA
ATOM      9  N   UNL     1       0.749   2.633  24.038  0.00  0.00    -0.056 NA
ATOM     22  C   UNL     1      -1.125   1.782  23.248  0.00  0.00    +0.249 A 
ATOM     25  C   UNL     1       0.909   1.451  23.435  0.00  0.00    +0.202 A 
BRANCH  25  26
ATOM     10  N   UNL     1       4.675  -0.444  23.103  0.00  0.00    -0.263 NA
ATOM     26  C   UNL     1       2.185   0.809  23.322  0.00  0.00    +0.025 A 
ATOM     27  C   UNL     1       3.317   1.554  23.010  0.00  0.00    +0.031 A 
ATOM     28  C   UNL     1       2.297  -0.562  23.526  0.00  0.00    +0.031 A 
ATOM     29  C   UNL     1       4.527   0.886  22.913  0.00  0.00    +0.111 A 
ATOM     30  C   UNL     1       3.553  -1.135  23.407  0.00  0.00    +0.111 A 
ENDBRANCH  25  26
ENDBRANCH  12  22
BRANCH  16  13
ATOM     13  C   UNL     1      -4.307  -1.366  24.464  0.00  0.00    +0.103 C 
BRANCH  13  11
ATOM     11  C   UNL     1      -3.257  -2.275  25.133  0.00  0.00    -0.017 C 
ATOM     20  C   UNL     1      -3.695  -3.738  24.914  0.00  0.00    +0.012 C 
ATOM     21  C   UNL     1      -3.229  -2.019  26.656  0.00  0.00    +0.012 C 
BRANCH  11  19
ATOM     19  C   UNL     1      -1.827  -2.054  24.583  0.00  0.00    +0.127 C 
BRANCH  19  24
ATOM      4  O   UNL     1      -1.069  -0.294  26.061  0.00  0.00    -0.251 OA
ATOM     24  C   UNL     1      -0.873  -1.389  25.550  0.00  0.00    +0.305 C 
BRANCH  24   3
ATOM      3  O   UNL     1       0.237  -2.130  25.789  0.00  0.00    -0.481 OA
ATOM     32  H   UNL     1       1.043  -1.574  25.845  0.00  0.00    +0.295 HD
ENDBRANCH  24   3
ENDBRANCH  19  24
ENDBRANCH  11  19
ENDBRANCH  13  11
ENDBRANCH  16  13
TORSDOF 7
ENDMDL
MODEL 4
REMARK VINA RESULT:       1.7      1.338      2.397
REMARK  Name = 26745086
REMARK  9 active torsions:
REMARK  status: ('A' for Active; 'I' for Inactive)
REMARK    1  A    between atoms: O_3  and  C_24
REMARK    2  A    between atoms: C_11  and  C_13
REMARK    3  A    between atoms: C_11  and  C_19
REMARK    4  A    between atoms: C_11  and  C_20
REMARK    5  A    between atoms: C_11  and  C_21
REMARK    6  A    between atoms: C_12  and  C_22
REMARK    7  A    between atoms: C_13  and  C_16
REMARK    8  A    between atoms: C_19  and  C_24
REMARK    9  A    between atoms: C_25  and  C_26
REMARK                            x       y       z     vdW  Elec       q    Type
REMARK                         _______ _______ _______ _____ _____    ______ ____
ROOT
ATOM      1  O   UNL     1      -2.579   2.224  26.357  0.00  0.00    -0.276 OA
ATOM      5  N   UNL     1      -2.936   0.473  24.859  0.00  0.00    -0.284 N 
ATOM      6  N   UNL     1      -4.571  -2.404  23.137  0.00  0.00    -0.347 N 
ATOM      7  N   UNL     1      -3.510  -3.640  24.667  0.00  0.00    -0.240 NA
ATOM     12  C   UNL     1      -1.785  -0.331  25.397  0.00  0.00    +0.171 C 
ATOM     14  C   UNL     1      -2.236  -1.768  25.801  0.00  0.00    +0.089 C 
ATOM     15  C   UNL     1      -3.687  -0.081  23.699  0.00  0.00    +0.163 C 
ATOM     16  C   UNL     1      -3.187   1.743  25.397  0.00  0.00    +0.217 C 
ATOM     17  C   UNL     1      -3.813  -1.541  23.870  0.00  0.00    +0.056 A 
ATOM     18  C   UNL     1      -3.171  -2.324  24.798  0.00  0.00    +0.066 A 
ATOM     23  C   UNL     1      -4.356  -3.656  23.656  0.00  0.00    +0.197 A 
ATOM     31  H   UNL     1      -5.177  -2.172  22.360  0.00  0.00    +0.167 HD
ENDROOT
BRANCH  12  22
ATOM      2  O   UNL     1      -0.840  -0.076  23.145  0.00  0.00    -0.336 OA
ATOM      8  N   UNL     1       0.699  -0.276  24.760  0.00  0.00    -0.190 NA
ATOM      9  N   UNL     1       0.404  -0.012  22.507  0.00  0.00    -0.056 NA
ATOM     22  C   UNL     1      -0.577  -0.232  24.469  0.00  0.00    +0.249 A 
ATOM     25  C   UNL     1       1.261  -0.137  23.524  0.00  0.00    +0.202 A 
BRANCH  25  26
ATOM     10  N   UNL     1       5.456  -0.103  22.982  0.00  0.00    -0.263 NA
ATOM     26  C   UNL     1       2.683  -0.125  23.340  0.00  0.00    +0.025 A 
ATOM     27  C   UNL     1       3.451  -1.203  23.769  0.00  0.00    +0.031 A 
ATOM     28  C   UNL     1       3.300   0.963  22.733  0.00  0.00    +0.031 A 
ATOM     29  C   UNL     1       4.821  -1.143  23.569  0.00  0.00    +0.111 A 
ATOM     30  C   UNL     1       4.676   0.925  22.578  0.00  0.00    +0.111 A 
ENDBRANCH  25  26
ENDBRANCH  12  22
BRANCH  16  13
ATOM     13  C   UNL     1      -4.278   2.550  24.738  0.00  0.00    +0.103 C 
BRANCH  13  11
ATOM     11  C   UNL     1      -4.063   4.070  24.875  0.00  0.00    -0.017 C 
ATOM     20  C   UNL     1      -5.364   4.679  25.438  0.00  0.00    +0.012 C 
ATOM     21  C   UNL     1      -3.819   4.697  23.485  0.00  0.00    +0.012 C 
BRANCH  11  19
ATOM     19  C   UNL     1      -2.863   4.433  25.783  0.00  0.00    +0.127 C 
BRANCH  19  24
ATOM      4  O   UNL     1      -0.827   3.972  24.560  0.00  0.00    -0.251 OA
ATOM     24  C   UNL     1      -1.595   4.794  25.042  0.00  0.00    +0.305 C 
BRANCH  24   3
ATOM      3  O   UNL     1      -1.388   6.132  24.972  0.00  0.00    -0.481 OA
ATOM     32  H   UNL     1      -2.220   6.623  24.803  0.00  0.00    +0.295 HD
ENDBRANCH  24   3
ENDBRANCH  19  24
ENDBRANCH  11  19
ENDBRANCH  13  11
ENDBRANCH  16  13
TORSDOF 7
ENDMDL
MODEL 5
REMARK VINA RESULT:       3.4      1.248      1.822
REMARK  Name = 26745086
REMARK  9 active torsions:
REMARK  status: ('A' for Active; 'I' for Inactive)
REMARK    1  A    between atoms: O_3  and  C_24
REMARK    2  A    between atoms: C_11  and  C_13
REMARK    3  A    between atoms: C_11  and  C_19
REMARK    4  A    between atoms: C_11  and  C_20
REMARK    5  A    between atoms: C_11  and  C_21
REMARK    6  A    between atoms: C_12  and  C_22
REMARK    7  A    between atoms: C_13  and  C_16
REMARK    8  A    between atoms: C_19  and  C_24
REMARK    9  A    between atoms: C_25  and  C_26
REMARK                            x       y       z     vdW  Elec       q    Type
REMARK                         _______ _______ _______ _____ _____    ______ ____
ROOT
ATOM      1  O   UNL     1      -2.752   2.564  26.119  0.00  0.00    -0.276 OA
ATOM      5  N   UNL     1      -2.974   0.649  24.807  0.00  0.00    -0.284 N 
ATOM      6  N   UNL     1      -4.386  -2.499  23.390  0.00  0.00    -0.347 N 
ATOM      7  N   UNL     1      -3.246  -3.493  25.034  0.00  0.00    -0.240 NA
ATOM     12  C   UNL     1      -1.770  -0.010  25.422  0.00  0.00    +0.171 C 
ATOM     14  C   UNL     1      -2.117  -1.428  25.970  0.00  0.00    +0.089 C 
ATOM     15  C   UNL     1      -3.677  -0.072  23.711  0.00  0.00    +0.163 C 
ATOM     16  C   UNL     1      -3.319   1.946  25.214  0.00  0.00    +0.217 C 
ATOM     17  C   UNL     1      -3.696  -1.513  24.030  0.00  0.00    +0.056 A 
ATOM     18  C   UNL     1      -3.003  -2.149  25.030  0.00  0.00    +0.066 A 
ATOM     23  C   UNL     1      -4.083  -3.673  24.032  0.00  0.00    +0.197 A 
ATOM     31  H   UNL     1      -5.003  -2.391  22.595  0.00  0.00    +0.167 HD
ENDROOT
BRANCH  12  22
ATOM      2  O   UNL     1      -0.831   0.390  23.188  0.00  0.00    -0.336 OA
ATOM      8  N   UNL     1       0.704  -0.093  24.746  0.00  0.00    -0.190 NA
ATOM      9  N   UNL     1       0.407   0.417  22.536  0.00  0.00    -0.056 NA
ATOM     22  C   UNL     1      -0.567   0.083  24.485  0.00  0.00    +0.249 A 
ATOM     25  C   UNL     1       1.262   0.122  23.519  0.00  0.00    +0.202 A 
BRANCH  25  26
ATOM     10  N   UNL     1       5.439  -0.128  22.906  0.00  0.00    -0.263 NA
ATOM     26  C   UNL     1       2.678   0.037  23.311  0.00  0.00    +0.025 A 
ATOM     27  C   UNL     1       3.364   1.102  22.738  0.00  0.00    +0.031 A 
ATOM     28  C   UNL     1       3.371  -1.110  23.683  0.00  0.00    +0.031 A 
ATOM     29  C   UNL     1       4.732   0.970  22.558  0.00  0.00    +0.111 A 
ATOM     30  C   UNL     1       4.739  -1.142  23.462  0.00  0.00    +0.111 A 
ENDBRANCH  25  26
ENDBRANCH  12  22
BRANCH  16  13
ATOM     13  C   UNL     1      -4.463   2.600  24.480  0.00  0.00    +0.103 C 
BRANCH  13  11
ATOM     11  C   UNL     1      -5.829   2.334  25.143  0.00  0.00    -0.017 C 
ATOM     20  C   UNL     1      -5.651   1.163  26.131  0.00  0.00    +0.012 C 
ATOM     21  C   UNL     1      -6.857   1.895  24.079  0.00  0.00    +0.012 C 
BRANCH  11  19
ATOM     19  C   UNL     1      -6.396   3.574  25.876  0.00  0.00    +0.127 C 
BRANCH  19  24
ATOM      4  O   UNL     1      -4.448   4.982  25.600  0.00  0.00    -0.251 OA
ATOM     24  C   UNL     1      -5.666   4.867  25.590  0.00  0.00    +0.305 C 
BRANCH  24   3
ATOM      3  O   UNL     1      -6.506   5.900  25.327  0.00  0.00    -0.481 OA
ATOM     32  H   UNL     1      -7.029   6.155  26.116  0.00  0.00    +0.295 HD
ENDBRANCH  24   3
ENDBRANCH  19  24
ENDBRANCH  11  19
ENDBRANCH  13  11
ENDBRANCH  16  13
TORSDOF 7
ENDMDL
MODEL 6
REMARK VINA RESULT:       3.6      1.516      2.248
REMARK  Name = 26745086
REMARK  9 active torsions:
REMARK  status: ('A' for Active; 'I' for Inactive)
REMARK    1  A    between atoms: O_3  and  C_24
REMARK    2  A    between atoms: C_11  and  C_13
REMARK    3  A    between atoms: C_11  and  C_19
REMARK    4  A    between atoms: C_11  and  C_20
REMARK    5  A    between atoms: C_11  and  C_21
REMARK    6  A    between atoms: C_12  and  C_22
REMARK    7  A    between atoms: C_13  and  C_16
REMARK    8  A    between atoms: C_19  and  C_24
REMARK    9  A    between atoms: C_25  and  C_26
REMARK                            x       y       z     vdW  Elec       q    Type
REMARK                         _______ _______ _______ _____ _____    ______ ____
ROOT
ATOM      1  O   UNL     1      -1.772   2.418  26.737  0.00  0.00    -0.276 OA
ATOM      5  N   UNL     1      -2.458   0.835  25.169  0.00  0.00    -0.284 N 
ATOM      6  N   UNL     1      -4.583  -1.661  23.388  0.00  0.00    -0.347 N 
ATOM      7  N   UNL     1      -3.648  -3.131  24.787  0.00  0.00    -0.240 NA
ATOM     12  C   UNL     1      -1.416  -0.162  25.598  0.00  0.00    +0.171 C 
ATOM     14  C   UNL     1      -2.056  -1.539  25.947  0.00  0.00    +0.089 C 
ATOM     15  C   UNL     1      -3.337   0.469  24.024  0.00  0.00    +0.163 C 
ATOM     16  C   UNL     1      -2.490   2.092  25.788  0.00  0.00    +0.217 C 
ATOM     17  C   UNL     1      -3.671  -0.965  24.123  0.00  0.00    +0.056 A 
ATOM     18  C   UNL     1      -3.110  -1.889  24.970  0.00  0.00    +0.066 A 
ATOM     23  C   UNL     1      -4.534  -2.961  23.826  0.00  0.00    +0.197 A 
ATOM     31  H   UNL     1      -5.184  -1.295  22.660  0.00  0.00    +0.167 HD
ENDROOT
BRANCH  12  22
ATOM      2  O   UNL     1      -0.575  -0.238  23.292  0.00  0.00    -0.336 OA
ATOM      8  N   UNL     1       1.037  -0.157  24.844  0.00  0.00    -0.190 NA
ATOM      9  N   UNL     1       0.639  -0.248  22.594  0.00  0.00    -0.056 NA
ATOM     22  C   UNL     1      -0.251  -0.183  24.610  0.00  0.00    +0.249 A 
ATOM     25  C   UNL     1       1.542  -0.199  23.577  0.00  0.00    +0.202 A 
BRANCH  25  26
ATOM     10  N   UNL     1       5.707  -0.165  22.843  0.00  0.00    -0.263 NA
ATOM     26  C   UNL     1       2.953  -0.188  23.328  0.00  0.00    +0.025 A 
ATOM     27  C   UNL     1       3.527   0.854  22.607  0.00  0.00    +0.031 A 
ATOM     28  C   UNL     1       3.755  -1.218  23.807  0.00  0.00    +0.031 A 
ATOM     29  C   UNL     1       4.896   0.818  22.393  0.00  0.00    +0.111 A 
ATOM     30  C   UNL     1       5.114  -1.160  23.541  0.00  0.00    +0.111 A 
ENDBRANCH  25  26
ENDBRANCH  12  22
BRANCH  16  13
ATOM     13  C   UNL     1      -3.479   3.089  25.236  0.00  0.00    +0.103 C 
BRANCH  13  11
ATOM     11  C   UNL     1      -2.823   4.133  24.311  0.00  0.00    -0.017 C 
ATOM     20  C   UNL     1      -1.884   5.001  25.175  0.00  0.00    +0.012 C 
ATOM     21  C   UNL     1      -3.901   5.063  23.714  0.00  0.00    +0.012 C 
BRANCH  11  19
ATOM     19  C   UNL     1      -2.037   3.495  23.140  0.00  0.00    +0.127 C 
BRANCH  19  24
ATOM      4  O   UNL     1      -4.098   3.108  21.933  0.00  0.00    -0.251 OA
ATOM     24  C   UNL     1      -2.900   2.892  22.054  0.00  0.00    +0.305 C 
BRANCH  24   3
ATOM      3  O   UNL     1      -2.207   2.073  21.224  0.00  0.00    -0.481 OA
ATOM     32  H   UNL     1      -2.296   1.131  21.482  0.00  0.00    +0.295 HD
ENDBRANCH  24   3
ENDBRANCH  19  24
ENDBRANCH  11  19
ENDBRANCH  13  11
ENDBRANCH  16  13
TORSDOF 7
ENDMDL
