MODEL 1
REMARK VINA RESULT:       3.7      0.000      0.000
REMARK  Name = 25389612
REMARK  11 active torsions:
REMARK  status: ('A' for Active; 'I' for Inactive)
REMARK    1  A    between atoms: O_1  and  C_17
REMARK    2  A    between atoms: O_1  and  C_22
REMARK    3  A    between atoms: O_3  and  C_23
REMARK    4  A    between atoms: O_3  and  C_31
REMARK    5  A    between atoms: O_4  and  C_34
REMARK    6  A    between atoms: O_4  and  C_35
REMARK    7  A    between atoms: N_6  and  C_20
REMARK    8  A    between atoms: N_8  and  C_27
REMARK    9  A    between atoms: C_10  and  C_16
REMARK   10  A    between atoms: C_11  and  C_17
REMARK   11  A    between atoms: C_19  and  C_21
REMARK                            x       y       z     vdW  Elec       q    Type
REMARK                         _______ _______ _______ _____ _____    ______ ____
ROOT
ATOM      5  N   UNL     1      -2.984  -2.686  23.710  0.00  0.00    -0.296 NA
ATOM      9  C   UNL     1      -3.047  -1.572  26.063  0.00  0.00    +0.002 C 
ATOM     10  C   UNL     1      -3.906  -0.760  25.054  0.00  0.00    +0.055 C 
ATOM     11  C   UNL     1      -1.602  -2.527  24.234  0.00  0.00    +0.095 C 
ATOM     12  C   UNL     1      -1.603  -1.686  25.529  0.00  0.00    +0.026 C 
ATOM     13  C   UNL     1      -3.631  -3.000  26.098  0.00  0.00    +0.019 C 
ATOM     14  C   UNL     1      -3.657  -1.366  23.643  0.00  0.00    +0.094 C 
ATOM     15  C   UNL     1      -3.735  -3.541  24.662  0.00  0.00    +0.085 C 
ENDROOT
BRANCH  10  16
ATOM      6  N   UNL     1      -4.852   1.589  25.208  0.00  0.00    -0.270 N 
ATOM      7  N   UNL     1      -4.532   2.894  25.188  0.00  0.00    -0.171 NA
ATOM     16  C   UNL     1      -3.782   0.757  25.062  0.00  0.00    +0.044 A 
ATOM     18  C   UNL     1      -2.685   1.574  24.936  0.00  0.00    +0.053 A 
ATOM     19  C   UNL     1      -3.206   2.878  25.022  0.00  0.00    +0.096 A 
ATOM     20  C   UNL     1      -6.236   1.204  25.373  0.00  0.00    +0.172 C 
BRANCH  19  21
ATOM     21  C   UNL     1      -2.464   4.109  24.946  0.00  0.00    +0.044 A 
ATOM     23  C   UNL     1      -1.075   4.116  25.069  0.00  0.00    +0.129 A 
ATOM     24  C   UNL     1      -3.152   5.306  24.746  0.00  0.00    +0.014 A 
ATOM     25  C   UNL     1      -0.374   5.320  24.992  0.00  0.00    +0.046 A 
ATOM     26  C   UNL     1      -2.451   6.510  24.668  0.00  0.00    +0.001 A 
ATOM     28  C   UNL     1      -1.062   6.516  24.792  0.00  0.00    +0.004 A 
BRANCH  23   3
ATOM      3  O   UNL     1      -0.375   2.962  25.266  0.00  0.00    -0.494 OA
ATOM     31  C   UNL     1       0.112   2.718  26.583  0.00  0.00    +0.277 C 
ENDBRANCH  23   3
ENDBRANCH  19  21
ENDBRANCH  10  16
BRANCH  11  17
ATOM     17  C   UNL     1      -0.643  -1.960  23.186  0.00  0.00    +0.252 C 
BRANCH  17   1
ATOM      1  O   UNL     1      -0.703  -0.547  23.244  0.00  0.00    -0.449 OA
BRANCH   1  22
ATOM      2  O   UNL     1       0.569   1.327  23.557  0.00  0.00    -0.226 OA
ATOM      8  N   UNL     1       1.536  -0.782  23.240  0.00  0.00    -0.251 N 
ATOM     22  C   UNL     1       0.496   0.119  23.366  0.00  0.00    +0.405 C 
ATOM     36  H   UNL     1       1.274  -1.751  23.084  0.00  0.00    +0.158 HD
BRANCH   8  27
ATOM     27  C   UNL     1       2.924  -0.522  23.302  0.00  0.00    +0.037 A 
ATOM     29  C   UNL     1       3.785  -1.462  23.870  0.00  0.00    +0.027 A 
ATOM     30  C   UNL     1       3.433   0.673  22.794  0.00  0.00    +0.027 A 
ATOM     32  C   UNL     1       5.154  -1.205  23.931  0.00  0.00    +0.047 A 
ATOM     33  C   UNL     1       4.803   0.929  22.854  0.00  0.00    +0.047 A 
ATOM     34  C   UNL     1       5.663  -0.010  23.422  0.00  0.00    +0.120 A 
BRANCH  34   4
ATOM      4  O   UNL     1       7.000   0.239  23.481  0.00  0.00    -0.495 OA
ATOM     35  C   UNL     1       7.858  -0.642  22.756  0.00  0.00    +0.277 C 
ENDBRANCH  34   4
ENDBRANCH   8  27
ENDBRANCH   1  22
ENDBRANCH  17   1
ENDBRANCH  11  17
TORSDOF 8
ENDMDL
MODEL 2
REMARK VINA RESULT:       6.1      1.541      5.400
REMARK  Name = 25389612
REMARK  11 active torsions:
REMARK  status: ('A' for Active; 'I' for Inactive)
REMARK    1  A    between atoms: O_1  and  C_17
REMARK    2  A    between atoms: O_1  and  C_22
REMARK    3  A    between atoms: O_3  and  C_23
REMARK    4  A    between atoms: O_3  and  C_31
REMARK    5  A    between atoms: O_4  and  C_34
REMARK    6  A    between atoms: O_4  and  C_35
REMARK    7  A    between atoms: N_6  and  C_20
REMARK    8  A    between atoms: N_8  and  C_27
REMARK    9  A    between atoms: C_10  and  C_16
REMARK   10  A    between atoms: C_11  and  C_17
REMARK   11  A    between atoms: C_19  and  C_21
REMARK                            x       y       z     vdW  Elec       q    Type
REMARK                         _______ _______ _______ _____ _____    ______ ____
ROOT
ATOM      5  N   UNL     1      -2.081   4.749  25.850  0.00  0.00    -0.296 NA
ATOM      9  C   UNL     1      -4.326   4.196  24.651  0.00  0.00    +0.002 C 
ATOM     10  C   UNL     1      -3.951   3.066  25.650  0.00  0.00    +0.055 C 
ATOM     11  C   UNL     1      -1.924   4.906  24.380  0.00  0.00    +0.095 C 
ATOM     12  C   UNL     1      -3.175   4.386  23.640  0.00  0.00    +0.026 C 
ATOM     13  C   UNL     1      -4.429   5.500  25.470  0.00  0.00    +0.019 C 
ATOM     14  C   UNL     1      -2.516   3.367  26.170  0.00  0.00    +0.094 C 
ATOM     15  C   UNL     1      -3.143   5.683  26.295  0.00  0.00    +0.085 C 
ENDROOT
BRANCH  10  16
ATOM      6  N   UNL     1      -5.323   1.048  24.957  0.00  0.00    -0.270 N 
ATOM      7  N   UNL     1      -5.248  -0.235  24.565  0.00  0.00    -0.171 NA
ATOM     16  C   UNL     1      -4.110   1.623  25.196  0.00  0.00    +0.044 A 
ATOM     18  C   UNL     1      -3.175   0.647  24.943  0.00  0.00    +0.053 A 
ATOM     19  C   UNL     1      -3.933  -0.474  24.558  0.00  0.00    +0.096 A 
ATOM     20  C   UNL     1      -6.620   1.672  25.086  0.00  0.00    +0.172 C 
BRANCH  19  21
ATOM     21  C   UNL     1      -3.427  -1.769  24.185  0.00  0.00    +0.044 A 
ATOM     23  C   UNL     1      -2.061  -2.047  24.240  0.00  0.00    +0.129 A 
ATOM     24  C   UNL     1      -4.322  -2.753  23.765  0.00  0.00    +0.014 A 
ATOM     25  C   UNL     1      -1.591  -3.308  23.875  0.00  0.00    +0.046 A 
ATOM     26  C   UNL     1      -3.852  -4.015  23.400  0.00  0.00    +0.001 A 
ATOM     28  C   UNL     1      -2.486  -4.291  23.455  0.00  0.00    +0.004 A 
BRANCH  23   3
ATOM      3  O   UNL     1      -1.163  -1.104  24.647  0.00  0.00    -0.494 OA
ATOM     31  C   UNL     1      -0.284  -1.465  25.710  0.00  0.00    +0.277 C 
ENDBRANCH  23   3
ENDBRANCH  19  21
ENDBRANCH  10  16
BRANCH  11  17
ATOM     17  C   UNL     1      -0.641   4.256  23.858  0.00  0.00    +0.252 C 
BRANCH  17   1
ATOM      1  O   UNL     1      -0.782   2.851  23.952  0.00  0.00    -0.449 OA
BRANCH   1  22
ATOM      2  O   UNL     1       0.573   1.974  25.572  0.00  0.00    -0.226 OA
ATOM      8  N   UNL     1       1.036   1.698  23.294  0.00  0.00    -0.251 N 
ATOM     22  C   UNL     1       0.318   2.146  24.386  0.00  0.00    +0.405 C 
ATOM     36  H   UNL     1       0.663   1.943  22.380  0.00  0.00    +0.158 HD
BRANCH   8  27
ATOM     27  C   UNL     1       2.227   0.938  23.288  0.00  0.00    +0.037 A 
ATOM     29  C   UNL     1       3.455   1.568  23.081  0.00  0.00    +0.027 A 
ATOM     30  C   UNL     1       2.176  -0.441  23.489  0.00  0.00    +0.027 A 
ATOM     32  C   UNL     1       4.631   0.819  23.076  0.00  0.00    +0.047 A 
ATOM     33  C   UNL     1       3.353  -1.191  23.484  0.00  0.00    +0.047 A 
ATOM     34  C   UNL     1       4.580  -0.561  23.278  0.00  0.00    +0.120 A 
BRANCH  34   4
ATOM      4  O   UNL     1       5.729  -1.291  23.273  0.00  0.00    -0.495 OA
ATOM     35  C   UNL     1       6.949  -0.580  23.068  0.00  0.00    +0.277 C 
ENDBRANCH  34   4
ENDBRANCH   8  27
ENDBRANCH   1  22
ENDBRANCH  17   1
ENDBRANCH  11  17
TORSDOF 8
ENDMDL
MODEL 3
REMARK VINA RESULT:       7.6      2.230      7.343
REMARK  Name = 25389612
REMARK  11 active torsions:
REMARK  status: ('A' for Active; 'I' for Inactive)
REMARK    1  A    between atoms: O_1  and  C_17
REMARK    2  A    between atoms: O_1  and  C_22
REMARK    3  A    between atoms: O_3  and  C_23
REMARK    4  A    between atoms: O_3  and  C_31
REMARK    5  A    between atoms: O_4  and  C_34
REMARK    6  A    between atoms: O_4  and  C_35
REMARK    7  A    between atoms: N_6  and  C_20
REMARK    8  A    between atoms: N_8  and  C_27
REMARK    9  A    between atoms: C_10  and  C_16
REMARK   10  A    between atoms: C_11  and  C_17
REMARK   11  A    between atoms: C_19  and  C_21
REMARK                            x       y       z     vdW  Elec       q    Type
REMARK                         _______ _______ _______ _____ _____    ______ ____
ROOT
ATOM      5  N   UNL     1      -4.326   4.420  24.259  0.00  0.00    -0.296 NA
ATOM      9  C   UNL     1      -1.961   5.457  24.592  0.00  0.00    +0.002 C 
ATOM     10  C   UNL     1      -1.877   4.187  23.700  0.00  0.00    +0.055 C 
ATOM     11  C   UNL     1      -4.080   4.670  25.703  0.00  0.00    +0.095 C 
ATOM     12  C   UNL     1      -2.614   5.090  25.942  0.00  0.00    +0.026 C 
ATOM     13  C   UNL     1      -2.914   6.440  23.881  0.00  0.00    +0.019 C 
ATOM     14  C   UNL     1      -3.281   3.518  23.715  0.00  0.00    +0.094 C 
ATOM     15  C   UNL     1      -4.232   5.719  23.550  0.00  0.00    +0.085 C 
ENDROOT
BRANCH  10  16
ATOM      6  N   UNL     1      -0.459   2.732  25.219  0.00  0.00    -0.270 N 
ATOM      7  N   UNL     1       0.561   1.858  25.246  0.00  0.00    -0.171 NA
ATOM     16  C   UNL     1      -0.759   3.190  23.971  0.00  0.00    +0.044 A 
ATOM     18  C   UNL     1       0.127   2.574  23.121  0.00  0.00    +0.053 A 
ATOM     19  C   UNL     1       0.914   1.765  23.960  0.00  0.00    +0.096 A 
ATOM     20  C   UNL     1      -1.112   3.091  26.457  0.00  0.00    +0.172 C 
BRANCH  19  21
ATOM     21  C   UNL     1       1.999   0.907  23.560  0.00  0.00    +0.044 A 
ATOM     23  C   UNL     1       1.778  -0.439  23.271  0.00  0.00    +0.129 A 
ATOM     24  C   UNL     1       3.284   1.439  23.462  0.00  0.00    +0.014 A 
ATOM     25  C   UNL     1       2.843  -1.253  22.884  0.00  0.00    +0.046 A 
ATOM     26  C   UNL     1       4.350   0.625  23.075  0.00  0.00    +0.001 A 
ATOM     28  C   UNL     1       4.128  -0.721  22.786  0.00  0.00    +0.004 A 
BRANCH  23   3
ATOM      3  O   UNL     1       0.532  -0.987  23.358  0.00  0.00    -0.494 OA
ATOM     31  C   UNL     1       0.090  -1.385  24.654  0.00  0.00    +0.277 C 
ENDBRANCH  23   3
ENDBRANCH  19  21
ENDBRANCH  10  16
BRANCH  11  17
ATOM     17  C   UNL     1      -4.483   3.481  26.578  0.00  0.00    +0.252 C 
BRANCH  17   1
ATOM      1  O   UNL     1      -5.749   3.020  26.148  0.00  0.00    -0.449 OA
BRANCH   1  22
ATOM      2  O   UNL     1      -6.731   1.428  24.831  0.00  0.00    -0.226 OA
ATOM      8  N   UNL     1      -4.598   1.126  25.749  0.00  0.00    -0.251 N 
ATOM     22  C   UNL     1      -5.778   1.803  25.504  0.00  0.00    +0.405 C 
ATOM     36  H   UNL     1      -3.921   1.604  26.337  0.00  0.00    +0.158 HD
BRANCH   8  27
ATOM     27  C   UNL     1      -4.215  -0.151  25.281  0.00  0.00    +0.037 A 
ATOM     29  C   UNL     1      -4.448  -0.506  23.952  0.00  0.00    +0.027 A 
ATOM     30  C   UNL     1      -3.603  -1.056  26.148  0.00  0.00    +0.027 A 
ATOM     32  C   UNL     1      -4.070  -1.767  23.491  0.00  0.00    +0.047 A 
ATOM     33  C   UNL     1      -3.225  -2.318  25.686  0.00  0.00    +0.047 A 
ATOM     34  C   UNL     1      -3.457  -2.672  24.358  0.00  0.00    +0.120 A 
BRANCH  34   4
ATOM      4  O   UNL     1      -3.088  -3.902  23.907  0.00  0.00    -0.495 OA
ATOM     35  C   UNL     1      -1.899  -3.975  23.120  0.00  0.00    +0.277 C 
ENDBRANCH  34   4
ENDBRANCH   8  27
ENDBRANCH   1  22
ENDBRANCH  17   1
ENDBRANCH  11  17
TORSDOF 8
ENDMDL
MODEL 4
REMARK VINA RESULT:       7.6      2.339      7.335
REMARK  Name = 25389612
REMARK  11 active torsions:
REMARK  status: ('A' for Active; 'I' for Inactive)
REMARK    1  A    between atoms: O_1  and  C_17
REMARK    2  A    between atoms: O_1  and  C_22
REMARK    3  A    between atoms: O_3  and  C_23
REMARK    4  A    between atoms: O_3  and  C_31
REMARK    5  A    between atoms: O_4  and  C_34
REMARK    6  A    between atoms: O_4  and  C_35
REMARK    7  A    between atoms: N_6  and  C_20
REMARK    8  A    between atoms: N_8  and  C_27
REMARK    9  A    between atoms: C_10  and  C_16
REMARK   10  A    between atoms: C_11  and  C_17
REMARK   11  A    between atoms: C_19  and  C_21
REMARK                            x       y       z     vdW  Elec       q    Type
REMARK                         _______ _______ _______ _____ _____    ______ ____
ROOT
ATOM      5  N   UNL     1      -4.049   5.105  24.713  0.00  0.00    -0.296 NA
ATOM      9  C   UNL     1      -1.499   4.775  25.127  0.00  0.00    +0.002 C 
ATOM     10  C   UNL     1      -1.952   3.981  23.871  0.00  0.00    +0.055 C 
ATOM     11  C   UNL     1      -3.809   4.724  26.129  0.00  0.00    +0.095 C 
ATOM     12  C   UNL     1      -2.334   4.325  26.345  0.00  0.00    +0.026 C 
ATOM     13  C   UNL     1      -1.842   6.257  24.866  0.00  0.00    +0.019 C 
ATOM     14  C   UNL     1      -3.504   4.062  23.808  0.00  0.00    +0.094 C 
ATOM     15  C   UNL     1      -3.320   6.370  24.453  0.00  0.00    +0.085 C 
ENDROOT
BRANCH  10  16
ATOM      6  N   UNL     1      -1.838   1.746  22.676  0.00  0.00    -0.270 N 
ATOM      7  N   UNL     1      -1.272   0.528  22.699  0.00  0.00    -0.171 NA
ATOM     16  C   UNL     1      -1.441   2.558  23.697  0.00  0.00    +0.044 A 
ATOM     18  C   UNL     1      -0.553   1.820  24.441  0.00  0.00    +0.053 A 
ATOM     19  C   UNL     1      -0.487   0.579  23.780  0.00  0.00    +0.096 A 
ATOM     20  C   UNL     1      -2.773   2.068  21.622  0.00  0.00    +0.172 C 
BRANCH  19  21
ATOM     21  C   UNL     1       0.309  -0.558  24.161  0.00  0.00    +0.044 A 
ATOM     23  C   UNL     1       1.583  -0.752  23.629  0.00  0.00    +0.129 A 
ATOM     24  C   UNL     1      -0.211  -1.474  25.076  0.00  0.00    +0.014 A 
ATOM     25  C   UNL     1       2.338  -1.861  24.012  0.00  0.00    +0.046 A 
ATOM     26  C   UNL     1       0.544  -2.583  25.460  0.00  0.00    +0.001 A 
ATOM     28  C   UNL     1       1.818  -2.776  24.927  0.00  0.00    +0.004 A 
BRANCH  23   3
ATOM      3  O   UNL     1       2.117   0.126  22.732  0.00  0.00    -0.494 OA
ATOM     31  C   UNL     1       3.487   0.476  22.907  0.00  0.00    +0.277 C 
ENDBRANCH  23   3
ENDBRANCH  19  21
ENDBRANCH  10  16
BRANCH  11  17
ATOM     17  C   UNL     1      -4.772   3.637  26.611  0.00  0.00    +0.252 C 
BRANCH  17   1
ATOM      1  O   UNL     1      -5.702   3.374  25.578  0.00  0.00    -0.449 OA
BRANCH   1  22
ATOM      2  O   UNL     1      -6.770   1.615  24.580  0.00  0.00    -0.226 OA
ATOM      8  N   UNL     1      -4.581   1.430  25.390  0.00  0.00    -0.251 N 
ATOM     22  C   UNL     1      -5.774   2.075  25.126  0.00  0.00    +0.405 C 
ATOM     36  H   UNL     1      -3.865   1.983  25.855  0.00  0.00    +0.158 HD
BRANCH   8  27
ATOM     27  C   UNL     1      -4.230   0.093  25.094  0.00  0.00    +0.037 A 
ATOM     29  C   UNL     1      -3.664  -0.714  26.082  0.00  0.00    +0.027 A 
ATOM     30  C   UNL     1      -4.451  -0.419  23.816  0.00  0.00    +0.027 A 
ATOM     32  C   UNL     1      -3.318  -2.033  25.790  0.00  0.00    +0.047 A 
ATOM     33  C   UNL     1      -4.105  -1.739  23.524  0.00  0.00    +0.047 A 
ATOM     34  C   UNL     1      -3.539  -2.545  24.511  0.00  0.00    +0.120 A 
BRANCH  34   4
ATOM      4  O   UNL     1      -3.202  -3.833  24.227  0.00  0.00    -0.495 OA
ATOM     35  C   UNL     1      -2.169  -4.036  23.263  0.00  0.00    +0.277 C 
ENDBRANCH  34   4
ENDBRANCH   8  27
ENDBRANCH   1  22
ENDBRANCH  17   1
ENDBRANCH  11  17
TORSDOF 8
ENDMDL
