MODEL 1
REMARK VINA RESULT:      -6.4      0.000      0.000
REMARK  Name = 25390420
REMARK  10 active torsions:
REMARK  status: ('A' for Active; 'I' for Inactive)
REMARK    1  A    between atoms: O_2  and  C_9
REMARK    2  A    between atoms: O_3  and  C_10
REMARK    3  A    between atoms: N_6  and  C_15
REMARK    4  A    between atoms: N_7  and  C_21
REMARK    5  A    between atoms: C_8  and  C_15
REMARK    6  A    between atoms: C_11  and  C_18
REMARK    7  A    between atoms: C_12  and  C_19
REMARK    8  A    between atoms: C_18  and  C_20
REMARK    9  A    between atoms: C_21  and  C_22
REMARK   10  A    between atoms: C_21  and  C_23
REMARK                            x       y       z     vdW  Elec       q    Type
REMARK                         _______ _______ _______ _____ _____    ______ ____
ROOT
ATOM      1  O   UNL     1       0.078   2.703  23.945  0.00  0.00    -0.366 OA
ATOM      8  C   UNL     1       0.042   1.357  24.449  0.00  0.00    +0.167 C 
ATOM      9  C   UNL     1      -0.825   1.407  25.695  0.00  0.00    +0.176 C 
ATOM     10  C   UNL     1      -0.467   2.766  26.259  0.00  0.00    +0.175 C 
ATOM     11  C   UNL     1      -0.332   3.609  24.995  0.00  0.00    +0.158 C 
ENDROOT
BRANCH   9   2
ATOM      2  O   UNL     1      -0.545   0.344  26.580  0.00  0.00    -0.387 OA
ATOM     25  H   UNL     1      -1.043  -0.432  26.271  0.00  0.00    +0.210 HD
ENDBRANCH   9   2
BRANCH  10   3
ATOM      3  O   UNL     1       0.807   2.718  26.899  0.00  0.00    -0.387 OA
ATOM     26  H   UNL     1       1.414   2.249  26.300  0.00  0.00    +0.210 HD
ENDBRANCH  10   3
BRANCH   8  15
ATOM     15  C   UNL     1      -0.495   0.423  23.378  0.00  0.00    +0.138 C 
BRANCH  15   6
ATOM      4  O   UNL     1      -3.297   1.185  23.210  0.00  0.00    -0.276 OA
ATOM      6  N   UNL     1      -1.630  -0.311  23.854  0.00  0.00    -0.313 N 
ATOM     19  C   UNL     1      -2.939   0.134  23.729  0.00  0.00    +0.216 C 
ATOM     24  H   UNL     1      -1.458  -1.203  24.310  0.00  0.00    +0.149 HD
BRANCH  19  12
ATOM     12  C   UNL     1      -3.967  -0.797  24.296  0.00  0.00    +0.075 C 
ATOM     13  C   UNL     1      -3.532  -1.289  25.681  0.00  0.00    +0.013 C 
ATOM     14  C   UNL     1      -4.106  -2.045  23.422  0.00  0.00    +0.013 C 
ATOM     16  C   UNL     1      -3.528  -2.813  25.598  0.00  0.00    +0.001 C 
ATOM     17  C   UNL     1      -3.275  -3.105  24.131  0.00  0.00    +0.001 C 
ENDBRANCH  19  12
ENDBRANCH  15   6
ENDBRANCH   8  15
BRANCH  11  18
ATOM     18  C   UNL     1      -1.641   4.258  24.567  0.00  0.00    +0.130 C 
BRANCH  18  20
ATOM      5  O   UNL     1      -2.652   4.327  26.765  0.00  0.00    -0.276 OA
ATOM      7  N   UNL     1      -3.881   3.489  24.982  0.00  0.00    -0.313 N 
ATOM     20  C   UNL     1      -2.754   4.042  25.575  0.00  0.00    +0.216 C 
ATOM     27  H   UNL     1      -3.847   3.236  23.999  0.00  0.00    +0.149 HD
BRANCH   7  21
ATOM     21  C   UNL     1      -5.073   3.189  25.723  0.00  0.00    +0.067 C 
ATOM     22  C   UNL     1      -5.758   1.958  25.145  0.00  0.00    +0.027 C 
ATOM     23  C   UNL     1      -6.012   4.388  25.735  0.00  0.00    +0.027 C 
ENDBRANCH   7  21
ENDBRANCH  18  20
ENDBRANCH  11  18
TORSDOF 8
ENDMDL
MODEL 2
REMARK VINA RESULT:      -6.2      1.530      2.438
REMARK  Name = 25390420
REMARK  10 active torsions:
REMARK  status: ('A' for Active; 'I' for Inactive)
REMARK    1  A    between atoms: O_2  and  C_9
REMARK    2  A    between atoms: O_3  and  C_10
REMARK    3  A    between atoms: N_6  and  C_15
REMARK    4  A    between atoms: N_7  and  C_21
REMARK    5  A    between atoms: C_8  and  C_15
REMARK    6  A    between atoms: C_11  and  C_18
REMARK    7  A    between atoms: C_12  and  C_19
REMARK    8  A    between atoms: C_18  and  C_20
REMARK    9  A    between atoms: C_21  and  C_22
REMARK   10  A    between atoms: C_21  and  C_23
REMARK                            x       y       z     vdW  Elec       q    Type
REMARK                         _______ _______ _______ _____ _____    ______ ____
ROOT
ATOM      1  O   UNL     1      -0.576   1.045  22.667  0.00  0.00    -0.366 OA
ATOM      8  C   UNL     1       0.214   0.829  23.849  0.00  0.00    +0.167 C 
ATOM      9  C   UNL     1      -0.469   1.622  24.951  0.00  0.00    +0.176 C 
ATOM     10  C   UNL     1      -0.970   2.831  24.188  0.00  0.00    +0.175 C 
ATOM     11  C   UNL     1      -1.406   2.213  22.864  0.00  0.00    +0.158 C 
ENDROOT
BRANCH   9   2
ATOM      2  O   UNL     1       0.419   1.950  25.998  0.00  0.00    -0.387 OA
ATOM     25  H   UNL     1      -0.006   2.639  26.536  0.00  0.00    +0.210 HD
ENDBRANCH   9   2
BRANCH  10   3
ATOM      3  O   UNL     1       0.106   3.731  23.924  0.00  0.00    -0.387 OA
ATOM     26  H   UNL     1       0.891   3.386  24.382  0.00  0.00    +0.210 HD
ENDBRANCH  10   3
BRANCH   8  15
ATOM     15  C   UNL     1       0.299  -0.659  24.142  0.00  0.00    +0.138 C 
BRANCH  15   6
ATOM      4  O   UNL     1      -1.083  -0.799  26.697  0.00  0.00    -0.276 OA
ATOM      6  N   UNL     1      -0.998  -1.210  24.405  0.00  0.00    -0.313 N 
ATOM     19  C   UNL     1      -1.580  -1.232  25.664  0.00  0.00    +0.216 C 
ATOM     24  H   UNL     1      -1.510  -1.605  23.621  0.00  0.00    +0.149 HD
BRANCH  19  12
ATOM     12  C   UNL     1      -2.943  -1.855  25.705  0.00  0.00    +0.075 C 
ATOM     13  C   UNL     1      -3.073  -2.922  24.613  0.00  0.00    +0.013 C 
ATOM     14  C   UNL     1      -4.022  -0.810  25.415  0.00  0.00    +0.013 C 
ATOM     16  C   UNL     1      -4.286  -2.519  23.781  0.00  0.00    +0.001 C 
ATOM     17  C   UNL     1      -4.367  -1.013  23.947  0.00  0.00    +0.001 C 
ENDBRANCH  19  12
ENDBRANCH  15   6
ENDBRANCH   8  15
BRANCH  11  18
ATOM     18  C   UNL     1      -2.859   1.756  22.868  0.00  0.00    +0.130 C 
BRANCH  18  20
ATOM      5  O   UNL     1      -4.046   3.862  22.991  0.00  0.00    -0.276 OA
ATOM      7  N   UNL     1      -4.293   2.325  24.712  0.00  0.00    -0.313 N 
ATOM     20  C   UNL     1      -3.787   2.776  23.501  0.00  0.00    +0.216 C 
ATOM     27  H   UNL     1      -3.974   1.432  25.078  0.00  0.00    +0.149 HD
BRANCH   7  21
ATOM     21  C   UNL     1      -5.197   3.105  25.509  0.00  0.00    +0.067 C 
ATOM     22  C   UNL     1      -4.420   4.019  26.446  0.00  0.00    +0.027 C 
ATOM     23  C   UNL     1      -6.146   2.199  26.283  0.00  0.00    +0.027 C 
ENDBRANCH   7  21
ENDBRANCH  18  20
ENDBRANCH  11  18
TORSDOF 8
ENDMDL
MODEL 3
REMARK VINA RESULT:      -5.8      2.553      4.926
REMARK  Name = 25390420
REMARK  10 active torsions:
REMARK  status: ('A' for Active; 'I' for Inactive)
REMARK    1  A    between atoms: O_2  and  C_9
REMARK    2  A    between atoms: O_3  and  C_10
REMARK    3  A    between atoms: N_6  and  C_15
REMARK    4  A    between atoms: N_7  and  C_21
REMARK    5  A    between atoms: C_8  and  C_15
REMARK    6  A    between atoms: C_11  and  C_18
REMARK    7  A    between atoms: C_12  and  C_19
REMARK    8  A    between atoms: C_18  and  C_20
REMARK    9  A    between atoms: C_21  and  C_22
REMARK   10  A    between atoms: C_21  and  C_23
REMARK                            x       y       z     vdW  Elec       q    Type
REMARK                         _______ _______ _______ _____ _____    ______ ____
ROOT
ATOM      1  O   UNL     1      -1.974   1.919  24.016  0.00  0.00    -0.366 OA
ATOM      8  C   UNL     1      -0.656   1.571  24.475  0.00  0.00    +0.167 C 
ATOM      9  C   UNL     1      -0.520   2.202  25.850  0.00  0.00    +0.176 C 
ATOM     10  C   UNL     1      -1.302   3.487  25.674  0.00  0.00    +0.175 C 
ATOM     11  C   UNL     1      -2.464   3.033  24.796  0.00  0.00    +0.158 C 
ENDROOT
BRANCH   9   2
ATOM      2  O   UNL     1       0.829   2.413  26.207  0.00  0.00    -0.387 OA
ATOM     25  H   UNL     1       1.344   2.460  25.384  0.00  0.00    +0.210 HD
ENDBRANCH   9   2
BRANCH  10   3
ATOM      3  O   UNL     1      -0.534   4.437  24.936  0.00  0.00    -0.387 OA
ATOM     26  H   UNL     1       0.280   4.604  25.439  0.00  0.00    +0.210 HD
ENDBRANCH  10   3
BRANCH   8  15
ATOM     15  C   UNL     1      -0.500   0.061  24.486  0.00  0.00    +0.138 C 
BRANCH  15   6
ATOM      4  O   UNL     1       1.716   1.743  23.640  0.00  0.00    -0.276 OA
ATOM      6  N   UNL     1       0.685  -0.342  23.789  0.00  0.00    -0.313 N 
ATOM     19  C   UNL     1       1.696   0.536  23.424  0.00  0.00    +0.216 C 
ATOM     24  H   UNL     1       0.782  -1.325  23.550  0.00  0.00    +0.149 HD
BRANCH  19  12
ATOM     12  C   UNL     1       2.845  -0.105  22.705  0.00  0.00    +0.075 C 
ATOM     13  C   UNL     1       3.462  -1.210  23.569  0.00  0.00    +0.013 C 
ATOM     14  C   UNL     1       3.958   0.914  22.451  0.00  0.00    +0.013 C 
ATOM     16  C   UNL     1       4.939  -0.854  23.706  0.00  0.00    +0.001 C 
ATOM     17  C   UNL     1       4.973   0.656  23.556  0.00  0.00    +0.001 C 
ENDBRANCH  19  12
ENDBRANCH  15   6
ENDBRANCH   8  15
BRANCH  11  18
ATOM     18  C   UNL     1      -3.664   2.548  25.599  0.00  0.00    +0.130 C 
BRANCH  18  20
ATOM      5  O   UNL     1      -5.282   1.369  24.238  0.00  0.00    -0.276 OA
ATOM      7  N   UNL     1      -3.675   0.153  25.388  0.00  0.00    -0.313 N 
ATOM     20  C   UNL     1      -4.312   1.319  24.989  0.00  0.00    +0.216 C 
ATOM     27  H   UNL     1      -2.914   0.211  26.060  0.00  0.00    +0.149 HD
BRANCH   7  21
ATOM     21  C   UNL     1      -4.097  -1.147  24.949  0.00  0.00    +0.067 C 
ATOM     22  C   UNL     1      -3.309  -2.231  25.672  0.00  0.00    +0.027 C 
ATOM     23  C   UNL     1      -3.952  -1.274  23.438  0.00  0.00    +0.027 C 
ENDBRANCH   7  21
ENDBRANCH  18  20
ENDBRANCH  11  18
TORSDOF 8
ENDMDL
MODEL 4
REMARK VINA RESULT:      -5.6      1.495      4.612
REMARK  Name = 25390420
REMARK  10 active torsions:
REMARK  status: ('A' for Active; 'I' for Inactive)
REMARK    1  A    between atoms: O_2  and  C_9
REMARK    2  A    between atoms: O_3  and  C_10
REMARK    3  A    between atoms: N_6  and  C_15
REMARK    4  A    between atoms: N_7  and  C_21
REMARK    5  A    between atoms: C_8  and  C_15
REMARK    6  A    between atoms: C_11  and  C_18
REMARK    7  A    between atoms: C_12  and  C_19
REMARK    8  A    between atoms: C_18  and  C_20
REMARK    9  A    between atoms: C_21  and  C_22
REMARK   10  A    between atoms: C_21  and  C_23
REMARK                            x       y       z     vdW  Elec       q    Type
REMARK                         _______ _______ _______ _____ _____    ______ ____
ROOT
ATOM      1  O   UNL     1      -0.128   2.807  26.130  0.00  0.00    -0.366 OA
ATOM      8  C   UNL     1      -0.206   3.688  24.996  0.00  0.00    +0.167 C 
ATOM      9  C   UNL     1      -0.606   2.810  23.821  0.00  0.00    +0.176 C 
ATOM     10  C   UNL     1       0.120   1.521  24.145  0.00  0.00    +0.175 C 
ATOM     11  C   UNL     1      -0.031   1.443  25.660  0.00  0.00    +0.158 C 
ENDROOT
BRANCH   9   2
ATOM      2  O   UNL     1      -0.223   3.372  22.585  0.00  0.00    -0.387 OA
ATOM     25  H   UNL     1       0.746   3.318  22.526  0.00  0.00    +0.210 HD
ENDBRANCH   9   2
BRANCH  10   3
ATOM      3  O   UNL     1       1.510   1.646  23.844  0.00  0.00    -0.387 OA
ATOM     26  H   UNL     1       1.926   2.114  24.587  0.00  0.00    +0.210 HD
ENDBRANCH  10   3
BRANCH   8  15
ATOM     15  C   UNL     1      -1.197   4.802  25.281  0.00  0.00    +0.138 C 
BRANCH  15   6
ATOM      4  O   UNL     1      -3.333   3.867  27.020  0.00  0.00    -0.276 OA
ATOM      6  N   UNL     1      -2.527   4.420  24.904  0.00  0.00    -0.313 N 
ATOM     19  C   UNL     1      -3.484   3.984  25.809  0.00  0.00    +0.216 C 
ATOM     24  H   UNL     1      -2.772   4.472  23.919  0.00  0.00    +0.149 HD
BRANCH  19  12
ATOM     12  C   UNL     1      -4.807   3.640  25.193  0.00  0.00    +0.075 C 
ATOM     13  C   UNL     1      -5.706   2.942  26.221  0.00  0.00    +0.013 C 
ATOM     14  C   UNL     1      -4.625   2.651  24.041  0.00  0.00    +0.013 C 
ATOM     16  C   UNL     1      -6.100   1.610  25.590  0.00  0.00    +0.001 C 
ATOM     17  C   UNL     1      -4.957   1.294  24.643  0.00  0.00    +0.001 C 
ENDBRANCH  19  12
ENDBRANCH  15   6
ENDBRANCH   8  15
BRANCH  11  18
ATOM     18  C   UNL     1      -1.292   0.709  26.097  0.00  0.00    +0.130 C 
BRANCH  18  20
ATOM      5  O   UNL     1      -0.466  -1.459  25.405  0.00  0.00    -0.276 OA
ATOM      7  N   UNL     1      -2.689  -0.919  25.012  0.00  0.00    -0.313 N 
ATOM     20  C   UNL     1      -1.405  -0.672  25.478  0.00  0.00    +0.216 C 
ATOM     27  H   UNL     1      -3.385  -0.180  25.067  0.00  0.00    +0.149 HD
BRANCH   7  21
ATOM     21  C   UNL     1      -3.056  -2.156  24.383  0.00  0.00    +0.067 C 
ATOM     22  C   UNL     1      -4.344  -1.983  23.588  0.00  0.00    +0.027 C 
ATOM     23  C   UNL     1      -3.193  -3.264  25.420  0.00  0.00    +0.027 C 
ENDBRANCH   7  21
ENDBRANCH  18  20
ENDBRANCH  11  18
TORSDOF 8
ENDMDL
MODEL 5
REMARK VINA RESULT:      -5.5      2.331      5.887
REMARK  Name = 25390420
REMARK  10 active torsions:
REMARK  status: ('A' for Active; 'I' for Inactive)
REMARK    1  A    between atoms: O_2  and  C_9
REMARK    2  A    between atoms: O_3  and  C_10
REMARK    3  A    between atoms: N_6  and  C_15
REMARK    4  A    between atoms: N_7  and  C_21
REMARK    5  A    between atoms: C_8  and  C_15
REMARK    6  A    between atoms: C_11  and  C_18
REMARK    7  A    between atoms: C_12  and  C_19
REMARK    8  A    between atoms: C_18  and  C_20
REMARK    9  A    between atoms: C_21  and  C_22
REMARK   10  A    between atoms: C_21  and  C_23
REMARK                            x       y       z     vdW  Elec       q    Type
REMARK                         _______ _______ _______ _____ _____    ______ ____
ROOT
ATOM      1  O   UNL     1      -2.542  -0.011  23.668  0.00  0.00    -0.366 OA
ATOM      8  C   UNL     1      -3.571  -0.801  24.289  0.00  0.00    +0.167 C 
ATOM      9  C   UNL     1      -2.895  -1.521  25.444  0.00  0.00    +0.176 C 
ATOM     10  C   UNL     1      -1.519  -1.790  24.871  0.00  0.00    +0.175 C 
ATOM     11  C   UNL     1      -1.250  -0.515  24.079  0.00  0.00    +0.158 C 
ENDROOT
BRANCH   9   2
ATOM      2  O   UNL     1      -3.586  -2.695  25.814  0.00  0.00    -0.387 OA
ATOM     25  H   UNL     1      -2.988  -3.445  25.663  0.00  0.00    +0.210 HD
ENDBRANCH   9   2
BRANCH  10   3
ATOM      3  O   UNL     1      -1.570  -2.880  23.951  0.00  0.00    -0.387 OA
ATOM     26  H   UNL     1      -0.739  -3.376  24.043  0.00  0.00    +0.210 HD
ENDBRANCH  10   3
BRANCH   8  15
ATOM     15  C   UNL     1      -4.713   0.099  24.725  0.00  0.00    +0.138 C 
BRANCH  15   6
ATOM      4  O   UNL     1      -5.897   2.272  26.253  0.00  0.00    -0.276 OA
ATOM      6  N   UNL     1      -4.311   1.474  24.742  0.00  0.00    -0.313 N 
ATOM     19  C   UNL     1      -4.939   2.447  25.508  0.00  0.00    +0.216 C 
ATOM     24  H   UNL     1      -3.525   1.744  24.158  0.00  0.00    +0.149 HD
BRANCH  19  12
ATOM     12  C   UNL     1      -4.349   3.818  25.373  0.00  0.00    +0.075 C 
ATOM     13  C   UNL     1      -3.479   3.901  24.114  0.00  0.00    +0.013 C 
ATOM     14  C   UNL     1      -3.426   4.127  26.553  0.00  0.00    +0.013 C 
ATOM     16  C   UNL     1      -2.102   4.353  24.590  0.00  0.00    +0.001 C 
ATOM     17  C   UNL     1      -2.025   3.863  26.023  0.00  0.00    +0.001 C 
ENDBRANCH  19  12
ENDBRANCH  15   6
ENDBRANCH   8  15
BRANCH  11  18
ATOM     18  C   UNL     1      -0.569   0.568  24.905  0.00  0.00    +0.130 C 
BRANCH  18  20
ATOM      5  O   UNL     1       0.888   2.386  24.249  0.00  0.00    -0.276 OA
ATOM      7  N   UNL     1       1.324   0.248  23.458  0.00  0.00    -0.313 N 
ATOM     20  C   UNL     1       0.612   1.192  24.185  0.00  0.00    +0.216 C 
ATOM     27  H   UNL     1       0.982  -0.709  23.423  0.00  0.00    +0.149 HD
BRANCH   7  21
ATOM     21  C   UNL     1       2.487   0.584  22.689  0.00  0.00    +0.067 C 
ATOM     22  C   UNL     1       2.498  -0.193  21.379  0.00  0.00    +0.027 C 
ATOM     23  C   UNL     1       3.755   0.326  23.493  0.00  0.00    +0.027 C 
ENDBRANCH   7  21
ENDBRANCH  18  20
ENDBRANCH  11  18
TORSDOF 8
ENDMDL
MODEL 6
REMARK VINA RESULT:      -5.2      1.866      5.702
REMARK  Name = 25390420
REMARK  10 active torsions:
REMARK  status: ('A' for Active; 'I' for Inactive)
REMARK    1  A    between atoms: O_2  and  C_9
REMARK    2  A    between atoms: O_3  and  C_10
REMARK    3  A    between atoms: N_6  and  C_15
REMARK    4  A    between atoms: N_7  and  C_21
REMARK    5  A    between atoms: C_8  and  C_15
REMARK    6  A    between atoms: C_11  and  C_18
REMARK    7  A    between atoms: C_12  and  C_19
REMARK    8  A    between atoms: C_18  and  C_20
REMARK    9  A    between atoms: C_21  and  C_22
REMARK   10  A    between atoms: C_21  and  C_23
REMARK                            x       y       z     vdW  Elec       q    Type
REMARK                         _______ _______ _______ _____ _____    ______ ____
ROOT
ATOM      1  O   UNL     1      -4.234   1.906  24.234  0.00  0.00    -0.366 OA
ATOM      8  C   UNL     1      -4.687   3.261  24.394  0.00  0.00    +0.167 C 
ATOM      9  C   UNL     1      -5.522   3.269  25.663  0.00  0.00    +0.176 C 
ATOM     10  C   UNL     1      -6.180   1.906  25.603  0.00  0.00    +0.175 C 
ATOM     11  C   UNL     1      -5.058   1.037  25.045  0.00  0.00    +0.158 C 
ENDROOT
BRANCH   9   2
ATOM      2  O   UNL     1      -6.446   4.335  25.685  0.00  0.00    -0.387 OA
ATOM     25  H   UNL     1      -7.212   4.047  26.209  0.00  0.00    +0.210 HD
ENDBRANCH   9   2
BRANCH  10   3
ATOM      3  O   UNL     1      -7.247   1.913  24.656  0.00  0.00    -0.387 OA
ATOM     26  H   UNL     1      -7.789   2.700  24.835  0.00  0.00    +0.210 HD
ENDBRANCH  10   3
BRANCH   8  15
ATOM     15  C   UNL     1      -3.493   4.197  24.452  0.00  0.00    +0.138 C 
BRANCH  15   6
ATOM      4  O   UNL     1      -0.848   5.282  24.983  0.00  0.00    -0.276 OA
ATOM      6  N   UNL     1      -2.275   3.469  24.656  0.00  0.00    -0.313 N 
ATOM     19  C   UNL     1      -1.052   4.075  24.905  0.00  0.00    +0.216 C 
ATOM     24  H   UNL     1      -2.318   2.454  24.610  0.00  0.00    +0.149 HD
BRANCH  19  12
ATOM     12  C   UNL     1       0.088   3.120  25.089  0.00  0.00    +0.075 C 
ATOM     13  C   UNL     1       0.183   2.169  23.890  0.00  0.00    +0.013 C 
ATOM     14  C   UNL     1      -0.141   2.238  26.318  0.00  0.00    +0.013 C 
ATOM     16  C   UNL     1       0.109   0.760  24.470  0.00  0.00    +0.001 C 
ATOM     17  C   UNL     1      -0.678   0.929  25.757  0.00  0.00    +0.001 C 
ENDBRANCH  19  12
ENDBRANCH  15   6
ENDBRANCH   8  15
BRANCH  11  18
ATOM     18  C   UNL     1      -4.174   0.435  26.130  0.00  0.00    +0.130 C 
BRANCH  18  20
ATOM      5  O   UNL     1      -3.367  -1.807  26.554  0.00  0.00    -0.276 OA
ATOM      7  N   UNL     1      -3.438  -1.027  24.369  0.00  0.00    -0.313 N 
ATOM     20  C   UNL     1      -3.619  -0.923  25.741  0.00  0.00    +0.216 C 
ATOM     27  H   UNL     1      -3.623  -0.218  23.784  0.00  0.00    +0.149 HD
BRANCH   7  21
ATOM     21  C   UNL     1      -2.924  -2.215  23.748  0.00  0.00    +0.067 C 
ATOM     22  C   UNL     1      -3.915  -3.362  23.900  0.00  0.00    +0.027 C 
ATOM     23  C   UNL     1      -1.565  -2.580  24.331  0.00  0.00    +0.027 C 
ENDBRANCH   7  21
ENDBRANCH  18  20
ENDBRANCH  11  18
TORSDOF 8
ENDMDL
MODEL 7
REMARK VINA RESULT:      -4.7      1.888      4.810
REMARK  Name = 25390420
REMARK  10 active torsions:
REMARK  status: ('A' for Active; 'I' for Inactive)
REMARK    1  A    between atoms: O_2  and  C_9
REMARK    2  A    between atoms: O_3  and  C_10
REMARK    3  A    between atoms: N_6  and  C_15
REMARK    4  A    between atoms: N_7  and  C_21
REMARK    5  A    between atoms: C_8  and  C_15
REMARK    6  A    between atoms: C_11  and  C_18
REMARK    7  A    between atoms: C_12  and  C_19
REMARK    8  A    between atoms: C_18  and  C_20
REMARK    9  A    between atoms: C_21  and  C_22
REMARK   10  A    between atoms: C_21  and  C_23
REMARK                            x       y       z     vdW  Elec       q    Type
REMARK                         _______ _______ _______ _____ _____    ______ ____
ROOT
ATOM      1  O   UNL     1      -3.501   4.201  23.918  0.00  0.00    -0.366 OA
ATOM      8  C   UNL     1      -3.093   4.746  25.184  0.00  0.00    +0.167 C 
ATOM      9  C   UNL     1      -3.507   3.720  26.226  0.00  0.00    +0.176 C 
ATOM     10  C   UNL     1      -4.801   3.196  25.638  0.00  0.00    +0.175 C 
ATOM     11  C   UNL     1      -4.482   3.163  24.148  0.00  0.00    +0.158 C 
ENDROOT
BRANCH   9   2
ATOM      2  O   UNL     1      -3.667   4.297  27.504  0.00  0.00    -0.387 OA
ATOM     25  H   UNL     1      -3.529   5.254  27.412  0.00  0.00    +0.210 HD
ENDBRANCH   9   2
BRANCH  10   3
ATOM      3  O   UNL     1      -5.855   4.136  25.845  0.00  0.00    -0.387 OA
ATOM     26  H   UNL     1      -6.695   3.654  25.754  0.00  0.00    +0.210 HD
ENDBRANCH  10   3
BRANCH   8  15
ATOM     15  C   UNL     1      -1.599   5.017  25.166  0.00  0.00    +0.138 C 
BRANCH  15   6
ATOM      4  O   UNL     1      -0.666   3.096  23.191  0.00  0.00    -0.276 OA
ATOM      6  N   UNL     1      -0.852   3.816  25.400  0.00  0.00    -0.313 N 
ATOM     19  C   UNL     1      -0.448   2.955  24.389  0.00  0.00    +0.216 C 
ATOM     24  H   UNL     1      -0.613   3.588  26.362  0.00  0.00    +0.149 HD
BRANCH  19  12
ATOM     12  C   UNL     1       0.324   1.761  24.864  0.00  0.00    +0.075 C 
ATOM     13  C   UNL     1       1.206   1.216  23.735  0.00  0.00    +0.013 C 
ATOM     14  C   UNL     1      -0.625   0.626  25.253  0.00  0.00    +0.013 C 
ATOM     16  C   UNL     1       0.813  -0.249  23.571  0.00  0.00    +0.001 C 
ATOM     17  C   UNL     1      -0.627  -0.303  24.047  0.00  0.00    +0.001 C 
ENDBRANCH  19  12
ENDBRANCH  15   6
ENDBRANCH   8  15
BRANCH  11  18
ATOM     18  C   UNL     1      -3.875   1.841  23.697  0.00  0.00    +0.130 C 
BRANCH  18  20
ATOM      5  O   UNL     1      -5.213   0.764  25.403  0.00  0.00    -0.276 OA
ATOM      7  N   UNL     1      -3.728  -0.514  24.158  0.00  0.00    -0.313 N 
ATOM     20  C   UNL     1      -4.363   0.665  24.523  0.00  0.00    +0.216 C 
ATOM     27  H   UNL     1      -2.995  -0.483  23.454  0.00  0.00    +0.149 HD
BRANCH   7  21
ATOM     21  C   UNL     1      -4.014  -1.771  24.789  0.00  0.00    +0.067 C 
ATOM     22  C   UNL     1      -3.250  -1.888  26.102  0.00  0.00    +0.027 C 
ATOM     23  C   UNL     1      -3.684  -2.927  23.854  0.00  0.00    +0.027 C 
ENDBRANCH   7  21
ENDBRANCH  18  20
ENDBRANCH  11  18
TORSDOF 8
ENDMDL
MODEL 8
REMARK VINA RESULT:      -4.3      1.706      4.402
REMARK  Name = 25390420
REMARK  10 active torsions:
REMARK  status: ('A' for Active; 'I' for Inactive)
REMARK    1  A    between atoms: O_2  and  C_9
REMARK    2  A    between atoms: O_3  and  C_10
REMARK    3  A    between atoms: N_6  and  C_15
REMARK    4  A    between atoms: N_7  and  C_21
REMARK    5  A    between atoms: C_8  and  C_15
REMARK    6  A    between atoms: C_11  and  C_18
REMARK    7  A    between atoms: C_12  and  C_19
REMARK    8  A    between atoms: C_18  and  C_20
REMARK    9  A    between atoms: C_21  and  C_22
REMARK   10  A    between atoms: C_21  and  C_23
REMARK                            x       y       z     vdW  Elec       q    Type
REMARK                         _______ _______ _______ _____ _____    ______ ____
ROOT
ATOM      1  O   UNL     1      -2.969   2.928  26.405  0.00  0.00    -0.366 OA
ATOM      8  C   UNL     1      -3.921   3.377  25.424  0.00  0.00    +0.167 C 
ATOM      9  C   UNL     1      -3.120   3.624  24.157  0.00  0.00    +0.176 C 
ATOM     10  C   UNL     1      -1.815   4.148  24.721  0.00  0.00    +0.175 C 
ATOM     11  C   UNL     1      -1.639   3.287  25.967  0.00  0.00    +0.158 C 
ENDROOT
BRANCH   9   2
ATOM      2  O   UNL     1      -3.761   4.536  23.293  0.00  0.00    -0.387 OA
ATOM     25  H   UNL     1      -4.428   5.014  23.815  0.00  0.00    +0.210 HD
ENDBRANCH   9   2
BRANCH  10   3
ATOM      3  O   UNL     1      -1.964   5.505  25.137  0.00  0.00    -0.387 OA
ATOM     26  H   UNL     1      -2.368   5.991  24.399  0.00  0.00    +0.210 HD
ENDBRANCH  10   3
BRANCH   8  15
ATOM     15  C   UNL     1      -5.011   2.334  25.254  0.00  0.00    +0.138 C 
BRANCH  15   6
ATOM      4  O   UNL     1      -3.791   0.285  23.589  0.00  0.00    -0.276 OA
ATOM      6  N   UNL     1      -4.553   1.037  25.659  0.00  0.00    -0.313 N 
ATOM     19  C   UNL     1      -3.980   0.120  24.789  0.00  0.00    +0.216 C 
ATOM     24  H   UNL     1      -4.661   0.782  26.637  0.00  0.00    +0.149 HD
BRANCH  19  12
ATOM     12  C   UNL     1      -3.573  -1.172  25.431  0.00  0.00    +0.075 C 
ATOM     13  C   UNL     1      -2.136  -1.076  25.955  0.00  0.00    +0.013 C 
ATOM     14  C   UNL     1      -3.581  -2.309  24.406  0.00  0.00    +0.013 C 
ATOM     16  C   UNL     1      -1.376  -2.222  25.296  0.00  0.00    +0.001 C 
ATOM     17  C   UNL     1      -2.123  -2.467  23.998  0.00  0.00    +0.001 C 
ENDBRANCH  19  12
ENDBRANCH  15   6
ENDBRANCH   8  15
BRANCH  11  18
ATOM     18  C   UNL     1      -0.873   1.998  25.699  0.00  0.00    +0.130 C 
BRANCH  18  20
ATOM      5  O   UNL     1       0.362   3.164  23.974  0.00  0.00    -0.276 OA
ATOM      7  N   UNL     1       0.402   0.844  24.020  0.00  0.00    -0.313 N 
ATOM     20  C   UNL     1       0.024   2.097  24.479  0.00  0.00    +0.216 C 
ATOM     27  H   UNL     1       0.023   0.017  24.473  0.00  0.00    +0.149 HD
BRANCH   7  21
ATOM     21  C   UNL     1       1.252   0.666  22.877  0.00  0.00    +0.067 C 
ATOM     22  C   UNL     1       0.895  -0.623  22.148  0.00  0.00    +0.027 C 
ATOM     23  C   UNL     1       2.718   0.676  23.293  0.00  0.00    +0.027 C 
ENDBRANCH   7  21
ENDBRANCH  18  20
ENDBRANCH  11  18
TORSDOF 8
ENDMDL
MODEL 9
REMARK VINA RESULT:      -4.1      1.755      2.848
REMARK  Name = 25390420
REMARK  10 active torsions:
REMARK  status: ('A' for Active; 'I' for Inactive)
REMARK    1  A    between atoms: O_2  and  C_9
REMARK    2  A    between atoms: O_3  and  C_10
REMARK    3  A    between atoms: N_6  and  C_15
REMARK    4  A    between atoms: N_7  and  C_21
REMARK    5  A    between atoms: C_8  and  C_15
REMARK    6  A    between atoms: C_11  and  C_18
REMARK    7  A    between atoms: C_12  and  C_19
REMARK    8  A    between atoms: C_18  and  C_20
REMARK    9  A    between atoms: C_21  and  C_22
REMARK   10  A    between atoms: C_21  and  C_23
REMARK                            x       y       z     vdW  Elec       q    Type
REMARK                         _______ _______ _______ _____ _____    ______ ____
ROOT
ATOM      1  O   UNL     1      -1.227   2.381  23.152  0.00  0.00    -0.366 OA
ATOM      8  C   UNL     1      -0.435   2.631  24.326  0.00  0.00    +0.167 C 
ATOM      9  C   UNL     1      -1.419   2.693  25.482  0.00  0.00    +0.176 C 
ATOM     10  C   UNL     1      -2.617   3.345  24.824  0.00  0.00    +0.175 C 
ATOM     11  C   UNL     1      -2.607   2.707  23.440  0.00  0.00    +0.158 C 
ENDROOT
BRANCH   9   2
ATOM      2  O   UNL     1      -0.910   3.429  26.573  0.00  0.00    -0.387 OA
ATOM     25  H   UNL     1      -0.244   2.876  27.013  0.00  0.00    +0.210 HD
ENDBRANCH   9   2
BRANCH  10   3
ATOM      3  O   UNL     1      -2.396   4.746  24.669  0.00  0.00    -0.387 OA
ATOM     26  H   UNL     1      -3.124   5.097  24.129  0.00  0.00    +0.210 HD
ENDBRANCH  10   3
BRANCH   8  15
ATOM     15  C   UNL     1       0.608   1.538  24.481  0.00  0.00    +0.138 C 
BRANCH  15   6
ATOM      4  O   UNL     1      -0.218  -0.858  23.055  0.00  0.00    -0.276 OA
ATOM      6  N   UNL     1       0.032   0.348  25.033  0.00  0.00    -0.313 N 
ATOM     19  C   UNL     1      -0.333  -0.753  24.271  0.00  0.00    +0.216 C 
ATOM     24  H   UNL     1      -0.117   0.318  26.038  0.00  0.00    +0.149 HD
BRANCH  19  12
ATOM     12  C   UNL     1      -0.915  -1.888  25.059  0.00  0.00    +0.075 C 
ATOM     13  C   UNL     1      -2.007  -2.593  24.247  0.00  0.00    +0.013 C 
ATOM     14  C   UNL     1      -1.590  -1.371  26.330  0.00  0.00    +0.013 C 
ATOM     16  C   UNL     1      -3.260  -2.554  25.116  0.00  0.00    +0.001 C 
ATOM     17  C   UNL     1      -3.072  -1.324  25.985  0.00  0.00    +0.001 C 
ENDBRANCH  19  12
ENDBRANCH  15   6
ENDBRANCH   8  15
BRANCH  11  18
ATOM     18  C   UNL     1      -3.414   1.418  23.370  0.00  0.00    +0.130 C 
BRANCH  18  20
ATOM      5  O   UNL     1      -5.181   0.425  24.694  0.00  0.00    -0.276 OA
ATOM      7  N   UNL     1      -5.015   2.738  24.585  0.00  0.00    -0.313 N 
ATOM     20  C   UNL     1      -4.626   1.440  24.284  0.00  0.00    +0.216 C 
ATOM     27  H   UNL     1      -4.524   3.514  24.149  0.00  0.00    +0.149 HD
BRANCH   7  21
ATOM     21  C   UNL     1      -6.136   3.030  25.432  0.00  0.00    +0.067 C 
ATOM     22  C   UNL     1      -6.195   4.521  25.736  0.00  0.00    +0.027 C 
ATOM     23  C   UNL     1      -6.066   2.209  26.714  0.00  0.00    +0.027 C 
ENDBRANCH   7  21
ENDBRANCH  18  20
ENDBRANCH  11  18
TORSDOF 8
ENDMDL
MODEL 10
REMARK VINA RESULT:      -4.0      2.004      4.354
REMARK  Name = 25390420
REMARK  10 active torsions:
REMARK  status: ('A' for Active; 'I' for Inactive)
REMARK    1  A    between atoms: O_2  and  C_9
REMARK    2  A    between atoms: O_3  and  C_10
REMARK    3  A    between atoms: N_6  and  C_15
REMARK    4  A    between atoms: N_7  and  C_21
REMARK    5  A    between atoms: C_8  and  C_15
REMARK    6  A    between atoms: C_11  and  C_18
REMARK    7  A    between atoms: C_12  and  C_19
REMARK    8  A    between atoms: C_18  and  C_20
REMARK    9  A    between atoms: C_21  and  C_22
REMARK   10  A    between atoms: C_21  and  C_23
REMARK                            x       y       z     vdW  Elec       q    Type
REMARK                         _______ _______ _______ _____ _____    ______ ____
ROOT
ATOM      1  O   UNL     1      -1.898   0.000  23.879  0.00  0.00    -0.366 OA
ATOM      8  C   UNL     1      -2.238  -1.395  23.957  0.00  0.00    +0.167 C 
ATOM      9  C   UNL     1      -1.576  -1.909  25.225  0.00  0.00    +0.176 C 
ATOM     10  C   UNL     1      -0.294  -1.103  25.245  0.00  0.00    +0.175 C 
ATOM     11  C   UNL     1      -0.765   0.256  24.741  0.00  0.00    +0.158 C 
ENDROOT
BRANCH   9   2
ATOM      2  O   UNL     1      -1.359  -3.303  25.182  0.00  0.00    -0.387 OA
ATOM     25  H   UNL     1      -1.092  -3.530  24.276  0.00  0.00    +0.210 HD
ENDBRANCH   9   2
BRANCH  10   3
ATOM      3  O   UNL     1       0.637  -1.629  24.300  0.00  0.00    -0.387 OA
ATOM     26  H   UNL     1       0.525  -2.594  24.288  0.00  0.00    +0.210 HD
ENDBRANCH  10   3
BRANCH   8  15
ATOM     15  C   UNL     1      -3.748  -1.554  23.959  0.00  0.00    +0.138 C 
BRANCH  15   6
ATOM      4  O   UNL     1      -4.557   0.165  26.162  0.00  0.00    -0.276 OA
ATOM      6  N   UNL     1      -4.403  -0.282  23.879  0.00  0.00    -0.313 N 
ATOM     19  C   UNL     1      -4.752   0.472  24.991  0.00  0.00    +0.216 C 
ATOM     24  H   UNL     1      -4.622   0.079  22.955  0.00  0.00    +0.149 HD
BRANCH  19  12
ATOM     12  C   UNL     1      -5.426   1.772  24.672  0.00  0.00    +0.075 C 
ATOM     13  C   UNL     1      -4.506   2.652  23.818  0.00  0.00    +0.013 C 
ATOM     14  C   UNL     1      -5.709   2.562  25.952  0.00  0.00    +0.013 C 
ATOM     16  C   UNL     1      -4.363   3.966  24.581  0.00  0.00    +0.001 C 
ATOM     17  C   UNL     1      -4.580   3.579  26.032  0.00  0.00    +0.001 C 
ENDBRANCH  19  12
ENDBRANCH  15   6
ENDBRANCH   8  15
BRANCH  11  18
ATOM     18  C   UNL     1      -1.229   1.180  25.859  0.00  0.00    +0.130 C 
BRANCH  18  20
ATOM      5  O   UNL     1       0.523   2.711  26.525  0.00  0.00    -0.276 OA
ATOM      7  N   UNL     1      -1.104   3.435  25.037  0.00  0.00    -0.313 N 
ATOM     20  C   UNL     1      -0.490   2.505  25.864  0.00  0.00    +0.216 C 
ATOM     27  H   UNL     1      -1.974   3.186  24.574  0.00  0.00    +0.149 HD
BRANCH   7  21
ATOM     21  C   UNL     1      -0.598   4.767  24.866  0.00  0.00    +0.067 C 
ATOM     22  C   UNL     1      -1.699   5.788  25.124  0.00  0.00    +0.027 C 
ATOM     23  C   UNL     1      -0.000   4.940  23.476  0.00  0.00    +0.027 C 
ENDBRANCH   7  21
ENDBRANCH  18  20
ENDBRANCH  11  18
TORSDOF 8
ENDMDL
