MODEL 1
REMARK VINA RESULT:      -1.0      0.000      0.000
REMARK  Name = 11912178
REMARK  11 active torsions:
REMARK  status: ('A' for Active; 'I' for Inactive)
REMARK    1  A    between atoms: O_3  and  C_24
REMARK    2  A    between atoms: O_3  and  C_28
REMARK    3  A    between atoms: N_5  and  C_18
REMARK    4  A    between atoms: N_5  and  C_19
REMARK    5  A    between atoms: N_6  and  C_20
REMARK    6  A    between atoms: C_8  and  C_14
REMARK    7  A    between atoms: C_9  and  C_13
REMARK    8  A    between atoms: C_13  and  C_15
REMARK    9  A    between atoms: C_14  and  C_16
REMARK   10  A    between atoms: C_18  and  C_21
REMARK   11  A    between atoms: C_21  and  C_25
REMARK                            x       y       z     vdW  Elec       q    Type
REMARK                         _______ _______ _______ _____ _____    ______ ____
ROOT
ATOM      2  O   UNL     1      -0.425  -1.178  25.920  0.00  0.00    -0.252 OA
ATOM      4  N   UNL     1      -2.352  -1.018  24.653  0.00  0.00    -0.285 N 
ATOM      6  N   UNL     1      -0.234  -0.964  23.618  0.00  0.00    -0.269 N 
ATOM      8  C   UNL     1      -4.909   0.337  24.598  0.00  0.00    +0.004 C 
ATOM      9  C   UNL     1      -3.975   0.337  23.359  0.00  0.00    +0.010 C 
ATOM     10  C   UNL     1      -4.123   0.138  25.906  0.00  0.00    +0.023 C 
ATOM     11  C   UNL     1      -3.087  -0.919  23.384  0.00  0.00    +0.113 C 
ATOM     12  C   UNL     1      -3.214  -1.088  25.834  0.00  0.00    +0.109 C 
ATOM     17  C   UNL     1      -0.951  -1.072  24.809  0.00  0.00    +0.306 C 
ATOM     29  H   UNL     1      -0.663  -1.300  22.763  0.00  0.00    +0.156 HD
ENDROOT
BRANCH   6  20
ATOM     20  C   UNL     1       1.060  -0.413  23.440  0.00  0.00    +0.038 A 
ATOM     22  C   UNL     1       2.189  -1.213  23.624  0.00  0.00    +0.069 A 
ATOM     23  C   UNL     1       1.205   0.926  23.081  0.00  0.00    +0.023 A 
ATOM     24  C   UNL     1       3.462  -0.672  23.448  0.00  0.00    +0.122 A 
ATOM     26  C   UNL     1       2.478   1.467  22.906  0.00  0.00    +0.005 A 
ATOM     27  C   UNL     1       3.607   0.669  23.090  0.00  0.00    +0.046 A 
BRANCH  24   3
ATOM      3  O   UNL     1       4.563  -1.451  23.628  0.00  0.00    -0.495 OA
ATOM     28  C   UNL     1       5.724  -0.820  24.167  0.00  0.00    +0.277 C 
ENDBRANCH  24   3
ENDBRANCH   6  20
BRANCH   9  13
ATOM     13  C   UNL     1      -3.115   1.599  23.225  0.00  0.00    +0.002 C 
ATOM     15  C   UNL     1      -2.356   1.608  21.915  0.00  0.00    +0.004 C 
ENDBRANCH   9  13
BRANCH   8  14
ATOM     14  C   UNL     1      -5.793   1.580  24.684  0.00  0.00    +0.100 C 
BRANCH  14  16
ATOM      1  O   UNL     1      -5.606   2.430  26.917  0.00  0.00    -0.276 OA
ATOM      5  N   UNL     1      -4.507   3.615  25.254  0.00  0.00    -0.304 N 
ATOM     16  C   UNL     1      -5.304   2.568  25.729  0.00  0.00    +0.216 C 
ATOM     19  C   UNL     1      -4.162   3.759  23.844  0.00  0.00    +0.132 C 
BRANCH   5  18
ATOM     18  C   UNL     1      -3.959   4.644  26.135  0.00  0.00    +0.122 C 
BRANCH  18  21
ATOM     21  C   UNL     1      -2.471   4.877  25.905  0.00  0.00    +0.137 C 
BRANCH  21  25
ATOM      7  N   UNL     1      -1.103   2.631  25.991  0.00  0.00    -0.197 NA
ATOM     25  C   UNL     1      -1.707   3.621  25.954  0.00  0.00    +0.064 C 
ENDBRANCH  21  25
ENDBRANCH  18  21
ENDBRANCH   5  18
ENDBRANCH  14  16
ENDBRANCH   8  14
TORSDOF 8
ENDMDL
MODEL 2
REMARK VINA RESULT:       0.3     14.417     16.058
REMARK  Name = 11912178
REMARK  11 active torsions:
REMARK  status: ('A' for Active; 'I' for Inactive)
REMARK    1  A    between atoms: O_3  and  C_24
REMARK    2  A    between atoms: O_3  and  C_28
REMARK    3  A    between atoms: N_5  and  C_18
REMARK    4  A    between atoms: N_5  and  C_19
REMARK    5  A    between atoms: N_6  and  C_20
REMARK    6  A    between atoms: C_8  and  C_14
REMARK    7  A    between atoms: C_9  and  C_13
REMARK    8  A    between atoms: C_13  and  C_15
REMARK    9  A    between atoms: C_14  and  C_16
REMARK   10  A    between atoms: C_18  and  C_21
REMARK   11  A    between atoms: C_21  and  C_25
REMARK                            x       y       z     vdW  Elec       q    Type
REMARK                         _______ _______ _______ _____ _____    ______ ____
ROOT
ATOM      2  O   UNL     1      -1.241  -9.405  14.457  0.00  0.00    -0.252 OA
ATOM      4  N   UNL     1      -2.587 -10.327  12.820  0.00  0.00    -0.285 N 
ATOM      6  N   UNL     1      -0.581  -9.233  12.239  0.00  0.00    -0.269 N 
ATOM      8  C   UNL     1      -5.362 -10.497  12.013  0.00  0.00    +0.004 C 
ATOM      9  C   UNL     1      -4.259 -10.072  11.007  0.00  0.00    +0.010 C 
ATOM     10  C   UNL     1      -4.956 -10.197  13.466  0.00  0.00    +0.023 C 
ATOM     11  C   UNL     1      -2.913 -10.683  11.431  0.00  0.00    +0.113 C 
ATOM     12  C   UNL     1      -3.581 -10.776  13.796  0.00  0.00    +0.109 C 
ATOM     17  C   UNL     1      -1.437  -9.640  13.261  0.00  0.00    +0.306 C 
ATOM     29  H   UNL     1      -0.548  -9.783  11.389  0.00  0.00    +0.156 HD
ENDROOT
BRANCH   6  20
ATOM     20  C   UNL     1       0.273  -8.102  12.232  0.00  0.00    +0.038 A 
ATOM     22  C   UNL     1       1.606  -8.237  11.841  0.00  0.00    +0.069 A 
ATOM     23  C   UNL     1      -0.220  -6.855  12.614  0.00  0.00    +0.023 A 
ATOM     24  C   UNL     1       2.445  -7.123  11.833  0.00  0.00    +0.122 A 
ATOM     26  C   UNL     1       0.620  -5.741  12.607  0.00  0.00    +0.005 A 
ATOM     27  C   UNL     1       1.952  -5.875  12.216  0.00  0.00    +0.046 A 
BRANCH  24   3
ATOM      3  O   UNL     1       3.745  -7.253  11.452  0.00  0.00    -0.495 OA
ATOM     28  C   UNL     1       4.736  -7.120  12.470  0.00  0.00    +0.277 C 
ENDBRANCH  24   3
ENDBRANCH   6  20
BRANCH   9  13
ATOM     13  C   UNL     1      -4.126  -8.555  10.829  0.00  0.00    +0.002 C 
ATOM     15  C   UNL     1      -5.041  -8.051   9.732  0.00  0.00    +0.004 C 
ENDBRANCH   9  13
BRANCH   8  14
ATOM     14  C   UNL     1      -6.728  -9.888  11.698  0.00  0.00    +0.100 C 
BRANCH  14  16
ATOM      1  O   UNL     1      -7.418 -10.608  13.877  0.00  0.00    -0.276 OA
ATOM      5  N   UNL     1      -9.098 -10.014  12.393  0.00  0.00    -0.304 N 
ATOM     16  C   UNL     1      -7.763 -10.206  12.762  0.00  0.00    +0.216 C 
ATOM     19  C   UNL     1      -9.483  -9.539  11.069  0.00  0.00    +0.132 C 
BRANCH   5  18
ATOM     18  C   UNL     1     -10.209 -10.275  13.306  0.00  0.00    +0.122 C 
BRANCH  18  21
ATOM     21  C   UNL     1     -10.684  -9.016  14.021  0.00  0.00    +0.137 C 
BRANCH  21  25
ATOM      7  N   UNL     1      -9.968  -9.001  16.552  0.00  0.00    -0.197 NA
ATOM     25  C   UNL     1     -10.285  -9.008  15.437  0.00  0.00    +0.064 C 
ENDBRANCH  21  25
ENDBRANCH  18  21
ENDBRANCH   5  18
ENDBRANCH  14  16
ENDBRANCH   8  14
TORSDOF 8
ENDMDL
MODEL 3
REMARK VINA RESULT:       1.7      2.144      4.010
REMARK  Name = 11912178
REMARK  11 active torsions:
REMARK  status: ('A' for Active; 'I' for Inactive)
REMARK    1  A    between atoms: O_3  and  C_24
REMARK    2  A    between atoms: O_3  and  C_28
REMARK    3  A    between atoms: N_5  and  C_18
REMARK    4  A    between atoms: N_5  and  C_19
REMARK    5  A    between atoms: N_6  and  C_20
REMARK    6  A    between atoms: C_8  and  C_14
REMARK    7  A    between atoms: C_9  and  C_13
REMARK    8  A    between atoms: C_13  and  C_15
REMARK    9  A    between atoms: C_14  and  C_16
REMARK   10  A    between atoms: C_18  and  C_21
REMARK   11  A    between atoms: C_21  and  C_25
REMARK                            x       y       z     vdW  Elec       q    Type
REMARK                         _______ _______ _______ _____ _____    ______ ____
ROOT
ATOM      2  O   UNL     1       0.660   4.133  23.200  0.00  0.00    -0.252 OA
ATOM      4  N   UNL     1      -0.646   3.826  25.081  0.00  0.00    -0.285 N 
ATOM      6  N   UNL     1       1.005   2.245  24.503  0.00  0.00    -0.269 N 
ATOM      8  C   UNL     1      -3.400   3.971  25.963  0.00  0.00    +0.004 C 
ATOM      9  C   UNL     1      -2.536   2.710  26.234  0.00  0.00    +0.010 C 
ATOM     10  C   UNL     1      -2.897   4.755  24.738  0.00  0.00    +0.023 C 
ATOM     11  C   UNL     1      -1.052   3.108  26.298  0.00  0.00    +0.113 C 
ATOM     12  C   UNL     1      -1.402   5.056  24.839  0.00  0.00    +0.109 C 
ATOM     17  C   UNL     1       0.379   3.450  24.188  0.00  0.00    +0.306 C 
ATOM     29  H   UNL     1       1.051   1.964  25.475  0.00  0.00    +0.156 HD
ENDROOT
BRANCH   6  20
ATOM     20  C   UNL     1       1.595   1.322  23.604  0.00  0.00    +0.038 A 
ATOM     22  C   UNL     1       2.983   1.277  23.464  0.00  0.00    +0.069 A 
ATOM     23  C   UNL     1       0.791   0.460  22.861  0.00  0.00    +0.023 A 
ATOM     24  C   UNL     1       3.564   0.368  22.580  0.00  0.00    +0.122 A 
ATOM     26  C   UNL     1       1.372  -0.449  21.976  0.00  0.00    +0.005 A 
ATOM     27  C   UNL     1       2.759  -0.494  21.835  0.00  0.00    +0.046 A 
BRANCH  24   3
ATOM      3  O   UNL     1       4.918   0.323  22.442  0.00  0.00    -0.495 OA
ATOM     28  C   UNL     1       5.686   0.157  23.633  0.00  0.00    +0.277 C 
ENDBRANCH  24   3
ENDBRANCH   6  20
BRANCH   9  13
ATOM     13  C   UNL     1      -2.746   1.579  25.221  0.00  0.00    +0.002 C 
ATOM     15  C   UNL     1      -1.746   0.462  25.434  0.00  0.00    +0.004 C 
ENDBRANCH   9  13
BRANCH   8  14
ATOM     14  C   UNL     1      -4.890   3.660  25.830  0.00  0.00    +0.100 C 
BRANCH  14  16
ATOM      1  O   UNL     1      -4.892   2.688  23.639  0.00  0.00    -0.276 OA
ATOM      5  N   UNL     1      -5.728   1.381  25.362  0.00  0.00    -0.304 N 
ATOM     16  C   UNL     1      -5.163   2.546  24.835  0.00  0.00    +0.216 C 
ATOM     19  C   UNL     1      -6.040   1.234  26.779  0.00  0.00    +0.132 C 
BRANCH   5  18
ATOM     18  C   UNL     1      -6.047   0.220  24.533  0.00  0.00    +0.122 C 
BRANCH  18  21
ATOM     21  C   UNL     1      -4.839  -0.296  23.762  0.00  0.00    +0.137 C 
BRANCH  21  25
ATOM      7  N   UNL     1      -3.839  -2.471  24.853  0.00  0.00    -0.197 NA
ATOM     25  C   UNL     1      -4.279  -1.512  24.373  0.00  0.00    +0.064 C 
ENDBRANCH  21  25
ENDBRANCH  18  21
ENDBRANCH   5  18
ENDBRANCH  14  16
ENDBRANCH   8  14
TORSDOF 8
ENDMDL
MODEL 4
REMARK VINA RESULT:       2.2      1.359      1.775
REMARK  Name = 11912178
REMARK  11 active torsions:
REMARK  status: ('A' for Active; 'I' for Inactive)
REMARK    1  A    between atoms: O_3  and  C_24
REMARK    2  A    between atoms: O_3  and  C_28
REMARK    3  A    between atoms: N_5  and  C_18
REMARK    4  A    between atoms: N_5  and  C_19
REMARK    5  A    between atoms: N_6  and  C_20
REMARK    6  A    between atoms: C_8  and  C_14
REMARK    7  A    between atoms: C_9  and  C_13
REMARK    8  A    between atoms: C_13  and  C_15
REMARK    9  A    between atoms: C_14  and  C_16
REMARK   10  A    between atoms: C_18  and  C_21
REMARK   11  A    between atoms: C_21  and  C_25
REMARK                            x       y       z     vdW  Elec       q    Type
REMARK                         _______ _______ _______ _____ _____    ______ ____
ROOT
ATOM      2  O   UNL     1       0.227  -2.305  24.943  0.00  0.00    -0.252 OA
ATOM      4  N   UNL     1      -1.768  -1.349  24.277  0.00  0.00    -0.285 N 
ATOM      6  N   UNL     1       0.248  -0.777  23.197  0.00  0.00    -0.269 N 
ATOM      8  C   UNL     1      -4.155  -0.123  25.363  0.00  0.00    +0.004 C 
ATOM      9  C   UNL     1      -3.333   0.574  24.246  0.00  0.00    +0.010 C 
ATOM     10  C   UNL     1      -3.289  -1.089  26.191  0.00  0.00    +0.023 C 
ATOM     11  C   UNL     1      -2.592  -0.488  23.416  0.00  0.00    +0.113 C 
ATOM     12  C   UNL     1      -2.531  -2.069  25.298  0.00  0.00    +0.109 C 
ATOM     17  C   UNL     1      -0.374  -1.541  24.184  0.00  0.00    +0.306 C 
ATOM     29  H   UNL     1      -0.285  -0.524  22.373  0.00  0.00    +0.156 HD
ENDROOT
BRANCH   6  20
ATOM     20  C   UNL     1       1.576  -0.281  23.203  0.00  0.00    +0.038 A 
ATOM     22  C   UNL     1       2.638  -1.135  23.504  0.00  0.00    +0.069 A 
ATOM     23  C   UNL     1       1.821   1.059  22.908  0.00  0.00    +0.023 A 
ATOM     24  C   UNL     1       3.944  -0.647  23.509  0.00  0.00    +0.122 A 
ATOM     26  C   UNL     1       3.127   1.547  22.914  0.00  0.00    +0.005 A 
ATOM     27  C   UNL     1       4.189   0.694  23.215  0.00  0.00    +0.046 A 
BRANCH  24   3
ATOM      3  O   UNL     1       4.980  -1.479  23.803  0.00  0.00    -0.495 OA
ATOM     28  C   UNL     1       6.192  -0.874  24.252  0.00  0.00    +0.277 C 
ENDBRANCH  24   3
ENDBRANCH   6  20
BRANCH   9  13
ATOM     13  C   UNL     1      -2.353   1.634  24.760  0.00  0.00    +0.002 C 
ATOM     15  C   UNL     1      -1.394   2.066  23.670  0.00  0.00    +0.004 C 
ENDBRANCH   9  13
BRANCH   8  14
ATOM     14  C   UNL     1      -4.885   0.863  26.274  0.00  0.00    +0.100 C 
BRANCH  14  16
ATOM      1  O   UNL     1      -6.412   1.849  24.712  0.00  0.00    -0.276 OA
ATOM      5  N   UNL     1      -4.919   3.282  25.758  0.00  0.00    -0.304 N 
ATOM     16  C   UNL     1      -5.484   2.028  25.505  0.00  0.00    +0.216 C 
ATOM     19  C   UNL     1      -3.821   3.470  26.700  0.00  0.00    +0.132 C 
BRANCH   5  18
ATOM     18  C   UNL     1      -5.385   4.499  25.098  0.00  0.00    +0.122 C 
BRANCH  18  21
ATOM     21  C   UNL     1      -4.378   5.038  24.089  0.00  0.00    +0.137 C 
BRANCH  21  25
ATOM      7  N   UNL     1      -3.917   3.321  22.151  0.00  0.00    -0.197 NA
ATOM     25  C   UNL     1      -4.122   4.077  23.005  0.00  0.00    +0.064 C 
ENDBRANCH  21  25
ENDBRANCH  18  21
ENDBRANCH   5  18
ENDBRANCH  14  16
ENDBRANCH   8  14
TORSDOF 8
ENDMDL
