MODEL 1
REMARK VINA RESULT:      -2.6      0.000      0.000
REMARK  Name = 44716394
REMARK  6 active torsions:
REMARK  status: ('A' for Active; 'I' for Inactive)
REMARK    1  A    between atoms: N_3  and  C_14
REMARK    2  A    between atoms: N_4  and  C_15
REMARK    3  A    between atoms: N_5  and  C_21
REMARK    4  A    between atoms: N_6  and  C_22
REMARK    5  A    between atoms: C_8  and  C_14
REMARK    6  A    between atoms: C_9  and  C_15
REMARK                            x       y       z     vdW  Elec       q    Type
REMARK                         _______ _______ _______ _____ _____    ______ ____
ROOT
ATOM      2  N   UNL     1      -3.208  -1.620  23.814  0.00  0.00    -0.298 NA
ATOM      7  C   UNL     1      -3.607  -0.406  26.080  0.00  0.00    -0.003 C 
ATOM      8  C   UNL     1      -4.760  -0.122  25.092  0.00  0.00    +0.020 C 
ATOM      9  C   UNL     1      -2.007  -0.821  24.182  0.00  0.00    +0.074 C 
ATOM     10  C   UNL     1      -2.272   0.027  25.446  0.00  0.00    +0.024 C 
ATOM     11  C   UNL     1      -4.402  -0.745  23.724  0.00  0.00    +0.089 C 
ATOM     12  C   UNL     1      -3.546  -1.935  26.269  0.00  0.00    +0.019 C 
ATOM     13  C   UNL     1      -3.443  -2.612  24.891  0.00  0.00    +0.085 C 
ENDROOT
BRANCH   8  14
ATOM     14  C   UNL     1      -5.091   1.363  24.965  0.00  0.00    +0.089 C 
BRANCH  14   3
ATOM      3  N   UNL     1      -3.888   2.180  25.112  0.00  0.00    -0.300 NA
ATOM      5  N   UNL     1      -2.409   4.653  24.881  0.00  0.00    -0.303 NA
ATOM     16  C   UNL     1      -3.433   2.676  23.808  0.00  0.00    +0.100 C 
ATOM     17  C   UNL     1      -4.127   3.299  26.031  0.00  0.00    +0.100 C 
ATOM     18  C   UNL     1      -2.172   3.535  23.961  0.00  0.00    +0.099 C 
ATOM     19  C   UNL     1      -2.866   4.157  26.185  0.00  0.00    +0.099 C 
ATOM     21  C   UNL     1      -1.206   5.469  25.029  0.00  0.00    +0.105 C 
ENDBRANCH  14   3
ENDBRANCH   8  14
BRANCH   9  15
ATOM     15  C   UNL     1      -1.498   0.035  23.020  0.00  0.00    +0.124 C 
BRANCH  15   4
ATOM      1  O   UNL     1       0.940   0.774  24.330  0.00  0.00    -0.253 OA
ATOM      4  N   UNL     1      -0.152  -0.362  22.640  0.00  0.00    -0.298 N 
ATOM      6  N   UNL     1       2.129  -0.486  22.747  0.00  0.00    -0.269 N 
ATOM     20  C   UNL     1       0.981   0.048  23.340  0.00  0.00    +0.304 C 
ATOM     28  H   UNL     1      -0.039  -0.959  21.827  0.00  0.00    +0.150 HD
ATOM     29  H   UNL     1       1.988  -1.072  21.927  0.00  0.00    +0.156 HD
BRANCH   6  22
ATOM     22  C   UNL     1       3.474  -0.313  23.147  0.00  0.00    +0.035 A 
ATOM     23  C   UNL     1       4.157  -1.360  23.766  0.00  0.00    +0.023 A 
ATOM     24  C   UNL     1       4.117   0.904  22.925  0.00  0.00    +0.023 A 
ATOM     25  C   UNL     1       5.484  -1.190  24.162  0.00  0.00    +0.002 A 
ATOM     26  C   UNL     1       5.445   1.075  23.320  0.00  0.00    +0.002 A 
ATOM     27  C   UNL     1       6.128   0.027  23.938  0.00  0.00    +0.000 A 
ENDBRANCH   6  22
ENDBRANCH  15   4
ENDBRANCH   9  15
TORSDOF 5
ENDMDL
MODEL 2
REMARK VINA RESULT:      -2.2      1.170      4.258
REMARK  Name = 44716394
REMARK  6 active torsions:
REMARK  status: ('A' for Active; 'I' for Inactive)
REMARK    1  A    between atoms: N_3  and  C_14
REMARK    2  A    between atoms: N_4  and  C_15
REMARK    3  A    between atoms: N_5  and  C_21
REMARK    4  A    between atoms: N_6  and  C_22
REMARK    5  A    between atoms: C_8  and  C_14
REMARK    6  A    between atoms: C_9  and  C_15
REMARK                            x       y       z     vdW  Elec       q    Type
REMARK                         _______ _______ _______ _____ _____    ______ ____
ROOT
ATOM      2  N   UNL     1      -1.616   3.003  24.723  0.00  0.00    -0.298 NA
ATOM      7  C   UNL     1      -4.146   3.485  24.359  0.00  0.00    -0.003 C 
ATOM      8  C   UNL     1      -3.928   2.603  25.608  0.00  0.00    +0.020 C 
ATOM      9  C   UNL     1      -2.006   2.657  23.329  0.00  0.00    +0.074 C 
ATOM     10  C   UNL     1      -3.532   2.792  23.129  0.00  0.00    +0.024 C 
ATOM     11  C   UNL     1      -2.430   2.230  25.692  0.00  0.00    +0.089 C 
ATOM     12  C   UNL     1      -3.358   4.789  24.589  0.00  0.00    +0.019 C 
ATOM     13  C   UNL     1      -1.897   4.444  24.930  0.00  0.00    +0.085 C 
ENDROOT
BRANCH   8  14
ATOM     14  C   UNL     1      -4.818   1.363  25.632  0.00  0.00    +0.089 C 
BRANCH  14   3
ATOM      3  N   UNL     1      -4.114   0.203  25.088  0.00  0.00    -0.300 NA
ATOM      5  N   UNL     1      -3.791  -2.631  24.624  0.00  0.00    -0.303 NA
ATOM     16  C   UNL     1      -3.689  -0.701  26.163  0.00  0.00    +0.100 C 
ATOM     17  C   UNL     1      -4.955  -0.510  24.120  0.00  0.00    +0.100 C 
ATOM     18  C   UNL     1      -2.951  -1.918  25.593  0.00  0.00    +0.099 C 
ATOM     19  C   UNL     1      -4.217  -1.727  23.549  0.00  0.00    +0.099 C 
ATOM     21  C   UNL     1      -3.085  -3.789  24.078  0.00  0.00    +0.105 C 
ENDBRANCH  14   3
ENDBRANCH   8  14
BRANCH   9  15
ATOM     15  C   UNL     1      -1.497   1.276  22.907  0.00  0.00    +0.124 C 
BRANCH  15   4
ATOM      1  O   UNL     1       0.566  -0.282  24.139  0.00  0.00    -0.253 OA
ATOM      4  N   UNL     1      -0.076   1.321  22.604  0.00  0.00    -0.298 N 
ATOM      6  N   UNL     1       2.140   0.781  22.760  0.00  0.00    -0.269 N 
ATOM     20  C   UNL     1       0.860   0.523  23.258  0.00  0.00    +0.304 C 
ATOM     28  H   UNL     1       0.242   1.967  21.889  0.00  0.00    +0.150 HD
ATOM     29  H   UNL     1       2.212   1.482  22.026  0.00  0.00    +0.156 HD
BRANCH   6  22
ATOM     22  C   UNL     1       3.362   0.186  23.153  0.00  0.00    +0.035 A 
ATOM     23  C   UNL     1       4.531   0.945  23.174  0.00  0.00    +0.023 A 
ATOM     24  C   UNL     1       3.397  -1.159  23.518  0.00  0.00    +0.023 A 
ATOM     25  C   UNL     1       5.736   0.358  23.561  0.00  0.00    +0.002 A 
ATOM     26  C   UNL     1       4.602  -1.747  23.906  0.00  0.00    +0.002 A 
ATOM     27  C   UNL     1       5.772  -0.987  23.927  0.00  0.00    +0.000 A 
ENDBRANCH   6  22
ENDBRANCH  15   4
ENDBRANCH   9  15
TORSDOF 5
ENDMDL
MODEL 3
REMARK VINA RESULT:      -2.0      2.115      6.703
REMARK  Name = 44716394
REMARK  6 active torsions:
REMARK  status: ('A' for Active; 'I' for Inactive)
REMARK    1  A    between atoms: N_3  and  C_14
REMARK    2  A    between atoms: N_4  and  C_15
REMARK    3  A    between atoms: N_5  and  C_21
REMARK    4  A    between atoms: N_6  and  C_22
REMARK    5  A    between atoms: C_8  and  C_14
REMARK    6  A    between atoms: C_9  and  C_15
REMARK                            x       y       z     vdW  Elec       q    Type
REMARK                         _______ _______ _______ _____ _____    ______ ____
ROOT
ATOM      2  N   UNL     1      -3.663   4.598  24.054  0.00  0.00    -0.298 NA
ATOM      7  C   UNL     1      -1.828   4.348  25.881  0.00  0.00    -0.003 C 
ATOM      8  C   UNL     1      -1.703   3.233  24.818  0.00  0.00    +0.020 C 
ATOM      9  C   UNL     1      -4.286   4.604  25.405  0.00  0.00    +0.074 C 
ATOM     10  C   UNL     1      -3.237   4.308  26.501  0.00  0.00    +0.024 C 
ATOM     11  C   UNL     1      -2.898   3.344  23.845  0.00  0.00    +0.089 C 
ATOM     12  C   UNL     1      -1.695   5.691  25.137  0.00  0.00    +0.019 C 
ATOM     13  C   UNL     1      -2.713   5.734  23.984  0.00  0.00    +0.085 C 
ENDROOT
BRANCH   8  14
ATOM     14  C   UNL     1      -1.599   1.834  25.423  0.00  0.00    +0.089 C 
BRANCH  14   3
ATOM      3  N   UNL     1      -0.422   1.132  24.914  0.00  0.00    -0.300 NA
ATOM      5  N   UNL     1       1.333   0.244  22.795  0.00  0.00    -0.303 NA
ATOM     16  C   UNL     1      -0.813   0.048  24.005  0.00  0.00    +0.100 C 
ATOM     17  C   UNL     1       0.489   2.064  24.238  0.00  0.00    +0.100 C 
ATOM     18  C   UNL     1       0.421  -0.687  23.470  0.00  0.00    +0.099 C 
ATOM     19  C   UNL     1       1.723   1.329  23.704  0.00  0.00    +0.099 C 
ATOM     21  C   UNL     1       2.511  -0.457  22.289  0.00  0.00    +0.105 C 
ENDBRANCH  14   3
ENDBRANCH   8  14
BRANCH   9  15
ATOM     15  C   UNL     1      -5.487   3.661  25.498  0.00  0.00    +0.124 C 
BRANCH  15   4
ATOM      1  O   UNL     1      -4.856   1.431  23.816  0.00  0.00    -0.253 OA
ATOM      4  N   UNL     1      -5.070   2.337  25.930  0.00  0.00    -0.298 N 
ATOM      6  N   UNL     1      -4.411   0.157  25.735  0.00  0.00    -0.269 N 
ATOM     20  C   UNL     1      -4.783   1.308  25.036  0.00  0.00    +0.304 C 
ATOM     28  H   UNL     1      -4.993   2.159  26.926  0.00  0.00    +0.150 HD
ATOM     29  H   UNL     1      -4.402   0.222  26.750  0.00  0.00    +0.156 HD
BRANCH   6  22
ATOM     22  C   UNL     1      -4.043  -1.102  25.204  0.00  0.00    +0.035 A 
ATOM     23  C   UNL     1      -4.499  -1.486  23.944  0.00  0.00    +0.023 A 
ATOM     24  C   UNL     1      -3.225  -1.957  25.940  0.00  0.00    +0.023 A 
ATOM     25  C   UNL     1      -4.137  -2.727  23.420  0.00  0.00    +0.002 A 
ATOM     26  C   UNL     1      -2.861  -3.199  25.416  0.00  0.00    +0.002 A 
ATOM     27  C   UNL     1      -3.318  -3.584  24.155  0.00  0.00    +0.000 A 
ENDBRANCH   6  22
ENDBRANCH  15   4
ENDBRANCH   9  15
TORSDOF 5
ENDMDL
MODEL 4
REMARK VINA RESULT:      -0.8      1.942      4.919
REMARK  Name = 44716394
REMARK  6 active torsions:
REMARK  status: ('A' for Active; 'I' for Inactive)
REMARK    1  A    between atoms: N_3  and  C_14
REMARK    2  A    between atoms: N_4  and  C_15
REMARK    3  A    between atoms: N_5  and  C_21
REMARK    4  A    between atoms: N_6  and  C_22
REMARK    5  A    between atoms: C_8  and  C_14
REMARK    6  A    between atoms: C_9  and  C_15
REMARK                            x       y       z     vdW  Elec       q    Type
REMARK                         _______ _______ _______ _____ _____    ______ ____
ROOT
ATOM      2  N   UNL     1      -3.330   3.733  26.354  0.00  0.00    -0.298 NA
ATOM      7  C   UNL     1      -4.430   3.348  24.029  0.00  0.00    -0.003 C 
ATOM      8  C   UNL     1      -3.733   2.063  24.529  0.00  0.00    +0.020 C 
ATOM      9  C   UNL     1      -2.887   4.786  25.401  0.00  0.00    +0.074 C 
ATOM     10  C   UNL     1      -3.406   4.496  23.975  0.00  0.00    +0.024 C 
ATOM     11  C   UNL     1      -2.979   2.388  25.837  0.00  0.00    +0.089 C 
ATOM     12  C   UNL     1      -5.484   3.726  25.088  0.00  0.00    +0.019 C 
ATOM     13  C   UNL     1      -4.807   3.813  26.468  0.00  0.00    +0.085 C 
ENDROOT
BRANCH   8  14
ATOM     14  C   UNL     1      -2.809   1.436  23.488  0.00  0.00    +0.089 C 
BRANCH  14   3
ATOM      3  N   UNL     1      -2.871  -0.024  23.546  0.00  0.00    -0.300 NA
ATOM      5  N   UNL     1      -3.364  -2.530  24.899  0.00  0.00    -0.303 NA
ATOM     16  C   UNL     1      -1.933  -0.546  24.546  0.00  0.00    +0.100 C 
ATOM     17  C   UNL     1      -4.236  -0.476  23.838  0.00  0.00    +0.100 C 
ATOM     18  C   UNL     1      -1.998  -2.077  24.609  0.00  0.00    +0.099 C 
ATOM     19  C   UNL     1      -4.303  -2.006  23.899  0.00  0.00    +0.099 C 
ATOM     21  C   UNL     1      -3.426  -3.989  24.955  0.00  0.00    +0.105 C 
ENDBRANCH  14   3
ENDBRANCH   8  14
BRANCH   9  15
ATOM     15  C   UNL     1      -1.371   4.992  25.423  0.00  0.00    +0.124 C 
BRANCH  15   4
ATOM      1  O   UNL     1       0.109   3.949  23.204  0.00  0.00    -0.253 OA
ATOM      4  N   UNL     1      -0.677   3.716  25.364  0.00  0.00    -0.298 N 
ATOM      6  N   UNL     1       0.583   2.031  24.470  0.00  0.00    -0.269 N 
ATOM     20  C   UNL     1       0.021   3.289  24.236  0.00  0.00    +0.304 C 
ATOM     28  H   UNL     1      -0.710   3.113  26.180  0.00  0.00    +0.150 HD
ATOM     29  H   UNL     1       0.414   1.618  25.384  0.00  0.00    +0.156 HD
BRANCH   6  22
ATOM     22  C   UNL     1       1.364   1.250  23.585  0.00  0.00    +0.035 A 
ATOM     23  C   UNL     1       2.725   1.514  23.439  0.00  0.00    +0.023 A 
ATOM     24  C   UNL     1       0.772   0.217  22.859  0.00  0.00    +0.023 A 
ATOM     25  C   UNL     1       3.495   0.746  22.567  0.00  0.00    +0.002 A 
ATOM     26  C   UNL     1       1.542  -0.553  21.986  0.00  0.00    +0.002 A 
ATOM     27  C   UNL     1       2.905  -0.288  21.840  0.00  0.00    +0.000 A 
ENDBRANCH   6  22
ENDBRANCH  15   4
ENDBRANCH   9  15
TORSDOF 5
ENDMDL
MODEL 5
REMARK VINA RESULT:       1.0      1.676      4.529
REMARK  Name = 44716394
REMARK  6 active torsions:
REMARK  status: ('A' for Active; 'I' for Inactive)
REMARK    1  A    between atoms: N_3  and  C_14
REMARK    2  A    between atoms: N_4  and  C_15
REMARK    3  A    between atoms: N_5  and  C_21
REMARK    4  A    between atoms: N_6  and  C_22
REMARK    5  A    between atoms: C_8  and  C_14
REMARK    6  A    between atoms: C_9  and  C_15
REMARK                            x       y       z     vdW  Elec       q    Type
REMARK                         _______ _______ _______ _____ _____    ______ ____
ROOT
ATOM      2  N   UNL     1      -4.015   3.384  26.363  0.00  0.00    -0.298 NA
ATOM      7  C   UNL     1      -4.629   3.470  23.836  0.00  0.00    -0.003 C 
ATOM      8  C   UNL     1      -4.630   2.014  24.355  0.00  0.00    +0.020 C 
ATOM      9  C   UNL     1      -2.990   4.163  25.616  0.00  0.00    +0.074 C 
ATOM     10  C   UNL     1      -3.249   4.103  24.094  0.00  0.00    +0.024 C 
ATOM     11  C   UNL     1      -4.120   2.011  25.814  0.00  0.00    +0.089 C 
ATOM     12  C   UNL     1      -5.653   4.247  24.685  0.00  0.00    +0.019 C 
ATOM     13  C   UNL     1      -5.324   4.057  26.177  0.00  0.00    +0.085 C 
ENDROOT
BRANCH   8  14
ATOM     14  C   UNL     1      -3.823   1.061  23.475  0.00  0.00    +0.089 C 
BRANCH  14   3
ATOM      3  N   UNL     1      -3.207   0.006  24.277  0.00  0.00    -0.300 NA
ATOM      5  N   UNL     1      -1.658  -2.413  24.600  0.00  0.00    -0.303 NA
ATOM     16  C   UNL     1      -3.763  -1.307  23.928  0.00  0.00    +0.100 C 
ATOM     17  C   UNL     1      -1.749   0.007  24.108  0.00  0.00    +0.100 C 
ATOM     18  C   UNL     1      -3.116  -2.414  24.767  0.00  0.00    +0.099 C 
ATOM     19  C   UNL     1      -1.101  -1.100  24.948  0.00  0.00    +0.099 C 
ATOM     21  C   UNL     1      -1.042  -3.467  25.404  0.00  0.00    +0.105 C 
ENDBRANCH  14   3
ENDBRANCH   8  14
BRANCH   9  15
ATOM     15  C   UNL     1      -1.564   3.735  25.967  0.00  0.00    +0.124 C 
BRANCH  15   4
ATOM      1  O   UNL     1       0.810   2.133  25.962  0.00  0.00    -0.253 OA
ATOM      4  N   UNL     1      -0.889   3.184  24.803  0.00  0.00    -0.298 N 
ATOM      6  N   UNL     1       0.686   2.024  23.621  0.00  0.00    -0.269 N 
ATOM     20  C   UNL     1       0.267   2.412  24.896  0.00  0.00    +0.304 C 
ATOM     28  H   UNL     1      -1.279   3.378  23.886  0.00  0.00    +0.150 HD
ATOM     29  H   UNL     1       0.120   2.342  22.837  0.00  0.00    +0.156 HD
BRANCH   6  22
ATOM     22  C   UNL     1       1.811   1.237  23.278  0.00  0.00    +0.035 A 
ATOM     23  C   UNL     1       1.664  -0.133  23.067  0.00  0.00    +0.023 A 
ATOM     24  C   UNL     1       3.066   1.832  23.153  0.00  0.00    +0.023 A 
ATOM     25  C   UNL     1       2.773  -0.909  22.730  0.00  0.00    +0.002 A 
ATOM     26  C   UNL     1       4.176   1.056  22.816  0.00  0.00    +0.002 A 
ATOM     27  C   UNL     1       4.029  -0.316  22.604  0.00  0.00    +0.000 A 
ENDBRANCH   6  22
ENDBRANCH  15   4
ENDBRANCH   9  15
TORSDOF 5
ENDMDL
