MODEL 1
REMARK VINA RESULT:      -1.4      0.000      0.000
REMARK  Name = 45783826
REMARK  9 active torsions:
REMARK  status: ('A' for Active; 'I' for Inactive)
REMARK    1  A    between atoms: O_5  and  C_21
REMARK    2  A    between atoms: O_5  and  C_29
REMARK    3  A    between atoms: N_6  and  C_15
REMARK    4  A    between atoms: N_10  and  C_28
REMARK    5  A    between atoms: N_10  and  C_30
REMARK    6  A    between atoms: N_10  and  C_31
REMARK    7  A    between atoms: C_11  and  C_16
REMARK    8  A    between atoms: C_15  and  C_17
REMARK    9  A    between atoms: C_20  and  C_23
REMARK                            x       y       z     vdW  Elec       q    Type
REMARK                         _______ _______ _______ _____ _____    ______ ____
ROOT
ATOM      6  N   UNL     1      -4.710   2.111  25.355  0.00  0.00    -0.287 NA
ATOM     11  C   UNL     1      -4.305   2.893  24.170  0.00  0.00    +0.146 C 
ATOM     12  C   UNL     1      -4.083   4.322  24.702  0.00  0.00    +0.030 C 
ATOM     13  C   UNL     1      -4.445   4.256  26.178  0.00  0.00    +0.017 C 
ATOM     14  C   UNL     1      -5.358   3.051  26.270  0.00  0.00    +0.085 C 
ENDROOT
BRANCH  11  16
ATOM      4  O   UNL     1      -3.169   2.124  22.147  0.00  0.00    -0.336 OA
ATOM      7  N   UNL     1      -1.922   1.992  24.004  0.00  0.00    -0.190 NA
ATOM      8  N   UNL     1      -1.932   1.602  21.749  0.00  0.00    -0.056 NA
ATOM     16  C   UNL     1      -3.079   2.326  23.488  0.00  0.00    +0.245 A 
ATOM     20  C   UNL     1      -1.252   1.553  22.899  0.00  0.00    +0.204 A 
BRANCH  20  23
ATOM      9  N   UNL     1       2.325   1.314  23.886  0.00  0.00    -0.240 NA
ATOM     23  C   UNL     1       0.098   1.073  22.977  0.00  0.00    +0.041 A 
ATOM     25  C   UNL     1       0.503  -0.047  22.261  0.00  0.00    +0.016 A 
ATOM     26  C   UNL     1       1.039   1.713  23.768  0.00  0.00    +0.124 A 
ATOM     27  C   UNL     1       1.818  -0.489  22.357  0.00  0.00    +0.044 A 
ATOM     28  C   UNL     1       2.682   0.220  23.176  0.00  0.00    +0.121 A 
BRANCH  28  10
ATOM     10  N   UNL     1       4.019  -0.242  23.263  0.00  0.00    -0.321 N 
ATOM     30  C   UNL     1       5.107   0.588  22.799  0.00  0.00    +0.130 C 
ATOM     31  C   UNL     1       4.301  -1.550  23.811  0.00  0.00    +0.130 C 
ENDBRANCH  28  10
ENDBRANCH  20  23
ENDBRANCH  11  16
BRANCH   6  15
ATOM     15  C   UNL     1      -5.570   0.980  25.031  0.00  0.00    +0.120 C 
BRANCH  15  17
ATOM     17  C   UNL     1      -4.777  -0.277  24.791  0.00  0.00    -0.030 A 
ATOM     18  C   UNL     1      -3.628  -0.530  25.541  0.00  0.00    +0.051 A 
ATOM     19  C   UNL     1      -5.189  -1.189  23.820  0.00  0.00    +0.005 A 
ATOM     21  C   UNL     1      -2.892  -1.694  25.320  0.00  0.00    +0.130 A 
ATOM     22  C   UNL     1      -4.454  -2.352  23.598  0.00  0.00    +0.004 A 
ATOM     24  C   UNL     1      -3.305  -2.606  24.349  0.00  0.00    +0.046 A 
BRANCH  21   5
ATOM      5  O   UNL     1      -1.771  -1.940  26.051  0.00  0.00    -0.406 OA
BRANCH   5  29
ATOM      1  F   UNL     1      -0.238  -0.288  25.657  0.00  0.00    -0.133 F 
ATOM      2  F   UNL     1      -0.547  -1.848  24.158  0.00  0.00    -0.133 F 
ATOM      3  F   UNL     1       0.480  -2.346  26.022  0.00  0.00    -0.133 F 
ATOM     29  C   UNL     1      -0.509  -1.600  25.487  0.00  0.00    +0.575 C 
ENDBRANCH   5  29
ENDBRANCH  21   5
ENDBRANCH  15  17
ENDBRANCH   6  15
TORSDOF 7
ENDMDL
MODEL 2
REMARK VINA RESULT:       0.8      2.453      4.637
REMARK  Name = 45783826
REMARK  9 active torsions:
REMARK  status: ('A' for Active; 'I' for Inactive)
REMARK    1  A    between atoms: O_5  and  C_21
REMARK    2  A    between atoms: O_5  and  C_29
REMARK    3  A    between atoms: N_6  and  C_15
REMARK    4  A    between atoms: N_10  and  C_28
REMARK    5  A    between atoms: N_10  and  C_30
REMARK    6  A    between atoms: N_10  and  C_31
REMARK    7  A    between atoms: C_11  and  C_16
REMARK    8  A    between atoms: C_15  and  C_17
REMARK    9  A    between atoms: C_20  and  C_23
REMARK                            x       y       z     vdW  Elec       q    Type
REMARK                         _______ _______ _______ _____ _____    ______ ____
ROOT
ATOM      6  N   UNL     1      -3.625  -1.118  24.568  0.00  0.00    -0.287 NA
ATOM     11  C   UNL     1      -2.389  -1.925  24.620  0.00  0.00    +0.146 C 
ATOM     12  C   UNL     1      -2.694  -3.163  23.756  0.00  0.00    +0.030 C 
ATOM     13  C   UNL     1      -4.140  -2.992  23.314  0.00  0.00    +0.017 C 
ATOM     14  C   UNL     1      -4.725  -2.059  24.354  0.00  0.00    +0.085 C 
ENDROOT
BRANCH  11  16
ATOM      4  O   UNL     1      -1.412   0.000  23.473  0.00  0.00    -0.336 OA
ATOM      7  N   UNL     1       0.096  -1.455  24.266  0.00  0.00    -0.190 NA
ATOM      8  N   UNL     1      -0.155   0.518  23.133  0.00  0.00    -0.056 NA
ATOM     16  C   UNL     1      -1.174  -1.161  24.138  0.00  0.00    +0.245 A 
ATOM     20  C   UNL     1       0.681  -0.397  23.634  0.00  0.00    +0.204 A 
BRANCH  20  23
ATOM      9  N   UNL     1       4.288  -1.282  23.811  0.00  0.00    -0.240 NA
ATOM     23  C   UNL     1       2.107  -0.281  23.522  0.00  0.00    +0.041 A 
ATOM     25  C   UNL     1       2.696   0.882  23.039  0.00  0.00    +0.016 A 
ATOM     26  C   UNL     1       2.940  -1.325  23.892  0.00  0.00    +0.124 A 
ATOM     27  C   UNL     1       4.080   0.964  22.941  0.00  0.00    +0.044 A 
ATOM     28  C   UNL     1       4.826  -0.135  23.337  0.00  0.00    +0.121 A 
BRANCH  28  10
ATOM     10  N   UNL     1       6.235  -0.036  23.232  0.00  0.00    -0.321 N 
ATOM     30  C   UNL     1       6.975  -0.999  22.447  0.00  0.00    +0.130 C 
ATOM     31  C   UNL     1       6.943   1.025  23.913  0.00  0.00    +0.130 C 
ENDBRANCH  28  10
ENDBRANCH  20  23
ENDBRANCH  11  16
BRANCH   6  15
ATOM     15  C   UNL     1      -3.827  -0.299  25.757  0.00  0.00    +0.120 C 
BRANCH  15  17
ATOM     17  C   UNL     1      -4.166   1.125  25.405  0.00  0.00    -0.030 A 
ATOM     18  C   UNL     1      -3.160   2.000  24.994  0.00  0.00    +0.051 A 
ATOM     19  C   UNL     1      -5.484   1.571  25.491  0.00  0.00    +0.005 A 
ATOM     21  C   UNL     1      -3.473   3.320  24.669  0.00  0.00    +0.130 A 
ATOM     22  C   UNL     1      -5.797   2.891  25.167  0.00  0.00    +0.004 A 
ATOM     24  C   UNL     1      -4.791   3.765  24.754  0.00  0.00    +0.046 A 
BRANCH  21   5
ATOM      5  O   UNL     1      -2.490   4.172  24.267  0.00  0.00    -0.406 OA
BRANCH   5  29
ATOM      1  F   UNL     1      -0.436   3.977  25.253  0.00  0.00    -0.133 F 
ATOM      2  F   UNL     1      -2.161   4.542  26.469  0.00  0.00    -0.133 F 
ATOM      3  F   UNL     1      -1.336   5.985  25.050  0.00  0.00    -0.133 F 
ATOM     29  C   UNL     1      -1.592   4.675  25.250  0.00  0.00    +0.575 C 
ENDBRANCH   5  29
ENDBRANCH  21   5
ENDBRANCH  15  17
ENDBRANCH   6  15
TORSDOF 7
ENDMDL
