MODEL 1
REMARK VINA RESULT:       0.4      0.000      0.000
REMARK  Name = 38029949
REMARK  11 active torsions:
REMARK  status: ('A' for Active; 'I' for Inactive)
REMARK    1  A    between atoms: O_2  and  C_25
REMARK    2  A    between atoms: O_2  and  C_30
REMARK    3  A    between atoms: N_4  and  C_24
REMARK    4  A    between atoms: C_6  and  C_10
REMARK    5  A    between atoms: C_8  and  C_14
REMARK    6  A    between atoms: C_9  and  C_13
REMARK    7  A    between atoms: C_10  and  C_15
REMARK    8  A    between atoms: C_10  and  C_16
REMARK    9  A    between atoms: C_11  and  C_18
REMARK   10  A    between atoms: C_13  and  C_17
REMARK   11  A    between atoms: C_14  and  C_23
REMARK                            x       y       z     vdW  Elec       q    Type
REMARK                         _______ _______ _______ _____ _____    ______ ____
ROOT
ATOM      1  O   UNL     1      -4.456  -1.868  24.229  0.00  0.00    -0.276 OA
ATOM      3  N   UNL     1      -2.370  -1.151  24.951  0.00  0.00    -0.298 N 
ATOM      4  N   UNL     1       0.171  -0.369  24.004  0.00  0.00    -0.324 N 
ATOM     17  C   UNL     1      -3.763  -1.156  24.959  0.00  0.00    +0.216 C 
ATOM     19  C   UNL     1      -1.511  -0.324  25.801  0.00  0.00    +0.126 C 
ATOM     20  C   UNL     1      -1.634  -2.041  24.056  0.00  0.00    +0.126 C 
ATOM     21  C   UNL     1      -0.541   0.498  24.953  0.00  0.00    +0.124 C 
ATOM     22  C   UNL     1      -0.670  -1.248  23.177  0.00  0.00    +0.124 C 
ENDROOT
BRANCH   4  24
ATOM     24  C   UNL     1       1.396   0.049  23.470  0.00  0.00    +0.072 A 
ATOM     25  C   UNL     1       1.827   1.365  23.629  0.00  0.00    +0.141 A 
ATOM     26  C   UNL     1       2.187  -0.865  22.774  0.00  0.00    +0.027 A 
ATOM     27  C   UNL     1       3.050   1.768  23.091  0.00  0.00    +0.047 A 
ATOM     28  C   UNL     1       3.409  -0.463  22.236  0.00  0.00    +0.002 A 
ATOM     29  C   UNL     1       3.841   0.854  22.395  0.00  0.00    +0.004 A 
BRANCH  25   2
ATOM      2  O   UNL     1       1.070   2.274  24.305  0.00  0.00    -0.493 OA
ATOM     30  C   UNL     1       0.465   3.313  23.538  0.00  0.00    +0.277 C 
ENDBRANCH  25   2
ENDBRANCH   4  24
BRANCH  17  13
ATOM     13  C   UNL     1      -4.433  -0.222  25.934  0.00  0.00    +0.103 C 
BRANCH  13   9
ATOM      6  C   UNL     1      -3.655   2.376  24.203  0.00  0.00    -0.000 C 
ATOM      7  C   UNL     1      -4.681   1.274  23.902  0.00  0.00    +0.012 C 
ATOM      8  C   UNL     1      -4.334   3.563  24.929  0.00  0.00    +0.029 C 
ATOM      9  C   UNL     1      -5.357   0.742  25.181  0.00  0.00    +0.023 C 
ATOM     11  C   UNL     1      -5.819   1.868  26.083  0.00  0.00    -0.073 C 
ATOM     12  C   UNL     1      -5.361   3.125  25.947  0.00  0.00    -0.023 C 
ATOM     18  C   UNL     1      -6.854   1.524  27.117  0.00  0.00    +0.039 C 
BRANCH   6  10
ATOM     10  C   UNL     1      -2.973   2.819  22.905  0.00  0.00    -0.013 C 
ATOM     15  C   UNL     1      -2.442   1.608  22.143  0.00  0.00    +0.007 C 
ATOM     16  C   UNL     1      -3.943   3.618  22.040  0.00  0.00    +0.007 C 
ENDBRANCH   6  10
BRANCH   8  14
ATOM     14  C   UNL     1      -3.296   4.465  25.607  0.00  0.00    +0.126 C 
BRANCH  14  23
ATOM      5  N   UNL     1      -1.270   3.059  26.499  0.00  0.00    -0.197 NA
ATOM     23  C   UNL     1      -2.170   3.676  26.105  0.00  0.00    +0.063 C 
ENDBRANCH  14  23
ENDBRANCH   8  14
ENDBRANCH  13   9
ENDBRANCH  17  13
TORSDOF 7
ENDMDL
MODEL 2
REMARK VINA RESULT:       2.0      1.103      1.782
REMARK  Name = 38029949
REMARK  11 active torsions:
REMARK  status: ('A' for Active; 'I' for Inactive)
REMARK    1  A    between atoms: O_2  and  C_25
REMARK    2  A    between atoms: O_2  and  C_30
REMARK    3  A    between atoms: N_4  and  C_24
REMARK    4  A    between atoms: C_6  and  C_10
REMARK    5  A    between atoms: C_8  and  C_14
REMARK    6  A    between atoms: C_9  and  C_13
REMARK    7  A    between atoms: C_10  and  C_15
REMARK    8  A    between atoms: C_10  and  C_16
REMARK    9  A    between atoms: C_11  and  C_18
REMARK   10  A    between atoms: C_13  and  C_17
REMARK   11  A    between atoms: C_14  and  C_23
REMARK                            x       y       z     vdW  Elec       q    Type
REMARK                         _______ _______ _______ _____ _____    ______ ____
ROOT
ATOM      1  O   UNL     1      -3.813  -2.021  24.223  0.00  0.00    -0.276 OA
ATOM      3  N   UNL     1      -1.814  -1.098  24.955  0.00  0.00    -0.298 N 
ATOM      4  N   UNL     1       0.674  -0.141  24.027  0.00  0.00    -0.324 N 
ATOM     17  C   UNL     1      -3.201  -1.222  24.935  0.00  0.00    +0.216 C 
ATOM     19  C   UNL     1      -1.050  -0.164  25.785  0.00  0.00    +0.126 C 
ATOM     20  C   UNL     1      -0.984  -1.958  24.117  0.00  0.00    +0.126 C 
ATOM     21  C   UNL     1      -0.133   0.701  24.921  0.00  0.00    +0.124 C 
ATOM     22  C   UNL     1      -0.070  -1.124  23.223  0.00  0.00    +0.124 C 
ENDROOT
BRANCH   4  24
ATOM     24  C   UNL     1       1.871   0.358  23.500  0.00  0.00    +0.072 A 
ATOM     25  C   UNL     1       2.995  -0.461  23.395  0.00  0.00    +0.141 A 
ATOM     26  C   UNL     1       1.933   1.686  23.080  0.00  0.00    +0.027 A 
ATOM     27  C   UNL     1       4.181   0.050  22.868  0.00  0.00    +0.047 A 
ATOM     28  C   UNL     1       3.119   2.197  22.553  0.00  0.00    +0.002 A 
ATOM     29  C   UNL     1       4.244   1.378  22.447  0.00  0.00    +0.004 A 
BRANCH  25   2
ATOM      2  O   UNL     1       2.956  -1.761  23.800  0.00  0.00    -0.493 OA
ATOM     30  C   UNL     1       4.202  -2.379  24.113  0.00  0.00    +0.277 C 
ENDBRANCH  25   2
ENDBRANCH   4  24
BRANCH  17  13
ATOM     13  C   UNL     1      -3.973  -0.309  25.854  0.00  0.00    +0.103 C 
BRANCH  13   9
ATOM      6  C   UNL     1      -3.400   2.264  24.009  0.00  0.00    -0.000 C 
ATOM      7  C   UNL     1      -4.316   1.060  23.748  0.00  0.00    +0.012 C 
ATOM      8  C   UNL     1      -4.197   3.418  24.666  0.00  0.00    +0.029 C 
ATOM      9  C   UNL     1      -4.965   0.530  25.041  0.00  0.00    +0.023 C 
ATOM     11  C   UNL     1      -5.544   1.651  25.880  0.00  0.00    -0.073 C 
ATOM     12  C   UNL     1      -5.200   2.936  25.689  0.00  0.00    -0.023 C 
ATOM     18  C   UNL     1      -6.563   1.264  26.915  0.00  0.00    +0.039 C 
BRANCH   6  10
ATOM     10  C   UNL     1      -2.736   2.706  22.701  0.00  0.00    -0.013 C 
ATOM     15  C   UNL     1      -2.171   1.499  21.958  0.00  0.00    +0.007 C 
ATOM     16  C   UNL     1      -3.734   3.460  21.826  0.00  0.00    +0.007 C 
ENDBRANCH   6  10
BRANCH   8  14
ATOM     14  C   UNL     1      -3.258   4.441  25.314  0.00  0.00    +0.126 C 
BRANCH  14  23
ATOM      5  N   UNL     1      -1.081   3.271  26.189  0.00  0.00    -0.197 NA
ATOM     23  C   UNL     1      -2.041   3.794  25.801  0.00  0.00    +0.063 C 
ENDBRANCH  14  23
ENDBRANCH   8  14
ENDBRANCH  13   9
ENDBRANCH  17  13
TORSDOF 7
ENDMDL
MODEL 3
REMARK VINA RESULT:       2.7      1.801      4.252
REMARK  Name = 38029949
REMARK  11 active torsions:
REMARK  status: ('A' for Active; 'I' for Inactive)
REMARK    1  A    between atoms: O_2  and  C_25
REMARK    2  A    between atoms: O_2  and  C_30
REMARK    3  A    between atoms: N_4  and  C_24
REMARK    4  A    between atoms: C_6  and  C_10
REMARK    5  A    between atoms: C_8  and  C_14
REMARK    6  A    between atoms: C_9  and  C_13
REMARK    7  A    between atoms: C_10  and  C_15
REMARK    8  A    between atoms: C_10  and  C_16
REMARK    9  A    between atoms: C_11  and  C_18
REMARK   10  A    between atoms: C_13  and  C_17
REMARK   11  A    between atoms: C_14  and  C_23
REMARK                            x       y       z     vdW  Elec       q    Type
REMARK                         _______ _______ _______ _____ _____    ______ ____
ROOT
ATOM      1  O   UNL     1      -2.843   4.491  26.071  0.00  0.00    -0.276 OA
ATOM      3  N   UNL     1      -1.757   3.498  24.277  0.00  0.00    -0.298 N 
ATOM      4  N   UNL     1       0.492   1.922  23.625  0.00  0.00    -0.324 N 
ATOM     17  C   UNL     1      -2.881   3.838  25.026  0.00  0.00    +0.216 C 
ATOM     19  C   UNL     1      -1.758   2.726  23.032  0.00  0.00    +0.126 C 
ATOM     20  C   UNL     1      -0.429   3.936  24.699  0.00  0.00    +0.126 C 
ATOM     21  C   UNL     1      -0.835   1.513  23.147  0.00  0.00    +0.124 C 
ATOM     22  C   UNL     1       0.513   2.745  24.846  0.00  0.00    +0.124 C 
ENDROOT
BRANCH   4  24
ATOM     24  C   UNL     1       1.600   1.105  23.373  0.00  0.00    +0.072 A 
ATOM     25  C   UNL     1       1.477  -0.284  23.396  0.00  0.00    +0.141 A 
ATOM     26  C   UNL     1       2.835   1.692  23.098  0.00  0.00    +0.027 A 
ATOM     27  C   UNL     1       2.590  -1.086  23.143  0.00  0.00    +0.047 A 
ATOM     28  C   UNL     1       3.948   0.890  22.845  0.00  0.00    +0.002 A 
ATOM     29  C   UNL     1       3.826  -0.500  22.868  0.00  0.00    +0.004 A 
BRANCH  25   2
ATOM      2  O   UNL     1       0.281  -0.878  23.663  0.00  0.00    -0.493 OA
ATOM     30  C   UNL     1       0.261  -1.862  24.695  0.00  0.00    +0.277 C 
ENDBRANCH  25   2
ENDBRANCH   4  24
BRANCH  17  13
ATOM     13  C   UNL     1      -4.210   3.363  24.498  0.00  0.00    +0.103 C 
BRANCH  13   9
ATOM      6  C   UNL     1      -3.346   0.335  25.159  0.00  0.00    -0.000 C 
ATOM      7  C   UNL     1      -3.777   1.459  26.114  0.00  0.00    +0.012 C 
ATOM      8  C   UNL     1      -4.567  -0.530  24.758  0.00  0.00    +0.029 C 
ATOM      9  C   UNL     1      -4.842   2.379  25.488  0.00  0.00    +0.023 C 
ATOM     11  C   UNL     1      -5.955   1.586  24.832  0.00  0.00    -0.073 C 
ATOM     12  C   UNL     1      -5.818   0.285  24.525  0.00  0.00    -0.023 C 
ATOM     18  C   UNL     1      -7.244   2.315  24.577  0.00  0.00    +0.039 C 
BRANCH   6  10
ATOM     10  C   UNL     1      -2.244  -0.506  25.810  0.00  0.00    -0.013 C 
ATOM     15  C   UNL     1      -1.190   0.398  26.444  0.00  0.00    +0.007 C 
ATOM     16  C   UNL     1      -2.839  -1.452  26.848  0.00  0.00    +0.007 C 
ENDBRANCH   6  10
BRANCH   8  14
ATOM     14  C   UNL     1      -4.265  -1.369  23.511  0.00  0.00    +0.126 C 
BRANCH  14  23
ATOM      5  N   UNL     1      -3.379  -3.743  24.187  0.00  0.00    -0.197 NA
ATOM     23  C   UNL     1      -3.774  -2.695  23.883  0.00  0.00    +0.063 C 
ENDBRANCH  14  23
ENDBRANCH   8  14
ENDBRANCH  13   9
ENDBRANCH  17  13
TORSDOF 7
ENDMDL
