MODEL 1
REMARK VINA RESULT:      -5.9      0.000      0.000
REMARK  Name = 75536519
REMARK  11 active torsions:
REMARK  status: ('A' for Active; 'I' for Inactive)
REMARK    1  A    between atoms: O_2  and  C_7
REMARK    2  A    between atoms: N_4  and  C_6
REMARK    3  A    between atoms: N_4  and  C_12
REMARK    4  A    between atoms: N_5  and  C_10
REMARK    5  A    between atoms: C_8  and  C_10
REMARK    6  A    between atoms: C_11  and  C_13
REMARK    7  A    between atoms: C_11  and  C_15
REMARK    8  A    between atoms: C_11  and  C_16
REMARK    9  A    between atoms: C_11  and  C_17
REMARK   10  A    between atoms: C_12  and  C_18
REMARK   11  A    between atoms: C_13  and  C_14
REMARK                            x       y       z     vdW  Elec       q    Type
REMARK                         _______ _______ _______ _____ _____    ______ ____
ROOT
ATOM      1  O   UNL     1      -3.150   4.405  23.809  0.00  0.00    -0.371 OA
ATOM      6  C   UNL     1      -4.582   3.241  25.304  0.00  0.00    +0.111 C 
ATOM      7  C   UNL     1      -3.287   3.576  26.020  0.00  0.00    +0.164 C 
ATOM      8  C   UNL     1      -2.763   4.716  25.158  0.00  0.00    +0.165 C 
ATOM      9  C   UNL     1      -4.169   3.391  23.849  0.00  0.00    +0.181 C 
ENDROOT
BRANCH   7   2
ATOM      2  O   UNL     1      -3.493   3.981  27.360  0.00  0.00    -0.388 OA
ATOM     26  H   UNL     1      -4.447   4.098  27.501  0.00  0.00    +0.210 HD
ENDBRANCH   7   2
BRANCH   6   4
ATOM      4  N   UNL     1      -5.093   1.915  25.613  0.00  0.00    -0.305 NA
ATOM     24  H   UNL     1      -6.052   1.999  25.952  0.00  0.00    +0.123 HD
BRANCH   4  12
ATOM     12  C   UNL     1      -5.083   1.060  24.432  0.00  0.00    +0.116 C 
BRANCH  12  18
ATOM     18  C   UNL     1      -4.437  -0.271  24.708  0.00  0.00    -0.034 A 
ATOM     19  C   UNL     1      -3.825  -0.507  25.940  0.00  0.00    +0.005 A 
ATOM     20  C   UNL     1      -4.450  -1.268  23.734  0.00  0.00    +0.005 A 
ATOM     21  C   UNL     1      -3.226  -1.740  26.196  0.00  0.00    +0.000 A 
ATOM     22  C   UNL     1      -3.851  -2.501  23.991  0.00  0.00    +0.000 A 
ATOM     23  C   UNL     1      -3.239  -2.738  25.221  0.00  0.00    +0.000 A 
ENDBRANCH  12  18
ENDBRANCH   4  12
ENDBRANCH   6   4
BRANCH   8  10
ATOM     10  C   UNL     1      -1.255   4.881  25.233  0.00  0.00    +0.138 C 
BRANCH  10   5
ATOM      3  O   UNL     1       0.057   2.573  26.393  0.00  0.00    -0.276 OA
ATOM      5  N   UNL     1      -0.570   3.819  24.533  0.00  0.00    -0.313 N 
ATOM     14  C   UNL     1       0.030   2.750  25.176  0.00  0.00    +0.214 C 
ATOM     25  H   UNL     1      -0.544   3.868  23.519  0.00  0.00    +0.149 HD
BRANCH  14  13
ATOM     13  C   UNL     1       0.691   1.774  24.217  0.00  0.00    +0.102 C 
BRANCH  13  11
ATOM     11  C   UNL     1      -0.189   0.565  23.817  0.00  0.00    -0.029 C 
ATOM     15  C   UNL     1      -1.536   1.027  23.236  0.00  0.00    +0.011 C 
ATOM     16  C   UNL     1       0.561  -0.233  22.733  0.00  0.00    +0.011 C 
ATOM     17  C   UNL     1      -0.445  -0.365  25.014  0.00  0.00    +0.011 C 
ENDBRANCH  13  11
ENDBRANCH  14  13
ENDBRANCH  10   5
ENDBRANCH   8  10
TORSDOF 8
ENDMDL
MODEL 2
REMARK VINA RESULT:      -5.2      1.702      4.410
REMARK  Name = 75536519
REMARK  11 active torsions:
REMARK  status: ('A' for Active; 'I' for Inactive)
REMARK    1  A    between atoms: O_2  and  C_7
REMARK    2  A    between atoms: N_4  and  C_6
REMARK    3  A    between atoms: N_4  and  C_12
REMARK    4  A    between atoms: N_5  and  C_10
REMARK    5  A    between atoms: C_8  and  C_10
REMARK    6  A    between atoms: C_11  and  C_13
REMARK    7  A    between atoms: C_11  and  C_15
REMARK    8  A    between atoms: C_11  and  C_16
REMARK    9  A    between atoms: C_11  and  C_17
REMARK   10  A    between atoms: C_12  and  C_18
REMARK   11  A    between atoms: C_13  and  C_14
REMARK                            x       y       z     vdW  Elec       q    Type
REMARK                         _______ _______ _______ _____ _____    ______ ____
ROOT
ATOM      1  O   UNL     1      -1.002   2.909  26.467  0.00  0.00    -0.371 OA
ATOM      6  C   UNL     1       0.100   1.632  24.795  0.00  0.00    +0.111 C 
ATOM      7  C   UNL     1      -0.486   2.879  24.159  0.00  0.00    +0.164 C 
ATOM      8  C   UNL     1      -0.652   3.778  25.376  0.00  0.00    +0.165 C 
ATOM      9  C   UNL     1      -0.690   1.556  26.092  0.00  0.00    +0.181 C 
ENDROOT
BRANCH   7   2
ATOM      2  O   UNL     1       0.373   3.454  23.193  0.00  0.00    -0.388 OA
ATOM     26  H   UNL     1       0.758   2.738  22.661  0.00  0.00    +0.210 HD
ENDBRANCH   7   2
BRANCH   6   4
ATOM      4  N   UNL     1      -0.042   0.439  23.977  0.00  0.00    -0.305 NA
ATOM     24  H   UNL     1       0.841   0.257  23.498  0.00  0.00    +0.123 HD
BRANCH   4  12
ATOM     12  C   UNL     1      -0.383  -0.721  24.793  0.00  0.00    +0.116 C 
BRANCH  12  18
ATOM     18  C   UNL     1      -1.756  -1.248  24.471  0.00  0.00    -0.034 A 
ATOM     19  C   UNL     1      -2.125  -2.530  24.882  0.00  0.00    +0.005 A 
ATOM     20  C   UNL     1      -2.659  -0.456  23.764  0.00  0.00    +0.005 A 
ATOM     21  C   UNL     1      -3.397  -3.019  24.583  0.00  0.00    +0.000 A 
ATOM     22  C   UNL     1      -3.931  -0.945  23.466  0.00  0.00    +0.000 A 
ATOM     23  C   UNL     1      -4.300  -2.226  23.875  0.00  0.00    +0.000 A 
ENDBRANCH  12  18
ENDBRANCH   4  12
ENDBRANCH   6   4
BRANCH   8  10
ATOM     10  C   UNL     1      -1.726   4.837  25.199  0.00  0.00    +0.138 C 
BRANCH  10   5
ATOM      3  O   UNL     1      -3.957   3.682  23.755  0.00  0.00    -0.276 OA
ATOM      5  N   UNL     1      -2.993   4.404  25.744  0.00  0.00    -0.313 N 
ATOM     14  C   UNL     1      -4.005   3.860  24.971  0.00  0.00    +0.214 C 
ATOM     25  H   UNL     1      -3.129   4.500  26.745  0.00  0.00    +0.149 HD
BRANCH  14  13
ATOM     13  C   UNL     1      -5.238   3.492  25.780  0.00  0.00    +0.102 C 
BRANCH  13  11
ATOM     11  C   UNL     1      -5.648   2.003  25.693  0.00  0.00    -0.029 C 
ATOM     15  C   UNL     1      -4.412   1.089  25.651  0.00  0.00    +0.011 C 
ATOM     16  C   UNL     1      -6.466   1.659  26.954  0.00  0.00    +0.011 C 
ATOM     17  C   UNL     1      -6.523   1.731  24.458  0.00  0.00    +0.011 C 
ENDBRANCH  13  11
ENDBRANCH  14  13
ENDBRANCH  10   5
ENDBRANCH   8  10
TORSDOF 8
ENDMDL
MODEL 3
REMARK VINA RESULT:      -5.1      0.989      1.642
REMARK  Name = 75536519
REMARK  11 active torsions:
REMARK  status: ('A' for Active; 'I' for Inactive)
REMARK    1  A    between atoms: O_2  and  C_7
REMARK    2  A    between atoms: N_4  and  C_6
REMARK    3  A    between atoms: N_4  and  C_12
REMARK    4  A    between atoms: N_5  and  C_10
REMARK    5  A    between atoms: C_8  and  C_10
REMARK    6  A    between atoms: C_11  and  C_13
REMARK    7  A    between atoms: C_11  and  C_15
REMARK    8  A    between atoms: C_11  and  C_16
REMARK    9  A    between atoms: C_11  and  C_17
REMARK   10  A    between atoms: C_12  and  C_18
REMARK   11  A    between atoms: C_13  and  C_14
REMARK                            x       y       z     vdW  Elec       q    Type
REMARK                         _______ _______ _______ _____ _____    ______ ____
ROOT
ATOM      1  O   UNL     1      -3.213   3.952  23.530  0.00  0.00    -0.371 OA
ATOM      6  C   UNL     1      -5.050   2.864  24.570  0.00  0.00    +0.111 C 
ATOM      7  C   UNL     1      -4.063   3.295  25.637  0.00  0.00    +0.164 C 
ATOM      8  C   UNL     1      -3.290   4.380  24.900  0.00  0.00    +0.165 C 
ATOM      9  C   UNL     1      -4.184   2.911  23.321  0.00  0.00    +0.181 C 
ENDROOT
BRANCH   7   2
ATOM      2  O   UNL     1      -4.698   3.797  26.798  0.00  0.00    -0.388 OA
ATOM     26  H   UNL     1      -5.138   3.058  27.250  0.00  0.00    +0.210 HD
ENDBRANCH   7   2
BRANCH   6   4
ATOM      4  N   UNL     1      -5.629   1.551  24.806  0.00  0.00    -0.305 NA
ATOM     24  H   UNL     1      -5.615   1.019  23.935  0.00  0.00    +0.123 HD
BRANCH   4  12
ATOM     12  C   UNL     1      -4.874   0.819  25.817  0.00  0.00    +0.116 C 
BRANCH  12  18
ATOM     18  C   UNL     1      -4.340  -0.484  25.284  0.00  0.00    -0.034 A 
ATOM     19  C   UNL     1      -4.597  -0.856  23.965  0.00  0.00    +0.005 A 
ATOM     20  C   UNL     1      -3.588  -1.319  26.110  0.00  0.00    +0.005 A 
ATOM     21  C   UNL     1      -4.102  -2.063  23.472  0.00  0.00    +0.000 A 
ATOM     22  C   UNL     1      -3.093  -2.526  25.616  0.00  0.00    +0.000 A 
ATOM     23  C   UNL     1      -3.350  -2.899  24.297  0.00  0.00    +0.000 A 
ENDBRANCH  12  18
ENDBRANCH   4  12
ENDBRANCH   6   4
BRANCH   8  10
ATOM     10  C   UNL     1      -1.891   4.599  25.449  0.00  0.00    +0.138 C 
BRANCH  10   5
ATOM      3  O   UNL     1       0.063   3.598  23.558  0.00  0.00    -0.276 OA
ATOM      5  N   UNL     1      -1.152   3.360  25.526  0.00  0.00    -0.313 N 
ATOM     14  C   UNL     1      -0.233   2.963  24.569  0.00  0.00    +0.214 C 
ATOM     25  H   UNL     1      -1.318   2.765  26.332  0.00  0.00    +0.149 HD
BRANCH  14  13
ATOM     13  C   UNL     1       0.402   1.617  24.876  0.00  0.00    +0.102 C 
BRANCH  13  11
ATOM     11  C   UNL     1      -0.099   0.449  23.993  0.00  0.00    -0.029 C 
ATOM     15  C   UNL     1       0.941   0.078  22.922  0.00  0.00    +0.011 C 
ATOM     16  C   UNL     1      -0.319  -0.776  24.903  0.00  0.00    +0.011 C 
ATOM     17  C   UNL     1      -1.432   0.791  23.309  0.00  0.00    +0.011 C 
ENDBRANCH  13  11
ENDBRANCH  14  13
ENDBRANCH  10   5
ENDBRANCH   8  10
TORSDOF 8
ENDMDL
MODEL 4
REMARK VINA RESULT:      -5.1      1.902      4.231
REMARK  Name = 75536519
REMARK  11 active torsions:
REMARK  status: ('A' for Active; 'I' for Inactive)
REMARK    1  A    between atoms: O_2  and  C_7
REMARK    2  A    between atoms: N_4  and  C_6
REMARK    3  A    between atoms: N_4  and  C_12
REMARK    4  A    between atoms: N_5  and  C_10
REMARK    5  A    between atoms: C_8  and  C_10
REMARK    6  A    between atoms: C_11  and  C_13
REMARK    7  A    between atoms: C_11  and  C_15
REMARK    8  A    between atoms: C_11  and  C_16
REMARK    9  A    between atoms: C_11  and  C_17
REMARK   10  A    between atoms: C_12  and  C_18
REMARK   11  A    between atoms: C_13  and  C_14
REMARK                            x       y       z     vdW  Elec       q    Type
REMARK                         _______ _______ _______ _____ _____    ______ ____
ROOT
ATOM      1  O   UNL     1      -0.478   1.951  23.119  0.00  0.00    -0.371 OA
ATOM      6  C   UNL     1      -0.893   3.251  25.063  0.00  0.00    +0.111 C 
ATOM      7  C   UNL     1      -0.079   2.030  25.449  0.00  0.00    +0.164 C 
ATOM      8  C   UNL     1       0.521   1.642  24.105  0.00  0.00    +0.165 C 
ATOM      9  C   UNL     1      -1.453   2.826  23.715  0.00  0.00    +0.181 C 
ENDROOT
BRANCH   7   2
ATOM      2  O   UNL     1       0.921   2.321  26.407  0.00  0.00    -0.388 OA
ATOM     26  H   UNL     1       0.850   1.675  27.129  0.00  0.00    +0.210 HD
ENDBRANCH   7   2
BRANCH   6   4
ATOM      4  N   UNL     1      -1.931   3.587  26.025  0.00  0.00    -0.305 NA
ATOM     24  H   UNL     1      -1.550   4.241  26.710  0.00  0.00    +0.123 HD
BRANCH   4  12
ATOM     12  C   UNL     1      -3.076   4.205  25.367  0.00  0.00    +0.116 C 
BRANCH  12  18
ATOM     18  C   UNL     1      -4.268   3.285  25.336  0.00  0.00    -0.034 A 
ATOM     19  C   UNL     1      -5.054   3.124  26.477  0.00  0.00    +0.005 A 
ATOM     20  C   UNL     1      -4.587   2.596  24.167  0.00  0.00    +0.005 A 
ATOM     21  C   UNL     1      -6.159   2.272  26.448  0.00  0.00    +0.000 A 
ATOM     22  C   UNL     1      -5.691   1.745  24.138  0.00  0.00    +0.000 A 
ATOM     23  C   UNL     1      -6.477   1.582  25.279  0.00  0.00    +0.000 A 
ENDBRANCH  12  18
ENDBRANCH   4  12
ENDBRANCH   6   4
BRANCH   8  10
ATOM     10  C   UNL     1       0.893   0.172  24.014  0.00  0.00    +0.138 C 
BRANCH  10   5
ATOM      3  O   UNL     1      -0.233  -1.763  25.852  0.00  0.00    -0.276 OA
ATOM      5  N   UNL     1      -0.272  -0.657  23.808  0.00  0.00    -0.313 N 
ATOM     14  C   UNL     1      -0.738  -1.559  24.750  0.00  0.00    +0.214 C 
ATOM     25  H   UNL     1      -0.768  -0.556  22.928  0.00  0.00    +0.149 HD
BRANCH  14  13
ATOM     13  C   UNL     1      -1.973  -2.315  24.288  0.00  0.00    +0.102 C 
BRANCH  13  11
ATOM     11  C   UNL     1      -3.296  -1.520  24.397  0.00  0.00    -0.029 C 
ATOM     15  C   UNL     1      -3.288  -0.299  23.463  0.00  0.00    +0.011 C 
ATOM     16  C   UNL     1      -4.448  -2.452  23.971  0.00  0.00    +0.011 C 
ATOM     17  C   UNL     1      -3.556  -1.055  25.839  0.00  0.00    +0.011 C 
ENDBRANCH  13  11
ENDBRANCH  14  13
ENDBRANCH  10   5
ENDBRANCH   8  10
TORSDOF 8
ENDMDL
MODEL 5
REMARK VINA RESULT:      -4.4      1.446      4.391
REMARK  Name = 75536519
REMARK  11 active torsions:
REMARK  status: ('A' for Active; 'I' for Inactive)
REMARK    1  A    between atoms: O_2  and  C_7
REMARK    2  A    between atoms: N_4  and  C_6
REMARK    3  A    between atoms: N_4  and  C_12
REMARK    4  A    between atoms: N_5  and  C_10
REMARK    5  A    between atoms: C_8  and  C_10
REMARK    6  A    between atoms: C_11  and  C_13
REMARK    7  A    between atoms: C_11  and  C_15
REMARK    8  A    between atoms: C_11  and  C_16
REMARK    9  A    between atoms: C_11  and  C_17
REMARK   10  A    between atoms: C_12  and  C_18
REMARK   11  A    between atoms: C_13  and  C_14
REMARK                            x       y       z     vdW  Elec       q    Type
REMARK                         _______ _______ _______ _____ _____    ______ ____
ROOT
ATOM      1  O   UNL     1      -4.598   3.600  26.441  0.00  0.00    -0.371 OA
ATOM      6  C   UNL     1      -2.795   4.314  25.070  0.00  0.00    +0.111 C 
ATOM      7  C   UNL     1      -3.573   3.233  24.342  0.00  0.00    +0.164 C 
ATOM      8  C   UNL     1      -4.907   3.290  25.071  0.00  0.00    +0.165 C 
ATOM      9  C   UNL     1      -3.249   4.097  26.504  0.00  0.00    +0.181 C 
ENDROOT
BRANCH   7   2
ATOM      2  O   UNL     1      -3.716   3.502  22.960  0.00  0.00    -0.388 OA
ATOM     26  H   UNL     1      -3.515   4.440  22.808  0.00  0.00    +0.210 HD
ENDBRANCH   7   2
BRANCH   6   4
ATOM      4  N   UNL     1      -1.354   4.203  24.911  0.00  0.00    -0.305 NA
ATOM     24  H   UNL     1      -0.930   5.116  25.079  0.00  0.00    +0.123 HD
BRANCH   4  12
ATOM     12  C   UNL     1      -0.794   3.242  25.854  0.00  0.00    +0.116 C 
BRANCH  12  18
ATOM     18  C   UNL     1      -0.444   1.939  25.186  0.00  0.00    -0.034 A 
ATOM     19  C   UNL     1      -0.806   0.731  25.781  0.00  0.00    +0.005 A 
ATOM     20  C   UNL     1       0.241   1.940  23.971  0.00  0.00    +0.005 A 
ATOM     21  C   UNL     1      -0.482  -0.477  25.162  0.00  0.00    +0.000 A 
ATOM     22  C   UNL     1       0.564   0.733  23.352  0.00  0.00    +0.000 A 
ATOM     23  C   UNL     1       0.203  -0.475  23.947  0.00  0.00    +0.000 A 
ENDBRANCH  12  18
ENDBRANCH   4  12
ENDBRANCH   6   4
BRANCH   8  10
ATOM     10  C   UNL     1      -5.685   1.988  25.003  0.00  0.00    +0.138 C 
BRANCH  10   5
ATOM      3  O   UNL     1      -4.116  -0.216  26.038  0.00  0.00    -0.276 OA
ATOM      5  N   UNL     1      -4.975   0.986  24.243  0.00  0.00    -0.313 N 
ATOM     14  C   UNL     1      -4.247  -0.037  24.829  0.00  0.00    +0.214 C 
ATOM     25  H   UNL     1      -5.029   1.040  23.230  0.00  0.00    +0.149 HD
BRANCH  14  13
ATOM     13  C   UNL     1      -3.587  -0.954  23.813  0.00  0.00    +0.102 C 
BRANCH  13  11
ATOM     11  C   UNL     1      -3.407  -2.417  24.284  0.00  0.00    -0.029 C 
ATOM     15  C   UNL     1      -3.365  -2.504  25.819  0.00  0.00    +0.011 C 
ATOM     16  C   UNL     1      -4.617  -3.231  23.784  0.00  0.00    +0.011 C 
ATOM     17  C   UNL     1      -2.128  -3.042  23.705  0.00  0.00    +0.011 C 
ENDBRANCH  13  11
ENDBRANCH  14  13
ENDBRANCH  10   5
ENDBRANCH   8  10
TORSDOF 8
ENDMDL
MODEL 6
REMARK VINA RESULT:      -4.4      2.221      6.102
REMARK  Name = 75536519
REMARK  11 active torsions:
REMARK  status: ('A' for Active; 'I' for Inactive)
REMARK    1  A    between atoms: O_2  and  C_7
REMARK    2  A    between atoms: N_4  and  C_6
REMARK    3  A    between atoms: N_4  and  C_12
REMARK    4  A    between atoms: N_5  and  C_10
REMARK    5  A    between atoms: C_8  and  C_10
REMARK    6  A    between atoms: C_11  and  C_13
REMARK    7  A    between atoms: C_11  and  C_15
REMARK    8  A    between atoms: C_11  and  C_16
REMARK    9  A    between atoms: C_11  and  C_17
REMARK   10  A    between atoms: C_12  and  C_18
REMARK   11  A    between atoms: C_13  and  C_14
REMARK                            x       y       z     vdW  Elec       q    Type
REMARK                         _______ _______ _______ _____ _____    ______ ____
ROOT
ATOM      1  O   UNL     1      -1.378  -2.164  23.547  0.00  0.00    -0.371 OA
ATOM      6  C   UNL     1       0.066  -0.647  24.668  0.00  0.00    +0.111 C 
ATOM      7  C   UNL     1      -1.195  -0.830  25.491  0.00  0.00    +0.164 C 
ATOM      8  C   UNL     1      -1.713  -2.153  24.946  0.00  0.00    +0.165 C 
ATOM      9  C   UNL     1      -0.388  -1.148  23.307  0.00  0.00    +0.181 C 
ENDROOT
BRANCH   7   2
ATOM      2  O   UNL     1      -0.935  -0.899  26.881  0.00  0.00    -0.388 OA
ATOM     26  H   UNL     1      -0.411  -0.120  27.133  0.00  0.00    +0.210 HD
ENDBRANCH   7   2
BRANCH   6   4
ATOM      4  N   UNL     1       0.547   0.724  24.634  0.00  0.00    -0.305 NA
ATOM     24  H   UNL     1       1.519   0.728  24.323  0.00  0.00    +0.123 HD
BRANCH   4  12
ATOM     12  C   UNL     1      -0.245   1.536  23.717  0.00  0.00    +0.116 C 
BRANCH  12  18
ATOM     18  C   UNL     1      -0.783   2.773  24.386  0.00  0.00    -0.034 A 
ATOM     19  C   UNL     1      -0.452   4.034  23.890  0.00  0.00    +0.005 A 
ATOM     20  C   UNL     1      -1.614   2.658  25.500  0.00  0.00    +0.005 A 
ATOM     21  C   UNL     1      -0.951   5.180  24.510  0.00  0.00    +0.000 A 
ATOM     22  C   UNL     1      -2.113   3.804  26.119  0.00  0.00    +0.000 A 
ATOM     23  C   UNL     1      -1.782   5.065  25.624  0.00  0.00    +0.000 A 
ENDBRANCH  12  18
ENDBRANCH   4  12
ENDBRANCH   6   4
BRANCH   8  10
ATOM     10  C   UNL     1      -3.212  -2.328  25.115  0.00  0.00    +0.138 C 
BRANCH  10   5
ATOM      3  O   UNL     1      -3.983   0.080  23.700  0.00  0.00    -0.276 OA
ATOM      5  N   UNL     1      -3.824  -1.143  25.671  0.00  0.00    -0.313 N 
ATOM     14  C   UNL     1      -4.159  -0.034  24.912  0.00  0.00    +0.214 C 
ATOM     25  H   UNL     1      -4.020  -1.141  26.667  0.00  0.00    +0.149 HD
BRANCH  14  13
ATOM     13  C   UNL     1      -4.781   1.083  25.733  0.00  0.00    +0.102 C 
BRANCH  13  11
ATOM     11  C   UNL     1      -5.376   2.244  24.900  0.00  0.00    -0.029 C 
ATOM     15  C   UNL     1      -4.493   2.560  23.681  0.00  0.00    +0.011 C 
ATOM     16  C   UNL     1      -6.765   1.806  24.395  0.00  0.00    +0.011 C 
ATOM     17  C   UNL     1      -5.546   3.515  25.748  0.00  0.00    +0.011 C 
ENDBRANCH  13  11
ENDBRANCH  14  13
ENDBRANCH  10   5
ENDBRANCH   8  10
TORSDOF 8
ENDMDL
MODEL 7
REMARK VINA RESULT:      -4.2      1.830      4.613
REMARK  Name = 75536519
REMARK  11 active torsions:
REMARK  status: ('A' for Active; 'I' for Inactive)
REMARK    1  A    between atoms: O_2  and  C_7
REMARK    2  A    between atoms: N_4  and  C_6
REMARK    3  A    between atoms: N_4  and  C_12
REMARK    4  A    between atoms: N_5  and  C_10
REMARK    5  A    between atoms: C_8  and  C_10
REMARK    6  A    between atoms: C_11  and  C_13
REMARK    7  A    between atoms: C_11  and  C_15
REMARK    8  A    between atoms: C_11  and  C_16
REMARK    9  A    between atoms: C_11  and  C_17
REMARK   10  A    between atoms: C_12  and  C_18
REMARK   11  A    between atoms: C_13  and  C_14
REMARK                            x       y       z     vdW  Elec       q    Type
REMARK                         _______ _______ _______ _____ _____    ______ ____
ROOT
ATOM      1  O   UNL     1       1.824   2.102  23.832  0.00  0.00    -0.371 OA
ATOM      6  C   UNL     1       0.545   0.264  23.039  0.00  0.00    +0.111 C 
ATOM      7  C   UNL     1      -0.323   1.116  23.946  0.00  0.00    +0.164 C 
ATOM      8  C   UNL     1       0.429   2.439  23.913  0.00  0.00    +0.165 C 
ATOM      9  C   UNL     1       1.938   0.722  23.438  0.00  0.00    +0.181 C 
ENDROOT
BRANCH   7   2
ATOM      2  O   UNL     1      -1.647   1.251  23.465  0.00  0.00    -0.388 OA
ATOM     26  H   UNL     1      -2.041   2.040  23.872  0.00  0.00    +0.210 HD
ENDBRANCH   7   2
BRANCH   6   4
ATOM      4  N   UNL     1       0.348  -1.165  23.217  0.00  0.00    -0.305 NA
ATOM     24  H   UNL     1       1.190  -1.657  22.916  0.00  0.00    +0.123 HD
BRANCH   4  12
ATOM     12  C   UNL     1       0.087  -1.489  24.615  0.00  0.00    +0.116 C 
BRANCH  12  18
ATOM     18  C   UNL     1      -1.380  -1.704  24.877  0.00  0.00    -0.034 A 
ATOM     19  C   UNL     1      -2.111  -2.578  24.072  0.00  0.00    +0.005 A 
ATOM     20  C   UNL     1      -2.008  -1.029  25.923  0.00  0.00    +0.005 A 
ATOM     21  C   UNL     1      -3.471  -2.776  24.314  0.00  0.00    +0.000 A 
ATOM     22  C   UNL     1      -3.367  -1.228  26.165  0.00  0.00    +0.000 A 
ATOM     23  C   UNL     1      -4.099  -2.102  25.361  0.00  0.00    +0.000 A 
ENDBRANCH  12  18
ENDBRANCH   4  12
ENDBRANCH   6   4
BRANCH   8  10
ATOM     10  C   UNL     1       0.180   3.303  25.137  0.00  0.00    +0.138 C 
BRANCH  10   5
ATOM      3  O   UNL     1      -1.837   5.373  25.320  0.00  0.00    -0.276 OA
ATOM      5  N   UNL     1      -1.176   3.165  25.616  0.00  0.00    -0.313 N 
ATOM     14  C   UNL     1      -2.074   4.218  25.667  0.00  0.00    +0.214 C 
ATOM     25  H   UNL     1      -1.474   2.242  25.918  0.00  0.00    +0.149 HD
BRANCH  14  13
ATOM     13  C   UNL     1      -3.432   3.815  26.217  0.00  0.00    +0.102 C 
BRANCH  13  11
ATOM     11  C   UNL     1      -4.439   3.317  25.152  0.00  0.00    -0.029 C 
ATOM     15  C   UNL     1      -4.607   1.789  25.221  0.00  0.00    +0.011 C 
ATOM     16  C   UNL     1      -5.804   3.970  25.445  0.00  0.00    +0.011 C 
ATOM     17  C   UNL     1      -4.003   3.716  23.734  0.00  0.00    +0.011 C 
ENDBRANCH  13  11
ENDBRANCH  14  13
ENDBRANCH  10   5
ENDBRANCH   8  10
TORSDOF 8
ENDMDL
MODEL 8
REMARK VINA RESULT:      -3.1      2.381      4.771
REMARK  Name = 75536519
REMARK  11 active torsions:
REMARK  status: ('A' for Active; 'I' for Inactive)
REMARK    1  A    between atoms: O_2  and  C_7
REMARK    2  A    between atoms: N_4  and  C_6
REMARK    3  A    between atoms: N_4  and  C_12
REMARK    4  A    between atoms: N_5  and  C_10
REMARK    5  A    between atoms: C_8  and  C_10
REMARK    6  A    between atoms: C_11  and  C_13
REMARK    7  A    between atoms: C_11  and  C_15
REMARK    8  A    between atoms: C_11  and  C_16
REMARK    9  A    between atoms: C_11  and  C_17
REMARK   10  A    between atoms: C_12  and  C_18
REMARK   11  A    between atoms: C_13  and  C_14
REMARK                            x       y       z     vdW  Elec       q    Type
REMARK                         _______ _______ _______ _____ _____    ______ ____
ROOT
ATOM      1  O   UNL     1      -1.721  -1.011  26.247  0.00  0.00    -0.371 OA
ATOM      6  C   UNL     1      -3.785  -1.436  25.152  0.00  0.00    +0.111 C 
ATOM      7  C   UNL     1      -2.646  -1.753  24.201  0.00  0.00    +0.164 C 
ATOM      8  C   UNL     1      -1.494  -1.944  25.177  0.00  0.00    +0.165 C 
ATOM      9  C   UNL     1      -3.086  -0.560  26.178  0.00  0.00    +0.181 C 
ENDROOT
BRANCH   7   2
ATOM      2  O   UNL     1      -2.884  -2.917  23.433  0.00  0.00    -0.388 OA
ATOM     26  H   UNL     1      -2.122  -3.511  23.533  0.00  0.00    +0.210 HD
ENDBRANCH   7   2
BRANCH   6   4
ATOM      4  N   UNL     1      -4.910  -0.771  24.514  0.00  0.00    -0.305 NA
ATOM     24  H   UNL     1      -5.653  -1.452  24.355  0.00  0.00    +0.123 HD
BRANCH   4  12
ATOM     12  C   UNL     1      -5.427   0.306  25.351  0.00  0.00    +0.116 C 
BRANCH  12  18
ATOM     18  C   UNL     1      -4.941   1.655  24.893  0.00  0.00    -0.034 A 
ATOM     19  C   UNL     1      -5.218   2.791  25.654  0.00  0.00    +0.005 A 
ATOM     20  C   UNL     1      -4.213   1.769  23.709  0.00  0.00    +0.005 A 
ATOM     21  C   UNL     1      -4.767   4.041  25.229  0.00  0.00    +0.000 A 
ATOM     22  C   UNL     1      -3.762   3.019  23.286  0.00  0.00    +0.000 A 
ATOM     23  C   UNL     1      -4.040   4.155  24.045  0.00  0.00    +0.000 A 
ENDBRANCH  12  18
ENDBRANCH   4  12
ENDBRANCH   6   4
BRANCH   8  10
ATOM     10  C   UNL     1      -0.132  -1.690  24.556  0.00  0.00    +0.138 C 
BRANCH  10   5
ATOM      3  O   UNL     1      -0.863   0.619  22.966  0.00  0.00    -0.276 OA
ATOM      5  N   UNL     1       0.293  -0.322  24.750  0.00  0.00    -0.313 N 
ATOM     14  C   UNL     1      -0.112   0.721  23.934  0.00  0.00    +0.214 C 
ATOM     25  H   UNL     1       0.910  -0.131  25.534  0.00  0.00    +0.149 HD
BRANCH  14  13
ATOM     13  C   UNL     1       0.480   2.059  24.344  0.00  0.00    +0.102 C 
BRANCH  13  11
ATOM     11  C   UNL     1      -0.295   2.793  25.466  0.00  0.00    -0.029 C 
ATOM     15  C   UNL     1      -1.642   2.107  25.748  0.00  0.00    +0.011 C 
ATOM     16  C   UNL     1       0.558   2.738  26.748  0.00  0.00    +0.011 C 
ATOM     17  C   UNL     1      -0.540   4.268  25.108  0.00  0.00    +0.011 C 
ENDBRANCH  13  11
ENDBRANCH  14  13
ENDBRANCH  10   5
ENDBRANCH   8  10
TORSDOF 8
ENDMDL
MODEL 9
REMARK VINA RESULT:      -2.9      1.712      4.311
REMARK  Name = 75536519
REMARK  11 active torsions:
REMARK  status: ('A' for Active; 'I' for Inactive)
REMARK    1  A    between atoms: O_2  and  C_7
REMARK    2  A    between atoms: N_4  and  C_6
REMARK    3  A    between atoms: N_4  and  C_12
REMARK    4  A    between atoms: N_5  and  C_10
REMARK    5  A    between atoms: C_8  and  C_10
REMARK    6  A    between atoms: C_11  and  C_13
REMARK    7  A    between atoms: C_11  and  C_15
REMARK    8  A    between atoms: C_11  and  C_16
REMARK    9  A    between atoms: C_11  and  C_17
REMARK   10  A    between atoms: C_12  and  C_18
REMARK   11  A    between atoms: C_13  and  C_14
REMARK                            x       y       z     vdW  Elec       q    Type
REMARK                         _______ _______ _______ _____ _____    ______ ____
ROOT
ATOM      1  O   UNL     1      -0.552   3.095  25.796  0.00  0.00    -0.371 OA
ATOM      6  C   UNL     1       0.070   0.807  25.660  0.00  0.00    +0.111 C 
ATOM      7  C   UNL     1      -0.035   1.375  24.257  0.00  0.00    +0.164 C 
ATOM      8  C   UNL     1       0.098   2.866  24.534  0.00  0.00    +0.165 C 
ATOM      9  C   UNL     1      -0.721   1.830  26.459  0.00  0.00    +0.181 C 
ENDROOT
BRANCH   7   2
ATOM      2  O   UNL     1       0.988   0.905  23.400  0.00  0.00    -0.388 OA
ATOM     26  H   UNL     1       0.914   1.372  22.551  0.00  0.00    +0.210 HD
ENDBRANCH   7   2
BRANCH   6   4
ATOM      4  N   UNL     1      -0.461  -0.541  25.785  0.00  0.00    -0.305 NA
ATOM     24  H   UNL     1       0.112  -1.065  26.447  0.00  0.00    +0.123 HD
BRANCH   4  12
ATOM     12  C   UNL     1      -1.838  -0.520  26.266  0.00  0.00    +0.116 C 
BRANCH  12  18
ATOM     18  C   UNL     1      -2.773  -1.227  25.320  0.00  0.00    -0.034 A 
ATOM     19  C   UNL     1      -3.678  -0.493  24.555  0.00  0.00    +0.005 A 
ATOM     20  C   UNL     1      -2.733  -2.617  25.210  0.00  0.00    +0.005 A 
ATOM     21  C   UNL     1      -4.545  -1.148  23.680  0.00  0.00    +0.000 A 
ATOM     22  C   UNL     1      -3.598  -3.272  24.334  0.00  0.00    +0.000 A 
ATOM     23  C   UNL     1      -4.505  -2.538  23.569  0.00  0.00    +0.000 A 
ENDBRANCH  12  18
ENDBRANCH   4  12
ENDBRANCH   6   4
BRANCH   8  10
ATOM     10  C   UNL     1      -0.539   3.735  23.464  0.00  0.00    +0.138 C 
BRANCH  10   5
ATOM      3  O   UNL     1      -2.844   2.144  22.722  0.00  0.00    -0.276 OA
ATOM      5  N   UNL     1      -1.926   4.010  23.761  0.00  0.00    -0.313 N 
ATOM     14  C   UNL     1      -2.966   3.187  23.363  0.00  0.00    +0.214 C 
ATOM     25  H   UNL     1      -2.132   4.847  24.298  0.00  0.00    +0.149 HD
BRANCH  14  13
ATOM     13  C   UNL     1      -4.329   3.701  23.792  0.00  0.00    +0.102 C 
BRANCH  13  11
ATOM     11  C   UNL     1      -4.673   3.458  25.282  0.00  0.00    -0.029 C 
ATOM     15  C   UNL     1      -3.524   3.914  26.197  0.00  0.00    +0.011 C 
ATOM     16  C   UNL     1      -5.926   4.287  25.624  0.00  0.00    +0.011 C 
ATOM     17  C   UNL     1      -4.981   1.977  25.554  0.00  0.00    +0.011 C 
ENDBRANCH  13  11
ENDBRANCH  14  13
ENDBRANCH  10   5
ENDBRANCH   8  10
TORSDOF 8
ENDMDL
MODEL 10
REMARK VINA RESULT:      -2.7     15.963     18.267
REMARK  Name = 75536519
REMARK  11 active torsions:
REMARK  status: ('A' for Active; 'I' for Inactive)
REMARK    1  A    between atoms: O_2  and  C_7
REMARK    2  A    between atoms: N_4  and  C_6
REMARK    3  A    between atoms: N_4  and  C_12
REMARK    4  A    between atoms: N_5  and  C_10
REMARK    5  A    between atoms: C_8  and  C_10
REMARK    6  A    between atoms: C_11  and  C_13
REMARK    7  A    between atoms: C_11  and  C_15
REMARK    8  A    between atoms: C_11  and  C_16
REMARK    9  A    between atoms: C_11  and  C_17
REMARK   10  A    between atoms: C_12  and  C_18
REMARK   11  A    between atoms: C_13  and  C_14
REMARK                            x       y       z     vdW  Elec       q    Type
REMARK                         _______ _______ _______ _____ _____    ______ ____
ROOT
ATOM      1  O   UNL     1      -9.757  -9.396   8.993  0.00  0.00    -0.371 OA
ATOM      6  C   UNL     1      -9.765  -9.292  11.366  0.00  0.00    +0.111 C 
ATOM      7  C   UNL     1      -8.497  -9.986  10.906  0.00  0.00    +0.164 C 
ATOM      8  C   UNL     1      -8.403  -9.501   9.466  0.00  0.00    +0.165 C 
ATOM      9  C   UNL     1     -10.640  -9.412  10.129  0.00  0.00    +0.181 C 
ENDROOT
BRANCH   7   2
ATOM      2  O   UNL     1      -7.363  -9.609  11.663  0.00  0.00    -0.388 OA
ATOM     26  H   UNL     1      -7.644  -9.461  12.581  0.00  0.00    +0.210 HD
ENDBRANCH   7   2
BRANCH   6   4
ATOM      4  N   UNL     1     -10.367  -9.896  12.544  0.00  0.00    -0.305 NA
ATOM     24  H   UNL     1      -9.726 -10.593  12.924  0.00  0.00    +0.123 HD
BRANCH   4  12
ATOM     12  C   UNL     1     -10.636  -8.894  13.568  0.00  0.00    +0.116 C 
BRANCH  12  18
ATOM     18  C   UNL     1      -9.855  -9.157  14.829  0.00  0.00    -0.034 A 
ATOM     19  C   UNL     1      -9.104 -10.325  14.953  0.00  0.00    +0.005 A 
ATOM     20  C   UNL     1      -9.882  -8.231  15.872  0.00  0.00    +0.005 A 
ATOM     21  C   UNL     1      -8.380 -10.569  16.121  0.00  0.00    +0.000 A 
ATOM     22  C   UNL     1      -9.158  -8.475  17.039  0.00  0.00    +0.000 A 
ATOM     23  C   UNL     1      -8.408  -9.643  17.164  0.00  0.00    +0.000 A 
ENDBRANCH  12  18
ENDBRANCH   4  12
ENDBRANCH   6   4
BRANCH   8  10
ATOM     10  C   UNL     1      -7.617 -10.438   8.566  0.00  0.00    +0.138 C 
BRANCH  10   5
ATOM      3  O   UNL     1      -5.079  -9.112   8.124  0.00  0.00    -0.276 OA
ATOM      5  N   UNL     1      -6.337 -10.779   9.145  0.00  0.00    -0.313 N 
ATOM     14  C   UNL     1      -5.171 -10.083   8.873  0.00  0.00    +0.214 C 
ATOM     25  H   UNL     1      -6.309 -11.564   9.789  0.00  0.00    +0.149 HD
BRANCH  14  13
ATOM     13  C   UNL     1      -3.961 -10.644   9.600  0.00  0.00    +0.102 C 
BRANCH  13  11
ATOM     11  C   UNL     1      -3.567  -9.880  10.887  0.00  0.00    -0.029 C 
ATOM     15  C   UNL     1      -2.099  -9.424  10.834  0.00  0.00    +0.011 C 
ATOM     16  C   UNL     1      -4.462  -8.629  10.992  0.00  0.00    +0.011 C 
ATOM     17  C   UNL     1      -3.787 -10.740  12.142  0.00  0.00    +0.011 C 
ENDBRANCH  13  11
ENDBRANCH  14  13
ENDBRANCH  10   5
ENDBRANCH   8  10
TORSDOF 8
ENDMDL
