MODEL 1
REMARK VINA RESULT:       4.6      0.000      0.000
REMARK  Name = 11879719
REMARK  11 active torsions:
REMARK  status: ('A' for Active; 'I' for Inactive)
REMARK    1  A    between atoms: O_4  and  C_20
REMARK    2  A    between atoms: O_4  and  C_29
REMARK    3  A    between atoms: O_5  and  C_22
REMARK    4  A    between atoms: O_5  and  C_33
REMARK    5  A    between atoms: N_9  and  C_19
REMARK    6  A    between atoms: N_10  and  C_24
REMARK    7  A    between atoms: C_12  and  C_16
REMARK    8  A    between atoms: C_17  and  C_20
REMARK    9  A    between atoms: C_19  and  C_21
REMARK   10  A    between atoms: C_19  and  C_22
REMARK   11  A    between atoms: C_21  and  C_23
REMARK                            x       y       z     vdW  Elec       q    Type
REMARK                         _______ _______ _______ _____ _____    ______ ____
ROOT
ATOM      2  O   UNL     1      -3.093   4.945  24.857  0.00  0.00    -0.273 OA
ATOM      3  O   UNL     1       0.808  -0.831  22.601  0.00  0.00    -0.252 OA
ATOM      7  N   UNL     1      -2.192   3.046  23.862  0.00  0.00    -0.285 N 
ATOM      8  N   UNL     1       0.037   1.257  23.237  0.00  0.00    -0.282 N 
ATOM     10  N   UNL     1       2.337   0.906  22.852  0.00  0.00    -0.269 N 
ATOM     12  C   UNL     1      -0.860   3.294  24.413  0.00  0.00    +0.179 C 
ATOM     13  C   UNL     1       0.270   2.663  23.598  0.00  0.00    +0.141 C 
ATOM     14  C   UNL     1      -2.344   1.888  22.974  0.00  0.00    +0.127 C 
ATOM     15  C   UNL     1      -1.345   0.781  23.275  0.00  0.00    +0.128 C 
ATOM     17  C   UNL     1      -3.212   3.968  24.113  0.00  0.00    +0.242 C 
ATOM     18  C   UNL     1       1.059   0.344  22.879  0.00  0.00    +0.307 C 
ATOM     37  H   UNL     1       2.410   1.902  22.666  0.00  0.00    +0.156 HD
ENDROOT
BRANCH  10  24
ATOM     24  C   UNL     1       3.571   0.262  23.115  0.00  0.00    +0.035 A 
ATOM     27  C   UNL     1       4.769   0.961  22.967  0.00  0.00    +0.023 A 
ATOM     28  C   UNL     1       3.588  -1.073  23.524  0.00  0.00    +0.023 A 
ATOM     31  C   UNL     1       5.984   0.326  23.226  0.00  0.00    +0.002 A 
ATOM     32  C   UNL     1       4.803  -1.707  23.783  0.00  0.00    +0.002 A 
ATOM     35  C   UNL     1       6.001  -1.008  23.635  0.00  0.00    +0.000 A 
ENDBRANCH  10  24
BRANCH  12  16
ATOM      1  O   UNL     1      -1.587   3.250  26.691  0.00  0.00    -0.274 OA
ATOM      9  N   UNL     1       0.089   1.782  26.014  0.00  0.00    -0.301 N 
ATOM     16  C   UNL     1      -0.847   2.785  25.827  0.00  0.00    +0.236 C 
ATOM     36  H   UNL     1       0.650   1.480  25.227  0.00  0.00    +0.150 HD
BRANCH   9  19
ATOM     19  C   UNL     1       0.316   1.142  27.290  0.00  0.00    +0.186 C 
BRANCH  19  22
ATOM      6  O   UNL     1       0.037   2.288  29.399  0.00  0.00    -0.249 OA
ATOM     22  C   UNL     1       0.696   2.142  28.374  0.00  0.00    +0.328 C 
BRANCH  22   5
ATOM      5  O   UNL     1       1.820   2.842  28.057  0.00  0.00    -0.467 OA
ATOM     33  C   UNL     1       2.785   2.980  29.106  0.00  0.00    +0.280 C 
ENDBRANCH  22   5
ENDBRANCH  19  22
BRANCH  19  21
ATOM     21  C   UNL     1      -0.874   0.266  27.709  0.00  0.00    +0.070 C 
BRANCH  21  23
ATOM     11  N   UNL     1      -0.961  -2.261  24.882  0.00  0.00    -0.263 NA
ATOM     23  C   UNL     1      -1.405  -0.641  26.621  0.00  0.00    -0.027 A 
ATOM     25  C   UNL     1      -2.766  -0.705  26.343  0.00  0.00    +0.006 A 
ATOM     26  C   UNL     1      -0.551  -1.431  25.869  0.00  0.00    +0.114 A 
ATOM     30  C   UNL     1      -3.225  -1.547  25.336  0.00  0.00    +0.020 A 
ATOM     34  C   UNL     1      -2.290  -2.298  24.641  0.00  0.00    +0.111 A 
ENDBRANCH  21  23
ENDBRANCH  19  21
ENDBRANCH   9  19
ENDBRANCH  12  16
BRANCH  17  20
ATOM     20  C   UNL     1      -4.528   3.718  23.418  0.00  0.00    +0.255 C 
BRANCH  20   4
ATOM      4  O   UNL     1      -5.136   2.639  24.087  0.00  0.00    -0.374 OA
ATOM     29  C   UNL     1      -5.437   2.953  25.446  0.00  0.00    +0.194 C 
ENDBRANCH  20   4
ENDBRANCH  17  20
TORSDOF 9
ENDMDL
MODEL 2
REMARK VINA RESULT:       5.8      1.456      2.708
REMARK  Name = 11879719
REMARK  11 active torsions:
REMARK  status: ('A' for Active; 'I' for Inactive)
REMARK    1  A    between atoms: O_4  and  C_20
REMARK    2  A    between atoms: O_4  and  C_29
REMARK    3  A    between atoms: O_5  and  C_22
REMARK    4  A    between atoms: O_5  and  C_33
REMARK    5  A    between atoms: N_9  and  C_19
REMARK    6  A    between atoms: N_10  and  C_24
REMARK    7  A    between atoms: C_12  and  C_16
REMARK    8  A    between atoms: C_17  and  C_20
REMARK    9  A    between atoms: C_19  and  C_21
REMARK   10  A    between atoms: C_19  and  C_22
REMARK   11  A    between atoms: C_21  and  C_23
REMARK                            x       y       z     vdW  Elec       q    Type
REMARK                         _______ _______ _______ _____ _____    ______ ____
ROOT
ATOM      2  O   UNL     1      -2.853   4.530  25.731  0.00  0.00    -0.273 OA
ATOM      3  O   UNL     1       1.218  -0.306  22.029  0.00  0.00    -0.252 OA
ATOM      7  N   UNL     1      -1.844   3.072  24.225  0.00  0.00    -0.285 N 
ATOM      8  N   UNL     1       0.408   1.448  23.302  0.00  0.00    -0.282 N 
ATOM     10  N   UNL     1       2.728   1.051  23.169  0.00  0.00    -0.269 N 
ATOM     12  C   UNL     1      -0.625   2.964  25.027  0.00  0.00    +0.179 C 
ATOM     13  C   UNL     1       0.613   2.584  24.214  0.00  0.00    +0.141 C 
ATOM     14  C   UNL     1      -1.869   2.358  22.944  0.00  0.00    +0.127 C 
ATOM     15  C   UNL     1      -0.972   1.129  22.938  0.00  0.00    +0.128 C 
ATOM     17  C   UNL     1      -2.865   3.925  24.656  0.00  0.00    +0.242 C 
ATOM     18  C   UNL     1       1.450   0.646  22.777  0.00  0.00    +0.307 C 
ATOM     37  H   UNL     1       2.862   2.031  23.399  0.00  0.00    +0.156 HD
ENDROOT
BRANCH  10  24
ATOM     24  C   UNL     1       3.876   0.240  23.346  0.00  0.00    +0.035 A 
ATOM     27  C   UNL     1       5.149   0.797  23.230  0.00  0.00    +0.023 A 
ATOM     28  C   UNL     1       3.732  -1.118  23.635  0.00  0.00    +0.023 A 
ATOM     31  C   UNL     1       6.279  -0.003  23.405  0.00  0.00    +0.002 A 
ATOM     32  C   UNL     1       4.863  -1.917  23.810  0.00  0.00    +0.002 A 
ATOM     35  C   UNL     1       6.136  -1.359  23.695  0.00  0.00    +0.000 A 
ENDBRANCH  10  24
BRANCH  12  16
ATOM      1  O   UNL     1      -0.444   2.110  27.253  0.00  0.00    -0.274 OA
ATOM      9  N   UNL     1      -1.619   0.878  25.665  0.00  0.00    -0.301 N 
ATOM     16  C   UNL     1      -0.880   1.958  26.114  0.00  0.00    +0.236 C 
ATOM     36  H   UNL     1      -1.924   0.857  24.699  0.00  0.00    +0.150 HD
BRANCH   9  19
ATOM     19  C   UNL     1      -1.979  -0.239  26.509  0.00  0.00    +0.186 C 
BRANCH  19  22
ATOM      6  O   UNL     1      -3.987  -1.442  27.109  0.00  0.00    -0.249 OA
ATOM     22  C   UNL     1      -3.473  -0.534  26.464  0.00  0.00    +0.328 C 
BRANCH  22   5
ATOM      5  O   UNL     1      -4.138   0.308  25.625  0.00  0.00    -0.467 OA
ATOM     33  C   UNL     1      -4.376  -0.191  24.305  0.00  0.00    +0.280 C 
ENDBRANCH  22   5
ENDBRANCH  19  22
BRANCH  19  21
ATOM     21  C   UNL     1      -1.138  -1.486  26.197  0.00  0.00    +0.070 C 
BRANCH  21  23
ATOM     11  N   UNL     1      -1.405  -3.451  22.965  0.00  0.00    -0.263 NA
ATOM     23  C   UNL     1      -1.701  -2.371  25.108  0.00  0.00    -0.027 A 
ATOM     25  C   UNL     1      -2.978  -2.910  25.212  0.00  0.00    +0.006 A 
ATOM     26  C   UNL     1      -0.961  -2.668  23.974  0.00  0.00    +0.114 A 
ATOM     30  C   UNL     1      -3.469  -3.720  24.194  0.00  0.00    +0.020 A 
ATOM     34  C   UNL     1      -2.651  -3.958  23.101  0.00  0.00    +0.111 A 
ENDBRANCH  21  23
ENDBRANCH  19  21
ENDBRANCH   9  19
ENDBRANCH  12  16
BRANCH  17  20
ATOM     20  C   UNL     1      -4.043   4.084  23.726  0.00  0.00    +0.255 C 
BRANCH  20   4
ATOM      4  O   UNL     1      -4.984   3.108  24.099  0.00  0.00    -0.374 OA
ATOM     29  C   UNL     1      -5.490   3.327  25.415  0.00  0.00    +0.194 C 
ENDBRANCH  20   4
ENDBRANCH  17  20
TORSDOF 9
ENDMDL
MODEL 3
REMARK VINA RESULT:       6.7      1.985      6.841
REMARK  Name = 11879719
REMARK  11 active torsions:
REMARK  status: ('A' for Active; 'I' for Inactive)
REMARK    1  A    between atoms: O_4  and  C_20
REMARK    2  A    between atoms: O_4  and  C_29
REMARK    3  A    between atoms: O_5  and  C_22
REMARK    4  A    between atoms: O_5  and  C_33
REMARK    5  A    between atoms: N_9  and  C_19
REMARK    6  A    between atoms: N_10  and  C_24
REMARK    7  A    between atoms: C_12  and  C_16
REMARK    8  A    between atoms: C_17  and  C_20
REMARK    9  A    between atoms: C_19  and  C_21
REMARK   10  A    between atoms: C_19  and  C_22
REMARK   11  A    between atoms: C_21  and  C_23
REMARK                            x       y       z     vdW  Elec       q    Type
REMARK                         _______ _______ _______ _____ _____    ______ ____
ROOT
ATOM      2  O   UNL     1       2.937  -0.303  21.547  0.00  0.00    -0.273 OA
ATOM      3  O   UNL     1      -1.459   3.333  26.143  0.00  0.00    -0.252 OA
ATOM      7  N   UNL     1       1.896   1.106  23.077  0.00  0.00    -0.285 N 
ATOM      8  N   UNL     1      -0.477   2.251  24.348  0.00  0.00    -0.282 N 
ATOM     10  N   UNL     1      -2.743   2.899  24.250  0.00  0.00    -0.269 N 
ATOM     12  C   UNL     1       0.558   0.639  22.714  0.00  0.00    +0.179 C 
ATOM     13  C   UNL     1      -0.547   1.656  23.005  0.00  0.00    +0.141 C 
ATOM     14  C   UNL     1       1.984   2.178  24.075  0.00  0.00    +0.127 C 
ATOM     15  C   UNL     1       0.808   2.180  25.040  0.00  0.00    +0.128 C 
ATOM     17  C   UNL     1       3.001   0.597  22.388  0.00  0.00    +0.242 C 
ATOM     18  C   UNL     1      -1.570   2.864  25.008  0.00  0.00    +0.307 C 
ATOM     37  H   UNL     1      -2.650   2.901  23.238  0.00  0.00    +0.156 HD
ENDROOT
BRANCH  10  24
ATOM     24  C   UNL     1      -4.078   2.873  24.721  0.00  0.00    +0.035 A 
ATOM     27  C   UNL     1      -4.820   1.694  24.651  0.00  0.00    +0.023 A 
ATOM     28  C   UNL     1      -4.652   4.027  25.257  0.00  0.00    +0.023 A 
ATOM     31  C   UNL     1      -6.135   1.668  25.116  0.00  0.00    +0.002 A 
ATOM     32  C   UNL     1      -5.967   4.000  25.721  0.00  0.00    +0.002 A 
ATOM     35  C   UNL     1      -6.709   2.821  25.651  0.00  0.00    +0.000 A 
ENDBRANCH  10  24
BRANCH  12  16
ATOM      1  O   UNL     1       0.445  -1.741  22.906  0.00  0.00    -0.274 OA
ATOM      9  N   UNL     1      -0.106  -0.434  24.753  0.00  0.00    -0.301 N 
ATOM     16  C   UNL     1       0.307  -0.647  23.448  0.00  0.00    +0.236 C 
ATOM     36  H   UNL     1      -0.189   0.516  25.093  0.00  0.00    +0.150 HD
BRANCH   9  19
ATOM     19  C   UNL     1      -0.434  -1.508  25.663  0.00  0.00    +0.186 C 
BRANCH  19  22
ATOM      6  O   UNL     1      -1.058  -1.222  27.980  0.00  0.00    -0.249 OA
ATOM     22  C   UNL     1      -1.336  -1.042  26.798  0.00  0.00    +0.328 C 
BRANCH  22   5
ATOM      5  O   UNL     1      -2.465  -0.433  26.342  0.00  0.00    -0.467 OA
ATOM     33  C   UNL     1      -3.701  -1.000  26.789  0.00  0.00    +0.280 C 
ENDBRANCH  22   5
ENDBRANCH  19  22
BRANCH  19  21
ATOM     21  C   UNL     1      -1.020  -2.722  24.926  0.00  0.00    +0.070 C 
BRANCH  21  23
ATOM     11  N   UNL     1      -3.993  -1.061  23.257  0.00  0.00    -0.263 NA
ATOM     23  C   UNL     1      -2.411  -2.512  24.368  0.00  0.00    -0.027 A 
ATOM     25  C   UNL     1      -3.369  -3.516  24.439  0.00  0.00    +0.006 A 
ATOM     26  C   UNL     1      -2.769  -1.313  23.773  0.00  0.00    +0.114 A 
ATOM     30  C   UNL     1      -4.640  -3.295  23.919  0.00  0.00    +0.020 A 
ATOM     34  C   UNL     1      -4.899  -2.061  23.344  0.00  0.00    +0.111 A 
ENDBRANCH  21  23
ENDBRANCH  19  21
ENDBRANCH   9  19
ENDBRANCH  12  16
BRANCH  17  20
ATOM     20  C   UNL     1       4.340   1.206  22.726  0.00  0.00    +0.255 C 
BRANCH  20   4
ATOM      4  O   UNL     1       5.249   0.138  22.843  0.00  0.00    -0.374 OA
ATOM     29  C   UNL     1       5.397  -0.293  24.195  0.00  0.00    +0.194 C 
ENDBRANCH  20   4
ENDBRANCH  17  20
TORSDOF 9
ENDMDL
MODEL 4
REMARK VINA RESULT:       6.8      2.185      4.094
REMARK  Name = 11879719
REMARK  11 active torsions:
REMARK  status: ('A' for Active; 'I' for Inactive)
REMARK    1  A    between atoms: O_4  and  C_20
REMARK    2  A    between atoms: O_4  and  C_29
REMARK    3  A    between atoms: O_5  and  C_22
REMARK    4  A    between atoms: O_5  and  C_33
REMARK    5  A    between atoms: N_9  and  C_19
REMARK    6  A    between atoms: N_10  and  C_24
REMARK    7  A    between atoms: C_12  and  C_16
REMARK    8  A    between atoms: C_17  and  C_20
REMARK    9  A    between atoms: C_19  and  C_21
REMARK   10  A    between atoms: C_19  and  C_22
REMARK   11  A    between atoms: C_21  and  C_23
REMARK                            x       y       z     vdW  Elec       q    Type
REMARK                         _______ _______ _______ _____ _____    ______ ____
ROOT
ATOM      2  O   UNL     1      -4.289   1.069  23.842  0.00  0.00    -0.273 OA
ATOM      3  O   UNL     1       2.083  -2.351  25.016  0.00  0.00    -0.252 OA
ATOM      7  N   UNL     1      -2.514  -0.382  24.235  0.00  0.00    -0.285 N 
ATOM      8  N   UNL     1       0.333  -1.058  24.227  0.00  0.00    -0.282 N 
ATOM     10  N   UNL     1       2.494  -0.813  23.316  0.00  0.00    -0.269 N 
ATOM     12  C   UNL     1      -1.514   0.610  23.840  0.00  0.00    +0.179 C 
ATOM     13  C   UNL     1      -0.201  -0.003  23.352  0.00  0.00    +0.141 C 
ATOM     14  C   UNL     1      -2.027  -1.718  24.597  0.00  0.00    +0.127 C 
ATOM     15  C   UNL     1      -0.608  -1.698  25.146  0.00  0.00    +0.128 C 
ATOM     17  C   UNL     1      -3.870  -0.051  24.145  0.00  0.00    +0.242 C 
ATOM     18  C   UNL     1       1.687  -1.471  24.247  0.00  0.00    +0.307 C 
ATOM     37  H   UNL     1       2.049  -0.455  22.477  0.00  0.00    +0.156 HD
ENDROOT
BRANCH  10  24
ATOM     24  C   UNL     1       3.876  -0.523  23.422  0.00  0.00    +0.035 A 
ATOM     27  C   UNL     1       4.350   0.747  23.095  0.00  0.00    +0.023 A 
ATOM     28  C   UNL     1       4.764  -1.509  23.855  0.00  0.00    +0.023 A 
ATOM     31  C   UNL     1       5.712   1.032  23.200  0.00  0.00    +0.002 A 
ATOM     32  C   UNL     1       6.126  -1.223  23.960  0.00  0.00    +0.002 A 
ATOM     35  C   UNL     1       6.600   0.048  23.633  0.00  0.00    +0.000 A 
ENDBRANCH  10  24
BRANCH  12  16
ATOM      1  O   UNL     1      -0.674   1.132  26.017  0.00  0.00    -0.274 OA
ATOM      9  N   UNL     1      -1.827   2.771  24.830  0.00  0.00    -0.301 N 
ATOM     16  C   UNL     1      -1.276   1.514  25.016  0.00  0.00    +0.236 C 
ATOM     36  H   UNL     1      -2.307   2.974  23.962  0.00  0.00    +0.150 HD
BRANCH   9  19
ATOM     19  C   UNL     1      -1.758   3.818  25.823  0.00  0.00    +0.186 C 
BRANCH  19  22
ATOM      6  O   UNL     1      -2.264   6.096  25.194  0.00  0.00    -0.249 OA
ATOM     22  C   UNL     1      -1.452   5.176  25.204  0.00  0.00    +0.328 C 
BRANCH  22   5
ATOM      5  O   UNL     1      -0.202   5.226  24.665  0.00  0.00    -0.467 OA
ATOM     33  C   UNL     1      -0.092   4.780  23.309  0.00  0.00    +0.280 C 
ENDBRANCH  22   5
ENDBRANCH  19  22
BRANCH  19  21
ATOM     21  C   UNL     1      -3.018   3.858  26.701  0.00  0.00    +0.070 C 
BRANCH  21  23
ATOM     11  N   UNL     1      -6.194   1.865  26.135  0.00  0.00    -0.263 NA
ATOM     23  C   UNL     1      -4.267   3.321  26.037  0.00  0.00    -0.027 A 
ATOM     25  C   UNL     1      -4.646   3.751  24.771  0.00  0.00    +0.006 A 
ATOM     26  C   UNL     1      -5.067   2.385  26.672  0.00  0.00    +0.114 A 
ATOM     30  C   UNL     1      -5.799   3.239  24.186  0.00  0.00    +0.020 A 
ATOM     34  C   UNL     1      -6.532   2.307  24.903  0.00  0.00    +0.111 A 
ENDBRANCH  21  23
ENDBRANCH  19  21
ENDBRANCH   9  19
ENDBRANCH  12  16
BRANCH  17  20
ATOM     20  C   UNL     1      -4.851  -1.155  24.452  0.00  0.00    +0.255 C 
BRANCH  20   4
ATOM      4  O   UNL     1      -4.720  -2.106  23.424  0.00  0.00    -0.374 OA
ATOM     29  C   UNL     1      -4.269  -3.367  23.916  0.00  0.00    +0.194 C 
ENDBRANCH  20   4
ENDBRANCH  17  20
TORSDOF 9
ENDMDL
MODEL 5
REMARK VINA RESULT:       6.8      1.974      3.936
REMARK  Name = 11879719
REMARK  11 active torsions:
REMARK  status: ('A' for Active; 'I' for Inactive)
REMARK    1  A    between atoms: O_4  and  C_20
REMARK    2  A    between atoms: O_4  and  C_29
REMARK    3  A    between atoms: O_5  and  C_22
REMARK    4  A    between atoms: O_5  and  C_33
REMARK    5  A    between atoms: N_9  and  C_19
REMARK    6  A    between atoms: N_10  and  C_24
REMARK    7  A    between atoms: C_12  and  C_16
REMARK    8  A    between atoms: C_17  and  C_20
REMARK    9  A    between atoms: C_19  and  C_21
REMARK   10  A    between atoms: C_19  and  C_22
REMARK   11  A    between atoms: C_21  and  C_23
REMARK                            x       y       z     vdW  Elec       q    Type
REMARK                         _______ _______ _______ _____ _____    ______ ____
ROOT
ATOM      2  O   UNL     1      -5.328   2.321  23.577  0.00  0.00    -0.273 OA
ATOM      3  O   UNL     1       0.563  -1.737  25.155  0.00  0.00    -0.252 OA
ATOM      7  N   UNL     1      -3.752   0.715  24.167  0.00  0.00    -0.285 N 
ATOM      8  N   UNL     1      -1.029  -0.354  24.203  0.00  0.00    -0.282 N 
ATOM     10  N   UNL     1       1.098  -0.575  23.209  0.00  0.00    -0.269 N 
ATOM     12  C   UNL     1      -2.646   1.474  23.584  0.00  0.00    +0.179 C 
ATOM     13  C   UNL     1      -1.455   0.607  23.174  0.00  0.00    +0.141 C 
ATOM     14  C   UNL     1      -3.436  -0.599  24.738  0.00  0.00    +0.127 C 
ATOM     15  C   UNL     1      -2.003  -0.692  25.240  0.00  0.00    +0.128 C 
ATOM     17  C   UNL     1      -5.053   1.218  24.056  0.00  0.00    +0.242 C 
ATOM     18  C   UNL     1       0.255  -0.948  24.259  0.00  0.00    +0.307 C 
ATOM     37  H   UNL     1       0.666  -0.300  22.332  0.00  0.00    +0.156 HD
ENDROOT
BRANCH  10  24
ATOM     24  C   UNL     1       2.510  -0.473  23.230  0.00  0.00    +0.035 A 
ATOM     27  C   UNL     1       3.135   0.670  22.732  0.00  0.00    +0.023 A 
ATOM     28  C   UNL     1       3.278  -1.517  23.749  0.00  0.00    +0.023 A 
ATOM     31  C   UNL     1       4.526   0.770  22.753  0.00  0.00    +0.002 A 
ATOM     32  C   UNL     1       4.669  -1.416  23.769  0.00  0.00    +0.002 A 
ATOM     35  C   UNL     1       5.293  -0.272  23.272  0.00  0.00    +0.000 A 
ENDBRANCH  10  24
BRANCH  12  16
ATOM      1  O   UNL     1      -3.052   3.203  25.185  0.00  0.00    -0.274 OA
ATOM      9  N   UNL     1      -0.853   2.606  24.703  0.00  0.00    -0.301 N 
ATOM     16  C   UNL     1      -2.229   2.517  24.583  0.00  0.00    +0.236 C 
ATOM     36  H   UNL     1      -0.270   1.990  24.151  0.00  0.00    +0.150 HD
BRANCH   9  19
ATOM     19  C   UNL     1      -0.197   3.549  25.581  0.00  0.00    +0.186 C 
BRANCH  19  22
ATOM      6  O   UNL     1       0.340   5.558  24.351  0.00  0.00    -0.249 OA
ATOM     22  C   UNL     1      -0.411   4.990  25.138  0.00  0.00    +0.328 C 
BRANCH  22   5
ATOM      5  O   UNL     1      -1.501   5.553  25.728  0.00  0.00    -0.467 OA
ATOM     33  C   UNL     1      -2.362   6.298  24.860  0.00  0.00    +0.280 C 
ENDBRANCH  22   5
ENDBRANCH  19  22
BRANCH  19  21
ATOM     21  C   UNL     1      -0.595   3.334  27.049  0.00  0.00    +0.070 C 
BRANCH  21  23
ATOM     11  N   UNL     1       2.938   2.804  28.321  0.00  0.00    -0.263 NA
ATOM     23  C   UNL     1       0.553   2.985  27.970  0.00  0.00    -0.027 A 
ATOM     25  C   UNL     1       0.320   2.535  29.265  0.00  0.00    +0.006 A 
ATOM     26  C   UNL     1       1.868   3.100  27.549  0.00  0.00    +0.114 A 
ATOM     30  C   UNL     1       1.395   2.221  30.089  0.00  0.00    +0.020 A 
ATOM     34  C   UNL     1       2.674   2.371  29.574  0.00  0.00    +0.111 A 
ENDBRANCH  21  23
ENDBRANCH  19  21
ENDBRANCH   9  19
ENDBRANCH  12  16
BRANCH  17  20
ATOM     20  C   UNL     1      -6.161   0.333  24.571  0.00  0.00    +0.255 C 
BRANCH  20   4
ATOM      4  O   UNL     1      -6.969   1.138  25.393  0.00  0.00    -0.374 OA
ATOM     29  C   UNL     1      -6.214   1.788  26.414  0.00  0.00    +0.194 C 
ENDBRANCH  20   4
ENDBRANCH  17  20
TORSDOF 9
ENDMDL
MODEL 6
REMARK VINA RESULT:       7.1      1.682      6.511
REMARK  Name = 11879719
REMARK  11 active torsions:
REMARK  status: ('A' for Active; 'I' for Inactive)
REMARK    1  A    between atoms: O_4  and  C_20
REMARK    2  A    between atoms: O_4  and  C_29
REMARK    3  A    between atoms: O_5  and  C_22
REMARK    4  A    between atoms: O_5  and  C_33
REMARK    5  A    between atoms: N_9  and  C_19
REMARK    6  A    between atoms: N_10  and  C_24
REMARK    7  A    between atoms: C_12  and  C_16
REMARK    8  A    between atoms: C_17  and  C_20
REMARK    9  A    between atoms: C_19  and  C_21
REMARK   10  A    between atoms: C_19  and  C_22
REMARK   11  A    between atoms: C_21  and  C_23
REMARK                            x       y       z     vdW  Elec       q    Type
REMARK                         _______ _______ _______ _____ _____    ______ ____
ROOT
ATOM      2  O   UNL     1       2.509  -1.042  22.036  0.00  0.00    -0.273 OA
ATOM      3  O   UNL     1      -1.586   4.108  25.257  0.00  0.00    -0.252 OA
ATOM      7  N   UNL     1       1.550   0.860  22.969  0.00  0.00    -0.285 N 
ATOM      8  N   UNL     1      -0.740   2.390  23.957  0.00  0.00    -0.282 N 
ATOM     10  N   UNL     1      -3.042   2.897  23.904  0.00  0.00    -0.269 N 
ATOM     12  C   UNL     1       0.216   0.260  23.015  0.00  0.00    +0.179 C 
ATOM     13  C   UNL     1      -0.919   1.285  23.003  0.00  0.00    +0.141 C 
ATOM     14  C   UNL     1       1.674   2.253  23.413  0.00  0.00    +0.127 C 
ATOM     15  C   UNL     1       0.618   2.640  24.438  0.00  0.00    +0.128 C 
ATOM     17  C   UNL     1       2.604   0.129  22.412  0.00  0.00    +0.242 C 
ATOM     18  C   UNL     1      -1.792   3.204  24.444  0.00  0.00    +0.307 C 
ATOM     37  H   UNL     1      -3.066   2.476  22.980  0.00  0.00    +0.156 HD
ENDROOT
BRANCH  10  24
ATOM     24  C   UNL     1      -4.310   3.047  24.518  0.00  0.00    +0.035 A 
ATOM     27  C   UNL     1      -4.694   4.284  25.034  0.00  0.00    +0.023 A 
ATOM     28  C   UNL     1      -5.175   1.955  24.607  0.00  0.00    +0.023 A 
ATOM     31  C   UNL     1      -5.942   4.432  25.638  0.00  0.00    +0.002 A 
ATOM     32  C   UNL     1      -6.423   2.103  25.212  0.00  0.00    +0.002 A 
ATOM     35  C   UNL     1      -6.807   3.342  25.727  0.00  0.00    +0.000 A 
ENDBRANCH  10  24
BRANCH  12  16
ATOM      1  O   UNL     1       0.791  -1.643  24.342  0.00  0.00    -0.274 OA
ATOM      9  N   UNL     1      -0.731  -0.098  25.187  0.00  0.00    -0.301 N 
ATOM     16  C   UNL     1       0.144  -0.603  24.242  0.00  0.00    +0.236 C 
ATOM     36  H   UNL     1      -1.216   0.770  24.995  0.00  0.00    +0.150 HD
BRANCH   9  19
ATOM     19  C   UNL     1      -0.998  -0.754  26.447  0.00  0.00    +0.186 C 
BRANCH  19  22
ATOM      6  O   UNL     1      -0.157  -0.529  28.702  0.00  0.00    -0.249 OA
ATOM     22  C   UNL     1      -0.408   0.008  27.627  0.00  0.00    +0.328 C 
BRANCH  22   5
ATOM      5  O   UNL     1      -0.219   1.327  27.345  0.00  0.00    -0.467 OA
ATOM     33  C   UNL     1       0.565   2.059  28.293  0.00  0.00    +0.280 C 
ENDBRANCH  22   5
ENDBRANCH  19  22
BRANCH  19  21
ATOM     21  C   UNL     1      -2.496  -1.037  26.638  0.00  0.00    +0.070 C 
BRANCH  21  23
ATOM     11  N   UNL     1      -3.638  -3.586  24.073  0.00  0.00    -0.263 NA
ATOM     23  C   UNL     1      -3.184  -1.639  25.433  0.00  0.00    -0.027 A 
ATOM     25  C   UNL     1      -3.966  -0.858  24.591  0.00  0.00    +0.006 A 
ATOM     26  C   UNL     1      -3.051  -2.986  25.134  0.00  0.00    +0.114 A 
ATOM     30  C   UNL     1      -4.586  -1.440  23.490  0.00  0.00    +0.020 A 
ATOM     34  C   UNL     1      -4.392  -2.796  23.277  0.00  0.00    +0.111 A 
ENDBRANCH  21  23
ENDBRANCH  19  21
ENDBRANCH   9  19
ENDBRANCH  12  16
BRANCH  17  20
ATOM     20  C   UNL     1       3.925   0.847  22.285  0.00  0.00    +0.255 C 
BRANCH  20   4
ATOM      4  O   UNL     1       4.528   0.805  23.555  0.00  0.00    -0.374 OA
ATOM     29  C   UNL     1       5.446  -0.280  23.676  0.00  0.00    +0.194 C 
ENDBRANCH  20   4
ENDBRANCH  17  20
TORSDOF 9
ENDMDL
MODEL 7
REMARK VINA RESULT:       7.3      1.850      3.658
REMARK  Name = 11879719
REMARK  11 active torsions:
REMARK  status: ('A' for Active; 'I' for Inactive)
REMARK    1  A    between atoms: O_4  and  C_20
REMARK    2  A    between atoms: O_4  and  C_29
REMARK    3  A    between atoms: O_5  and  C_22
REMARK    4  A    between atoms: O_5  and  C_33
REMARK    5  A    between atoms: N_9  and  C_19
REMARK    6  A    between atoms: N_10  and  C_24
REMARK    7  A    between atoms: C_12  and  C_16
REMARK    8  A    between atoms: C_17  and  C_20
REMARK    9  A    between atoms: C_19  and  C_21
REMARK   10  A    between atoms: C_19  and  C_22
REMARK   11  A    between atoms: C_21  and  C_23
REMARK                            x       y       z     vdW  Elec       q    Type
REMARK                         _______ _______ _______ _____ _____    ______ ____
ROOT
ATOM      2  O   UNL     1      -4.081   1.642  23.263  0.00  0.00    -0.273 OA
ATOM      3  O   UNL     1       1.968  -2.040  25.139  0.00  0.00    -0.252 OA
ATOM      7  N   UNL     1      -2.439   0.137  23.933  0.00  0.00    -0.285 N 
ATOM      8  N   UNL     1       0.341  -0.759  24.106  0.00  0.00    -0.282 N 
ATOM     10  N   UNL     1       2.524  -0.845  23.219  0.00  0.00    -0.269 N 
ATOM     12  C   UNL     1      -1.355   0.965  23.404  0.00  0.00    +0.179 C 
ATOM     13  C   UNL     1      -0.093   0.175  23.055  0.00  0.00    +0.141 C 
ATOM     14  C   UNL     1      -2.069  -1.155  24.522  0.00  0.00    +0.127 C 
ATOM     15  C   UNL     1      -0.660  -1.158  25.094  0.00  0.00    +0.128 C 
ATOM     17  C   UNL     1      -3.761   0.558  23.757  0.00  0.00    +0.242 C 
ATOM     18  C   UNL     1       1.656  -1.272  24.226  0.00  0.00    +0.307 C 
ATOM     37  H   UNL     1       2.120  -0.597  22.321  0.00  0.00    +0.156 HD
ENDROOT
BRANCH  10  24
ATOM     24  C   UNL     1       3.925  -0.654  23.310  0.00  0.00    +0.035 A 
ATOM     27  C   UNL     1       4.744  -1.694  23.751  0.00  0.00    +0.023 A 
ATOM     28  C   UNL     1       4.486   0.574  22.957  0.00  0.00    +0.023 A 
ATOM     31  C   UNL     1       6.124  -1.506  23.839  0.00  0.00    +0.002 A 
ATOM     32  C   UNL     1       5.866   0.761  23.046  0.00  0.00    +0.002 A 
ATOM     35  C   UNL     1       6.685  -0.279  23.487  0.00  0.00    +0.000 A 
ENDBRANCH  10  24
BRANCH  12  16
ATOM      1  O   UNL     1      -0.526   3.095  24.107  0.00  0.00    -0.274 OA
ATOM      9  N   UNL     1      -1.418   1.650  25.701  0.00  0.00    -0.301 N 
ATOM     16  C   UNL     1      -1.054   2.031  24.420  0.00  0.00    +0.236 C 
ATOM     36  H   UNL     1      -1.844   0.743  25.842  0.00  0.00    +0.150 HD
BRANCH   9  19
ATOM     19  C   UNL     1      -1.212   2.487  26.861  0.00  0.00    +0.186 C 
BRANCH  19  22
ATOM      6  O   UNL     1       1.166   2.660  26.468  0.00  0.00    -0.249 OA
ATOM     22  C   UNL     1       0.252   2.541  27.278  0.00  0.00    +0.328 C 
BRANCH  22   5
ATOM      5  O   UNL     1       0.407   2.425  28.626  0.00  0.00    -0.467 OA
ATOM     33  C   UNL     1       1.757   2.459  29.101  0.00  0.00    +0.280 C 
ENDBRANCH  22   5
ENDBRANCH  19  22
BRANCH  19  21
ATOM     21  C   UNL     1      -1.806   3.891  26.665  0.00  0.00    +0.070 C 
BRANCH  21  23
ATOM     11  N   UNL     1      -5.512   3.200  26.261  0.00  0.00    -0.263 NA
ATOM     23  C   UNL     1      -3.207   3.910  26.097  0.00  0.00    -0.027 A 
ATOM     25  C   UNL     1      -3.499   4.616  24.936  0.00  0.00    +0.006 A 
ATOM     26  C   UNL     1      -4.240   3.224  26.717  0.00  0.00    +0.114 A 
ATOM     30  C   UNL     1      -4.797   4.616  24.436  0.00  0.00    +0.020 A 
ATOM     34  C   UNL     1      -5.759   3.898  25.130  0.00  0.00    +0.111 A 
ENDBRANCH  21  23
ENDBRANCH  19  21
ENDBRANCH   9  19
ENDBRANCH  12  16
BRANCH  17  20
ATOM     20  C   UNL     1      -4.835  -0.396  24.218  0.00  0.00    +0.255 C 
BRANCH  20   4
ATOM      4  O   UNL     1      -4.729  -1.541  23.408  0.00  0.00    -0.374 OA
ATOM     29  C   UNL     1      -4.336  -2.692  24.155  0.00  0.00    +0.194 C 
ENDBRANCH  20   4
ENDBRANCH  17  20
TORSDOF 9
ENDMDL
MODEL 8
REMARK VINA RESULT:       8.0      1.867      3.665
REMARK  Name = 11879719
REMARK  11 active torsions:
REMARK  status: ('A' for Active; 'I' for Inactive)
REMARK    1  A    between atoms: O_4  and  C_20
REMARK    2  A    between atoms: O_4  and  C_29
REMARK    3  A    between atoms: O_5  and  C_22
REMARK    4  A    between atoms: O_5  and  C_33
REMARK    5  A    between atoms: N_9  and  C_19
REMARK    6  A    between atoms: N_10  and  C_24
REMARK    7  A    between atoms: C_12  and  C_16
REMARK    8  A    between atoms: C_17  and  C_20
REMARK    9  A    between atoms: C_19  and  C_21
REMARK   10  A    between atoms: C_19  and  C_22
REMARK   11  A    between atoms: C_21  and  C_23
REMARK                            x       y       z     vdW  Elec       q    Type
REMARK                         _______ _______ _______ _____ _____    ______ ____
ROOT
ATOM      2  O   UNL     1      -2.880   3.660  26.378  0.00  0.00    -0.273 OA
ATOM      3  O   UNL     1       1.874   0.622  21.706  0.00  0.00    -0.252 OA
ATOM      7  N   UNL     1      -1.553   2.969  24.598  0.00  0.00    -0.285 N 
ATOM      8  N   UNL     1       0.810   1.649  23.486  0.00  0.00    -0.282 N 
ATOM     10  N   UNL     1       3.067   0.992  23.671  0.00  0.00    -0.269 N 
ATOM     12  C   UNL     1      -0.598   2.289  25.473  0.00  0.00    +0.179 C 
ATOM     13  C   UNL     1       0.800   2.152  24.868  0.00  0.00    +0.141 C 
ATOM     14  C   UNL     1      -1.257   2.977  23.161  0.00  0.00    +0.127 C 
ATOM     15  C   UNL     1      -0.432   1.776  22.724  0.00  0.00    +0.128 C 
ATOM     17  C   UNL     1      -2.624   3.661  25.171  0.00  0.00    +0.242 C 
ATOM     18  C   UNL     1       1.928   1.042  22.864  0.00  0.00    +0.307 C 
ATOM     37  H   UNL     1       3.166   1.702  24.391  0.00  0.00    +0.156 HD
ENDROOT
BRANCH  10  24
ATOM     24  C   UNL     1       4.098   0.021  23.652  0.00  0.00    +0.035 A 
ATOM     27  C   UNL     1       5.423   0.413  23.461  0.00  0.00    +0.023 A 
ATOM     28  C   UNL     1       3.788  -1.329  23.825  0.00  0.00    +0.023 A 
ATOM     31  C   UNL     1       6.438  -0.543  23.443  0.00  0.00    +0.002 A 
ATOM     32  C   UNL     1       4.804  -2.285  23.807  0.00  0.00    +0.002 A 
ATOM     35  C   UNL     1       6.129  -1.892  23.616  0.00  0.00    +0.000 A 
ENDBRANCH  10  24
BRANCH  12  16
ATOM      1  O   UNL     1      -0.987   0.419  26.911  0.00  0.00    -0.274 OA
ATOM      9  N   UNL     1      -1.869   0.387  24.756  0.00  0.00    -0.301 N 
ATOM     16  C   UNL     1      -1.167   0.941  25.813  0.00  0.00    +0.236 C 
ATOM     36  H   UNL     1      -1.949   0.909  23.891  0.00  0.00    +0.150 HD
BRANCH   9  19
ATOM     19  C   UNL     1      -2.494  -0.915  24.818  0.00  0.00    +0.186 C 
BRANCH  19  22
ATOM      6  O   UNL     1      -0.305  -1.797  25.335  0.00  0.00    -0.249 OA
ATOM     22  C   UNL     1      -1.486  -2.023  25.095  0.00  0.00    +0.328 C 
BRANCH  22   5
ATOM      5  O   UNL     1      -2.050  -3.260  25.023  0.00  0.00    -0.467 OA
ATOM     33  C   UNL     1      -3.268  -3.347  24.274  0.00  0.00    +0.280 C 
ENDBRANCH  22   5
ENDBRANCH  19  22
BRANCH  19  21
ATOM     21  C   UNL     1      -3.662  -0.939  25.815  0.00  0.00    +0.070 C 
BRANCH  21  23
ATOM     11  N   UNL     1      -6.359   1.113  24.113  0.00  0.00    -0.263 NA
ATOM     23  C   UNL     1      -4.715   0.122  25.582  0.00  0.00    -0.027 A 
ATOM     25  C   UNL     1      -5.014   1.061  26.563  0.00  0.00    +0.006 A 
ATOM     26  C   UNL     1      -5.408   0.190  24.385  0.00  0.00    +0.114 A 
ATOM     30  C   UNL     1      -5.986   2.025  26.320  0.00  0.00    +0.020 A 
ATOM     34  C   UNL     1      -6.624   2.009  25.089  0.00  0.00    +0.111 A 
ENDBRANCH  21  23
ENDBRANCH  19  21
ENDBRANCH   9  19
ENDBRANCH  12  16
BRANCH  17  20
ATOM     20  C   UNL     1      -3.503   4.440  24.224  0.00  0.00    +0.255 C 
BRANCH  20   4
ATOM      4  O   UNL     1      -4.350   3.504  23.601  0.00  0.00    -0.374 OA
ATOM     29  C   UNL     1      -4.101   3.407  22.199  0.00  0.00    +0.194 C 
ENDBRANCH  20   4
ENDBRANCH  17  20
TORSDOF 9
ENDMDL
MODEL 9
REMARK VINA RESULT:       8.1      2.078      7.230
REMARK  Name = 11879719
REMARK  11 active torsions:
REMARK  status: ('A' for Active; 'I' for Inactive)
REMARK    1  A    between atoms: O_4  and  C_20
REMARK    2  A    between atoms: O_4  and  C_29
REMARK    3  A    between atoms: O_5  and  C_22
REMARK    4  A    between atoms: O_5  and  C_33
REMARK    5  A    between atoms: N_9  and  C_19
REMARK    6  A    between atoms: N_10  and  C_24
REMARK    7  A    between atoms: C_12  and  C_16
REMARK    8  A    between atoms: C_17  and  C_20
REMARK    9  A    between atoms: C_19  and  C_21
REMARK   10  A    between atoms: C_19  and  C_22
REMARK   11  A    between atoms: C_21  and  C_23
REMARK                            x       y       z     vdW  Elec       q    Type
REMARK                         _______ _______ _______ _____ _____    ______ ____
ROOT
ATOM      2  O   UNL     1       2.211  -0.532  21.303  0.00  0.00    -0.273 OA
ATOM      3  O   UNL     1      -0.976   3.603  26.442  0.00  0.00    -0.252 OA
ATOM      7  N   UNL     1       1.613   0.898  23.036  0.00  0.00    -0.285 N 
ATOM      8  N   UNL     1      -0.323   2.538  24.494  0.00  0.00    -0.282 N 
ATOM     10  N   UNL     1      -2.266   3.873  24.522  0.00  0.00    -0.269 N 
ATOM     12  C   UNL     1       0.209   0.934  22.627  0.00  0.00    +0.179 C 
ATOM     13  C   UNL     1      -0.530   2.194  23.079  0.00  0.00    +0.141 C 
ATOM     14  C   UNL     1       1.999   1.732  24.180  0.00  0.00    +0.127 C 
ATOM     15  C   UNL     1       0.852   1.966  25.151  0.00  0.00    +0.128 C 
ATOM     17  C   UNL     1       2.526   0.171  22.266  0.00  0.00    +0.242 C 
ATOM     18  C   UNL     1      -1.190   3.362  25.252  0.00  0.00    +0.307 C 
ATOM     37  H   UNL     1      -2.143   3.992  23.521  0.00  0.00    +0.156 HD
ENDROOT
BRANCH  10  24
ATOM     24  C   UNL     1      -3.557   4.201  25.003  0.00  0.00    +0.035 A 
ATOM     27  C   UNL     1      -3.933   3.841  26.297  0.00  0.00    +0.023 A 
ATOM     28  C   UNL     1      -4.455   4.885  24.181  0.00  0.00    +0.023 A 
ATOM     31  C   UNL     1      -5.205   4.165  26.770  0.00  0.00    +0.002 A 
ATOM     32  C   UNL     1      -5.726   5.208  24.654  0.00  0.00    +0.002 A 
ATOM     35  C   UNL     1      -6.102   4.849  25.949  0.00  0.00    +0.000 A 
ENDBRANCH  10  24
BRANCH  12  16
ATOM      1  O   UNL     1      -0.117  -1.427  22.817  0.00  0.00    -0.274 OA
ATOM      9  N   UNL     1      -1.476   0.002  24.055  0.00  0.00    -0.301 N 
ATOM     16  C   UNL     1      -0.457  -0.299  23.168  0.00  0.00    +0.236 C 
ATOM     36  H   UNL     1      -1.672   0.973  24.268  0.00  0.00    +0.150 HD
BRANCH   9  19
ATOM     19  C   UNL     1      -2.288  -1.006  24.697  0.00  0.00    +0.186 C 
BRANCH  19  22
ATOM      6  O   UNL     1      -0.436  -2.136  25.763  0.00  0.00    -0.249 OA
ATOM     22  C   UNL     1      -1.471  -2.224  25.109  0.00  0.00    +0.328 C 
BRANCH  22   5
ATOM      5  O   UNL     1      -2.015  -3.386  24.654  0.00  0.00    -0.467 OA
ATOM     33  C   UNL     1      -3.397  -3.324  24.285  0.00  0.00    +0.280 C 
ENDBRANCH  22   5
ENDBRANCH  19  22
BRANCH  19  21
ATOM     21  C   UNL     1      -3.091  -0.430  25.873  0.00  0.00    +0.070 C 
BRANCH  21  23
ATOM     11  N   UNL     1      -6.461   1.296  26.091  0.00  0.00    -0.263 NA
ATOM     23  C   UNL     1      -4.323   0.353  25.473  0.00  0.00    -0.027 A 
ATOM     25  C   UNL     1      -4.473   0.840  24.180  0.00  0.00    +0.006 A 
ATOM     26  C   UNL     1      -5.336   0.605  26.384  0.00  0.00    +0.114 A 
ATOM     30  C   UNL     1      -5.616   1.555  23.841  0.00  0.00    +0.020 A 
ATOM     34  C   UNL     1      -6.572   1.754  24.825  0.00  0.00    +0.111 A 
ENDBRANCH  21  23
ENDBRANCH  19  21
ENDBRANCH   9  19
ENDBRANCH  12  16
BRANCH  17  20
ATOM     20  C   UNL     1       3.976   0.272  22.671  0.00  0.00    +0.255 C 
BRANCH  20   4
ATOM      4  O   UNL     1       4.246  -0.849  23.476  0.00  0.00    -0.374 OA
ATOM     29  C   UNL     1       5.463  -0.703  24.208  0.00  0.00    +0.194 C 
ENDBRANCH  20   4
ENDBRANCH  17  20
TORSDOF 9
ENDMDL
