MODEL 1
REMARK VINA RESULT:      -1.9      0.000      0.000
REMARK  Name = 25390377
REMARK  11 active torsions:
REMARK  status: ('A' for Active; 'I' for Inactive)
REMARK    1  A    between atoms: O_2  and  C_11
REMARK    2  A    between atoms: O_3  and  C_12
REMARK    3  A    between atoms: N_7  and  C_15
REMARK    4  A    between atoms: C_10  and  C_14
REMARK    5  A    between atoms: C_13  and  C_15
REMARK    6  A    between atoms: C_14  and  C_16
REMARK    7  A    between atoms: C_21  and  C_22
REMARK    8  A    between atoms: C_21  and  C_24
REMARK    9  A    between atoms: C_21  and  C_25
REMARK   10  A    between atoms: C_24  and  C_27
REMARK   11  A    between atoms: C_25  and  C_28
REMARK                            x       y       z     vdW  Elec       q    Type
REMARK                         _______ _______ _______ _____ _____    ______ ____
ROOT
ATOM      1  O   UNL     1      -3.099   2.004  25.254  0.00  0.00    -0.366 OA
ATOM     10  C   UNL     1      -2.637   3.340  24.952  0.00  0.00    +0.159 C 
ATOM     11  C   UNL     1      -3.779   4.282  25.314  0.00  0.00    +0.175 C 
ATOM     12  C   UNL     1      -4.993   3.400  25.106  0.00  0.00    +0.176 C 
ATOM     13  C   UNL     1      -4.489   2.062  25.620  0.00  0.00    +0.167 C 
ENDROOT
BRANCH  11   2
ATOM      2  O   UNL     1      -3.649   4.627  26.693  0.00  0.00    -0.387 OA
ATOM     32  H   UNL     1      -3.593   5.597  26.745  0.00  0.00    +0.210 HD
ENDBRANCH  11   2
BRANCH  12   3
ATOM      3  O   UNL     1      -6.133   3.843  25.811  0.00  0.00    -0.387 OA
ATOM     33  H   UNL     1      -6.080   4.812  25.874  0.00  0.00    +0.210 HD
ENDBRANCH  12   3
BRANCH  10  14
ATOM     14  C   UNL     1      -2.273   3.385  23.474  0.00  0.00    +0.130 C 
BRANCH  14  16
ATOM      4  O   UNL     1      -2.711   1.494  22.114  0.00  0.00    -0.276 OA
ATOM      6  N   UNL     1      -0.852   1.368  23.499  0.00  0.00    -0.298 N 
ATOM      8  N   UNL     1       1.856   0.573  23.533  0.00  0.00    -0.312 N 
ATOM      9  N   UNL     1       4.132   1.160  23.250  0.00  0.00    -0.240 NA
ATOM     16  C   UNL     1      -1.972   1.999  22.964  0.00  0.00    +0.218 C 
ATOM     17  C   UNL     1       0.047   1.931  24.508  0.00  0.00    +0.126 C 
ATOM     18  C   UNL     1      -0.498   0.013  23.081  0.00  0.00    +0.126 C 
ATOM     19  C   UNL     1       1.493   1.914  24.013  0.00  0.00    +0.125 C 
ATOM     20  C   UNL     1       0.935  -0.033  22.558  0.00  0.00    +0.125 C 
ATOM     23  C   UNL     1       3.204   0.202  23.473  0.00  0.00    +0.121 A 
ATOM     26  C   UNL     1       3.500  -1.140  23.647  0.00  0.00    +0.043 A 
ATOM     29  C   UNL     1       4.835  -1.525  23.591  0.00  0.00    +0.005 A 
ATOM     30  C   UNL     1       5.419   0.747  23.201  0.00  0.00    +0.113 A 
ATOM     31  C   UNL     1       5.819  -0.569  23.364  0.00  0.00    +0.020 A 
ENDBRANCH  14  16
ENDBRANCH  10  14
BRANCH  13  15
ATOM     15  C   UNL     1      -5.224   0.873  25.025  0.00  0.00    +0.138 C 
BRANCH  15   7
ATOM      5  O   UNL     1      -3.811  -1.129  26.526  0.00  0.00    -0.276 OA
ATOM      7  N   UNL     1      -4.305  -0.110  24.503  0.00  0.00    -0.313 N 
ATOM     22  C   UNL     1      -3.666  -1.042  25.308  0.00  0.00    +0.216 C 
ATOM     34  H   UNL     1      -4.061  -0.047  23.520  0.00  0.00    +0.149 HD
BRANCH  22  21
ATOM     21  C   UNL     1      -2.731  -1.960  24.515  0.00  0.00    +0.074 C 
BRANCH  21  24
ATOM     24  C   UNL     1      -3.413  -3.278  24.112  0.00  0.00    +0.009 C 
ATOM     27  C   UNL     1      -4.769  -3.054  23.453  0.00  0.00    +0.004 C 
ENDBRANCH  21  24
BRANCH  21  25
ATOM     25  C   UNL     1      -1.428  -2.202  25.306  0.00  0.00    +0.009 C 
ATOM     28  C   UNL     1      -0.944  -1.008  26.118  0.00  0.00    +0.004 C 
ENDBRANCH  21  25
ENDBRANCH  22  21
ENDBRANCH  15   7
ENDBRANCH  13  15
TORSDOF 9
ENDMDL
MODEL 2
REMARK VINA RESULT:      -1.4      0.303      1.467
REMARK  Name = 25390377
REMARK  11 active torsions:
REMARK  status: ('A' for Active; 'I' for Inactive)
REMARK    1  A    between atoms: O_2  and  C_11
REMARK    2  A    between atoms: O_3  and  C_12
REMARK    3  A    between atoms: N_7  and  C_15
REMARK    4  A    between atoms: C_10  and  C_14
REMARK    5  A    between atoms: C_13  and  C_15
REMARK    6  A    between atoms: C_14  and  C_16
REMARK    7  A    between atoms: C_21  and  C_22
REMARK    8  A    between atoms: C_21  and  C_24
REMARK    9  A    between atoms: C_21  and  C_25
REMARK   10  A    between atoms: C_24  and  C_27
REMARK   11  A    between atoms: C_25  and  C_28
REMARK                            x       y       z     vdW  Elec       q    Type
REMARK                         _______ _______ _______ _____ _____    ______ ____
ROOT
ATOM      1  O   UNL     1      -2.970   1.864  25.163  0.00  0.00    -0.366 OA
ATOM     10  C   UNL     1      -2.589   3.225  24.859  0.00  0.00    +0.159 C 
ATOM     11  C   UNL     1      -3.774   4.101  25.248  0.00  0.00    +0.175 C 
ATOM     12  C   UNL     1      -4.941   3.154  25.058  0.00  0.00    +0.176 C 
ATOM     13  C   UNL     1      -4.354   1.843  25.555  0.00  0.00    +0.167 C 
ENDROOT
BRANCH  11   2
ATOM      2  O   UNL     1      -3.636   4.447  26.626  0.00  0.00    -0.387 OA
ATOM     32  H   UNL     1      -2.691   4.600  26.793  0.00  0.00    +0.210 HD
ENDBRANCH  11   2
BRANCH  12   3
ATOM      3  O   UNL     1      -6.090   3.531  25.786  0.00  0.00    -0.387 OA
ATOM     33  H   UNL     1      -5.868   4.333  26.288  0.00  0.00    +0.210 HD
ENDBRANCH  12   3
BRANCH  10  14
ATOM     14  C   UNL     1      -2.256   3.295  23.375  0.00  0.00    +0.130 C 
BRANCH  14  16
ATOM      4  O   UNL     1      -2.633   1.432  21.961  0.00  0.00    -0.276 OA
ATOM      6  N   UNL     1      -0.815   1.292  23.398  0.00  0.00    -0.298 N 
ATOM      8  N   UNL     1       1.899   0.523  23.495  0.00  0.00    -0.312 N 
ATOM      9  N   UNL     1       4.176   1.137  23.293  0.00  0.00    -0.240 NA
ATOM     16  C   UNL     1      -1.926   1.924  22.844  0.00  0.00    +0.218 C 
ATOM     17  C   UNL     1       0.048   1.841  24.446  0.00  0.00    +0.126 C 
ATOM     18  C   UNL     1      -0.435  -0.049  22.961  0.00  0.00    +0.126 C 
ATOM     19  C   UNL     1       1.508   1.849  23.993  0.00  0.00    +0.125 C 
ATOM     20  C   UNL     1       1.014  -0.070  22.480  0.00  0.00    +0.125 C 
ATOM     23  C   UNL     1       3.252   0.167  23.467  0.00  0.00    +0.121 A 
ATOM     26  C   UNL     1       3.556  -1.177  23.621  0.00  0.00    +0.043 A 
ATOM     29  C   UNL     1       4.896  -1.547  23.595  0.00  0.00    +0.005 A 
ATOM     30  C   UNL     1       5.468   0.739  23.273  0.00  0.00    +0.113 A 
ATOM     31  C   UNL     1       5.876  -0.577  23.419  0.00  0.00    +0.020 A 
ENDBRANCH  14  16
ENDBRANCH  10  14
BRANCH  13  15
ATOM     15  C   UNL     1      -5.033   0.619  24.969  0.00  0.00    +0.138 C 
BRANCH  15   7
ATOM      5  O   UNL     1      -3.925  -1.187  26.910  0.00  0.00    -0.276 OA
ATOM      7  N   UNL     1      -4.088  -0.443  24.720  0.00  0.00    -0.313 N 
ATOM     22  C   UNL     1      -3.606  -1.269  25.726  0.00  0.00    +0.216 C 
ATOM     34  H   UNL     1      -3.704  -0.519  23.784  0.00  0.00    +0.149 HD
BRANCH  22  21
ATOM     21  C   UNL     1      -2.603  -2.303  25.206  0.00  0.00    +0.074 C 
BRANCH  21  24
ATOM     24  C   UNL     1      -1.158  -1.775  25.227  0.00  0.00    +0.009 C 
ATOM     27  C   UNL     1      -0.921  -0.776  26.353  0.00  0.00    +0.004 C 
ENDBRANCH  21  24
BRANCH  21  25
ATOM     25  C   UNL     1      -3.020  -2.788  23.801  0.00  0.00    +0.009 C 
ATOM     28  C   UNL     1      -4.524  -2.867  23.575  0.00  0.00    +0.004 C 
ENDBRANCH  21  25
ENDBRANCH  22  21
ENDBRANCH  15   7
ENDBRANCH  13  15
TORSDOF 9
ENDMDL
MODEL 3
REMARK VINA RESULT:      -0.6      1.763      4.147
REMARK  Name = 25390377
REMARK  11 active torsions:
REMARK  status: ('A' for Active; 'I' for Inactive)
REMARK    1  A    between atoms: O_2  and  C_11
REMARK    2  A    between atoms: O_3  and  C_12
REMARK    3  A    between atoms: N_7  and  C_15
REMARK    4  A    between atoms: C_10  and  C_14
REMARK    5  A    between atoms: C_13  and  C_15
REMARK    6  A    between atoms: C_14  and  C_16
REMARK    7  A    between atoms: C_21  and  C_22
REMARK    8  A    between atoms: C_21  and  C_24
REMARK    9  A    between atoms: C_21  and  C_25
REMARK   10  A    between atoms: C_24  and  C_27
REMARK   11  A    between atoms: C_25  and  C_28
REMARK                            x       y       z     vdW  Elec       q    Type
REMARK                         _______ _______ _______ _____ _____    ______ ____
ROOT
ATOM      1  O   UNL     1      -4.856   0.773  23.885  0.00  0.00    -0.366 OA
ATOM     10  C   UNL     1      -5.321   0.336  25.182  0.00  0.00    +0.159 C 
ATOM     11  C   UNL     1      -5.752   1.592  25.930  0.00  0.00    +0.175 C 
ATOM     12  C   UNL     1      -4.857   2.648  25.315  0.00  0.00    +0.176 C 
ATOM     13  C   UNL     1      -4.826   2.211  23.859  0.00  0.00    +0.167 C 
ENDROOT
BRANCH  11   2
ATOM      2  O   UNL     1      -7.119   1.854  25.608  0.00  0.00    -0.387 OA
ATOM     32  H   UNL     1      -7.597   1.966  26.447  0.00  0.00    +0.210 HD
ENDBRANCH  11   2
BRANCH  12   3
ATOM      3  O   UNL     1      -5.355   3.960  25.464  0.00  0.00    -0.387 OA
ATOM     33  H   UNL     1      -6.153   4.034  24.913  0.00  0.00    +0.210 HD
ENDBRANCH  12   3
BRANCH  10  14
ATOM     14  C   UNL     1      -4.177  -0.401  25.864  0.00  0.00    +0.130 C 
BRANCH  14  16
ATOM      4  O   UNL     1      -4.165  -2.006  24.120  0.00  0.00    -0.276 OA
ATOM      6  N   UNL     1      -2.094  -1.325  24.918  0.00  0.00    -0.298 N 
ATOM      8  N   UNL     1       0.480  -0.544  24.063  0.00  0.00    -0.312 N 
ATOM      9  N   UNL     1       1.959   1.202  23.453  0.00  0.00    -0.240 NA
ATOM     16  C   UNL     1      -3.486  -1.318  24.888  0.00  0.00    +0.218 C 
ATOM     17  C   UNL     1      -1.254  -0.525  25.812  0.00  0.00    +0.126 C 
ATOM     18  C   UNL     1      -1.340  -2.200  24.023  0.00  0.00    +0.126 C 
ATOM     19  C   UNL     1      -0.251   0.307  25.012  0.00  0.00    +0.125 C 
ATOM     20  C   UNL     1      -0.345  -1.395  23.192  0.00  0.00    +0.125 C 
ATOM     23  C   UNL     1       1.723  -0.124  23.574  0.00  0.00    +0.121 A 
ATOM     26  C   UNL     1       2.639  -1.109  23.242  0.00  0.00    +0.043 A 
ATOM     29  C   UNL     1       3.878  -0.708  22.756  0.00  0.00    +0.005 A 
ATOM     30  C   UNL     1       3.174   1.553  22.976  0.00  0.00    +0.113 A 
ATOM     31  C   UNL     1       4.159   0.647  22.617  0.00  0.00    +0.020 A 
ENDBRANCH  14  16
ENDBRANCH  10  14
BRANCH  13  15
ATOM     15  C   UNL     1      -3.590   2.684  23.115  0.00  0.00    +0.138 C 
BRANCH  15   7
ATOM      5  O   UNL     1      -0.736   2.385  22.959  0.00  0.00    -0.276 OA
ATOM      7  N   UNL     1      -2.612   3.245  24.016  0.00  0.00    -0.313 N 
ATOM     22  C   UNL     1      -1.247   3.046  23.861  0.00  0.00    +0.216 C 
ATOM     34  H   UNL     1      -2.956   3.727  24.840  0.00  0.00    +0.149 HD
BRANCH  22  21
ATOM     21  C   UNL     1      -0.426   3.731  24.957  0.00  0.00    +0.074 C 
BRANCH  21  24
ATOM     24  C   UNL     1      -0.742   3.175  26.356  0.00  0.00    +0.009 C 
ATOM     27  C   UNL     1       0.505   2.689  27.084  0.00  0.00    +0.004 C 
ENDBRANCH  21  24
BRANCH  21  25
ATOM     25  C   UNL     1      -0.617   5.261  24.886  0.00  0.00    +0.009 C 
ATOM     28  C   UNL     1      -2.015   5.746  25.246  0.00  0.00    +0.004 C 
ENDBRANCH  21  25
ENDBRANCH  22  21
ENDBRANCH  15   7
ENDBRANCH  13  15
TORSDOF 9
ENDMDL
MODEL 4
REMARK VINA RESULT:       0.1      1.791      3.045
REMARK  Name = 25390377
REMARK  11 active torsions:
REMARK  status: ('A' for Active; 'I' for Inactive)
REMARK    1  A    between atoms: O_2  and  C_11
REMARK    2  A    between atoms: O_3  and  C_12
REMARK    3  A    between atoms: N_7  and  C_15
REMARK    4  A    between atoms: C_10  and  C_14
REMARK    5  A    between atoms: C_13  and  C_15
REMARK    6  A    between atoms: C_14  and  C_16
REMARK    7  A    between atoms: C_21  and  C_22
REMARK    8  A    between atoms: C_21  and  C_24
REMARK    9  A    between atoms: C_21  and  C_25
REMARK   10  A    between atoms: C_24  and  C_27
REMARK   11  A    between atoms: C_25  and  C_28
REMARK                            x       y       z     vdW  Elec       q    Type
REMARK                         _______ _______ _______ _____ _____    ______ ____
ROOT
ATOM      1  O   UNL     1      -4.303   1.656  25.810  0.00  0.00    -0.366 OA
ATOM     10  C   UNL     1      -4.919   2.867  26.305  0.00  0.00    +0.159 C 
ATOM     11  C   UNL     1      -6.369   2.835  25.837  0.00  0.00    +0.175 C 
ATOM     12  C   UNL     1      -6.271   2.021  24.563  0.00  0.00    +0.176 C 
ATOM     13  C   UNL     1      -5.234   0.979  24.946  0.00  0.00    +0.167 C 
ENDROOT
BRANCH  11   2
ATOM      2  O   UNL     1      -7.135   2.132  26.815  0.00  0.00    -0.387 OA
ATOM     32  H   UNL     1      -6.565   1.438  27.187  0.00  0.00    +0.210 HD
ENDBRANCH  11   2
BRANCH  12   3
ATOM      3  O   UNL     1      -7.496   1.434  24.179  0.00  0.00    -0.387 OA
ATOM     33  H   UNL     1      -7.496   0.518  24.505  0.00  0.00    +0.210 HD
ENDBRANCH  12   3
BRANCH  10  14
ATOM     14  C   UNL     1      -4.138   4.048  25.747  0.00  0.00    +0.130 C 
BRANCH  14  16
ATOM      4  O   UNL     1      -2.541   4.269  27.483  0.00  0.00    -0.276 OA
ATOM      6  N   UNL     1      -1.713   3.795  25.367  0.00  0.00    -0.298 N 
ATOM      8  N   UNL     1       0.153   2.166  24.014  0.00  0.00    -0.312 N 
ATOM      9  N   UNL     1       0.605   0.146  22.864  0.00  0.00    -0.240 NA
ATOM     16  C   UNL     1      -2.730   4.050  26.284  0.00  0.00    +0.218 C 
ATOM     17  C   UNL     1      -1.895   3.531  23.938  0.00  0.00    +0.126 C 
ATOM     18  C   UNL     1      -0.316   3.800  25.794  0.00  0.00    +0.126 C 
ATOM     19  C   UNL     1      -1.239   2.208  23.545  0.00  0.00    +0.125 C 
ATOM     20  C   UNL     1       0.363   2.480  25.436  0.00  0.00    +0.125 C 
ATOM     23  C   UNL     1       1.064   1.300  23.397  0.00  0.00    +0.121 A 
ATOM     26  C   UNL     1       2.394   1.691  23.376  0.00  0.00    +0.043 A 
ATOM     29  C   UNL     1       3.311   0.842  22.767  0.00  0.00    +0.005 A 
ATOM     30  C   UNL     1       1.527  -0.653  22.282  0.00  0.00    +0.113 A 
ATOM     31  C   UNL     1       2.878  -0.354  22.207  0.00  0.00    +0.020 A 
ENDBRANCH  14  16
ENDBRANCH  10  14
BRANCH  13  15
ATOM     15  C   UNL     1      -4.495   0.399  23.753  0.00  0.00    +0.138 C 
BRANCH  15   7
ATOM      5  O   UNL     1      -4.860  -2.443  23.531  0.00  0.00    -0.276 OA
ATOM      7  N   UNL     1      -3.561  -0.626  24.155  0.00  0.00    -0.313 N 
ATOM     22  C   UNL     1      -3.826  -1.980  24.009  0.00  0.00    +0.216 C 
ATOM     34  H   UNL     1      -2.722  -0.330  24.642  0.00  0.00    +0.149 HD
BRANCH  22  21
ATOM     21  C   UNL     1      -2.684  -2.860  24.528  0.00  0.00    +0.074 C 
BRANCH  21  24
ATOM     24  C   UNL     1      -2.755  -3.068  26.051  0.00  0.00    +0.009 C 
ATOM     27  C   UNL     1      -3.259  -1.830  26.783  0.00  0.00    +0.004 C 
ENDBRANCH  21  24
BRANCH  21  25
ATOM     25  C   UNL     1      -1.324  -2.280  24.086  0.00  0.00    +0.009 C 
ATOM     28  C   UNL     1      -0.424  -1.824  25.228  0.00  0.00    +0.004 C 
ENDBRANCH  21  25
ENDBRANCH  22  21
ENDBRANCH  15   7
ENDBRANCH  13  15
TORSDOF 9
ENDMDL
