MODEL 1
REMARK VINA RESULT:      -2.9      0.000      0.000
REMARK  Name = 75536380
REMARK  11 active torsions:
REMARK  status: ('A' for Active; 'I' for Inactive)
REMARK    1  A    between atoms: O_2  and  C_9
REMARK    2  A    between atoms: O_4  and  C_27
REMARK    3  A    between atoms: O_4  and  C_31
REMARK    4  A    between atoms: O_5  and  C_28
REMARK    5  A    between atoms: N_6  and  C_13
REMARK    6  A    between atoms: N_6  and  C_16
REMARK    7  A    between atoms: C_8  and  C_13
REMARK    8  A    between atoms: C_10  and  C_14
REMARK    9  A    between atoms: C_14  and  C_15
REMARK   10  A    between atoms: C_16  and  C_18
REMARK   11  A    between atoms: C_19  and  C_20
REMARK                            x       y       z     vdW  Elec       q    Type
REMARK                         _______ _______ _______ _____ _____    ______ ____
ROOT
ATOM      1  O   UNL     1      -1.807 -10.754  13.524  0.00  0.00    -0.369 OA
ATOM      8  C   UNL     1      -1.982 -10.779  14.947  0.00  0.00    +0.161 C 
ATOM      9  C   UNL     1      -0.892  -9.966  15.658  0.00  0.00    +0.145 C 
ATOM     10  C   UNL     1      -1.750  -9.450  12.942  0.00  0.00    +0.125 C 
ATOM     11  C   UNL     1      -0.726  -8.572  15.060  0.00  0.00    +0.036 C 
ATOM     12  C   UNL     1      -0.601  -8.641  13.540  0.00  0.00    +0.034 C 
ENDROOT
BRANCH   9   2
ATOM      2  O   UNL     1       0.355 -10.651  15.524  0.00  0.00    -0.389 OA
ATOM     33  H   UNL     1       0.573 -11.037  16.390  0.00  0.00    +0.210 HD
ENDBRANCH   9   2
BRANCH   8  13
ATOM     13  C   UNL     1      -3.395 -10.353  15.335  0.00  0.00    +0.115 C 
BRANCH  13   6
ATOM      6  N   UNL     1      -3.442  -9.905  16.718  0.00  0.00    -0.309 NA
ATOM     32  H   UNL     1      -2.620 -10.253  17.213  0.00  0.00    +0.122 HD
BRANCH   6  16
ATOM     16  C   UNL     1      -4.637 -10.399  17.388  0.00  0.00    +0.116 C 
BRANCH  16  18
ATOM     18  C   UNL     1      -5.886 -10.096  16.603  0.00  0.00    -0.033 A 
ATOM     21  C   UNL     1      -7.014  -9.595  17.253  0.00  0.00    +0.008 A 
ATOM     22  C   UNL     1      -5.915 -10.317  15.226  0.00  0.00    +0.008 A 
ATOM     23  C   UNL     1      -8.170  -9.314  16.526  0.00  0.00    +0.046 A 
ATOM     24  C   UNL     1      -7.072 -10.037  14.500  0.00  0.00    +0.046 A 
ATOM     27  C   UNL     1      -8.200  -9.534  15.149  0.00  0.00    +0.120 A 
BRANCH  27   4
ATOM      4  O   UNL     1      -9.328  -9.260  14.440  0.00  0.00    -0.495 OA
ATOM     31  C   UNL     1     -10.303  -8.429  15.069  0.00  0.00    +0.277 C 
ENDBRANCH  27   4
ENDBRANCH  16  18
ENDBRANCH   6  16
ENDBRANCH  13   6
ENDBRANCH   8  13
BRANCH  10  14
ATOM     14  C   UNL     1      -1.566  -9.625  11.439  0.00  0.00    +0.090 C 
BRANCH  14  15
ATOM      3  O   UNL     1      -4.230  -9.186   9.051  0.00  0.00    -0.354 OA
ATOM      7  N   UNL     1      -2.887  -9.184   9.410  0.00  0.00    -0.083 NA
ATOM     15  C   UNL     1      -2.874  -9.525  10.702  0.00  0.00    +0.087 A 
ATOM     17  C   UNL     1      -4.166  -9.753  11.206  0.00  0.00    +0.076 A 
ATOM     19  C   UNL     1      -4.982  -9.527  10.129  0.00  0.00    +0.168 A 
BRANCH  19  20
ATOM     20  C   UNL     1      -6.398  -9.574   9.911  0.00  0.00    +0.023 A 
ATOM     25  C   UNL     1      -7.060  -8.466   9.383  0.00  0.00    +0.057 A 
ATOM     26  C   UNL     1      -7.113 -10.729  10.228  0.00  0.00    +0.012 A 
ATOM     28  C   UNL     1      -8.438  -8.512   9.173  0.00  0.00    +0.118 A 
ATOM     29  C   UNL     1      -8.491 -10.774  10.019  0.00  0.00    +0.004 A 
ATOM     30  C   UNL     1      -9.154  -9.666   9.490  0.00  0.00    +0.045 A 
BRANCH  28   5
ATOM      5  O   UNL     1      -9.084  -7.430   8.658  0.00  0.00    -0.507 OA
ATOM     34  H   UNL     1      -9.063  -6.710   9.312  0.00  0.00    +0.292 HD
ENDBRANCH  28   5
ENDBRANCH  19  20
ENDBRANCH  14  15
ENDBRANCH  10  14
TORSDOF 10
ENDMDL
MODEL 2
REMARK VINA RESULT:      -2.9     14.885     17.366
REMARK  Name = 75536380
REMARK  11 active torsions:
REMARK  status: ('A' for Active; 'I' for Inactive)
REMARK    1  A    between atoms: O_2  and  C_9
REMARK    2  A    between atoms: O_4  and  C_27
REMARK    3  A    between atoms: O_4  and  C_31
REMARK    4  A    between atoms: O_5  and  C_28
REMARK    5  A    between atoms: N_6  and  C_13
REMARK    6  A    between atoms: N_6  and  C_16
REMARK    7  A    between atoms: C_8  and  C_13
REMARK    8  A    between atoms: C_10  and  C_14
REMARK    9  A    between atoms: C_14  and  C_15
REMARK   10  A    between atoms: C_16  and  C_18
REMARK   11  A    between atoms: C_19  and  C_20
REMARK                            x       y       z     vdW  Elec       q    Type
REMARK                         _______ _______ _______ _____ _____    ______ ____
ROOT
ATOM      1  O   UNL     1      -3.510   0.190  23.762  0.00  0.00    -0.369 OA
ATOM      8  C   UNL     1      -4.387  -0.590  24.585  0.00  0.00    +0.161 C 
ATOM      9  C   UNL     1      -3.620  -1.688  25.334  0.00  0.00    +0.145 C 
ATOM     10  C   UNL     1      -2.404   0.783  24.445  0.00  0.00    +0.125 C 
ATOM     11  C   UNL     1      -2.385  -1.149  26.049  0.00  0.00    +0.036 C 
ATOM     12  C   UNL     1      -1.543  -0.289  25.111  0.00  0.00    +0.034 C 
ENDROOT
BRANCH   9   2
ATOM      2  O   UNL     1      -3.185  -2.670  24.391  0.00  0.00    -0.389 OA
ATOM     33  H   UNL     1      -3.360  -2.321  23.500  0.00  0.00    +0.210 HD
ENDBRANCH   9   2
BRANCH   8  13
ATOM     13  C   UNL     1      -5.210   0.301  25.512  0.00  0.00    +0.115 C 
BRANCH  13   6
ATOM      6  N   UNL     1      -6.033   1.226  24.748  0.00  0.00    -0.309 NA
ATOM     32  H   UNL     1      -5.621   1.358  23.823  0.00  0.00    +0.122 HD
BRANCH   6  16
ATOM     16  C   UNL     1      -6.121   2.520  25.412  0.00  0.00    +0.116 C 
BRANCH  16  18
ATOM     18  C   UNL     1      -4.823   3.279  25.335  0.00  0.00    -0.033 A 
ATOM     21  C   UNL     1      -4.063   3.480  26.487  0.00  0.00    +0.008 A 
ATOM     22  C   UNL     1      -4.380   3.781  24.111  0.00  0.00    +0.008 A 
ATOM     23  C   UNL     1      -2.860   4.183  26.416  0.00  0.00    +0.046 A 
ATOM     24  C   UNL     1      -3.178   4.484  24.040  0.00  0.00    +0.046 A 
ATOM     27  C   UNL     1      -2.417   4.685  25.192  0.00  0.00    +0.120 A 
BRANCH  27   4
ATOM      4  O   UNL     1      -1.244   5.370  25.123  0.00  0.00    -0.495 OA
ATOM     31  C   UNL     1      -0.159   4.731  24.452  0.00  0.00    +0.277 C 
ENDBRANCH  27   4
ENDBRANCH  16  18
ENDBRANCH   6  16
ENDBRANCH  13   6
ENDBRANCH   8  13
BRANCH  10  14
ATOM     14  C   UNL     1      -1.596   1.567  23.417  0.00  0.00    +0.090 C 
BRANCH  14  15
ATOM      3  O   UNL     1       1.195  -0.388  22.242  0.00  0.00    -0.354 OA
ATOM      7  N   UNL     1      -0.147  -0.026  22.225  0.00  0.00    -0.083 NA
ATOM     15  C   UNL     1      -0.259   0.927  23.154  0.00  0.00    +0.087 A 
ATOM     17  C   UNL     1       0.967   1.206  23.783  0.00  0.00    +0.076 A 
ATOM     19  C   UNL     1       1.848   0.353  23.174  0.00  0.00    +0.168 A 
BRANCH  19  20
ATOM     20  C   UNL     1       3.251   0.091  23.306  0.00  0.00    +0.023 A 
ATOM     25  C   UNL     1       3.694  -1.189  23.641  0.00  0.00    +0.057 A 
ATOM     26  C   UNL     1       4.173   1.117  23.101  0.00  0.00    +0.012 A 
ATOM     28  C   UNL     1       5.059  -1.442  23.772  0.00  0.00    +0.118 A 
ATOM     29  C   UNL     1       5.539   0.863  23.233  0.00  0.00    +0.004 A 
ATOM     30  C   UNL     1       5.981  -0.417  23.567  0.00  0.00    +0.045 A 
BRANCH  28   5
ATOM      5  O   UNL     1       5.491  -2.691  24.099  0.00  0.00    -0.507 OA
ATOM     34  H   UNL     1       4.908  -3.056  24.787  0.00  0.00    +0.292 HD
ENDBRANCH  28   5
ENDBRANCH  19  20
ENDBRANCH  14  15
ENDBRANCH  10  14
TORSDOF 10
ENDMDL
MODEL 3
REMARK VINA RESULT:      -1.5     14.209     17.481
REMARK  Name = 75536380
REMARK  11 active torsions:
REMARK  status: ('A' for Active; 'I' for Inactive)
REMARK    1  A    between atoms: O_2  and  C_9
REMARK    2  A    between atoms: O_4  and  C_27
REMARK    3  A    between atoms: O_4  and  C_31
REMARK    4  A    between atoms: O_5  and  C_28
REMARK    5  A    between atoms: N_6  and  C_13
REMARK    6  A    between atoms: N_6  and  C_16
REMARK    7  A    between atoms: C_8  and  C_13
REMARK    8  A    between atoms: C_10  and  C_14
REMARK    9  A    between atoms: C_14  and  C_15
REMARK   10  A    between atoms: C_16  and  C_18
REMARK   11  A    between atoms: C_19  and  C_20
REMARK                            x       y       z     vdW  Elec       q    Type
REMARK                         _______ _______ _______ _____ _____    ______ ____
ROOT
ATOM      1  O   UNL     1      -4.310   3.506  26.742  0.00  0.00    -0.369 OA
ATOM      8  C   UNL     1      -5.646   3.144  26.365  0.00  0.00    +0.161 C 
ATOM      9  C   UNL     1      -6.178   4.059  25.254  0.00  0.00    +0.145 C 
ATOM     10  C   UNL     1      -3.363   3.533  25.673  0.00  0.00    +0.125 C 
ATOM     11  C   UNL     1      -5.199   4.190  24.091  0.00  0.00    +0.036 C 
ATOM     12  C   UNL     1      -3.797   4.522  24.592  0.00  0.00    +0.034 C 
ENDROOT
BRANCH   9   2
ATOM      2  O   UNL     1      -6.391   5.365  25.795  0.00  0.00    -0.389 OA
ATOM     33  H   UNL     1      -6.102   6.010  25.128  0.00  0.00    +0.210 HD
ENDBRANCH   9   2
BRANCH   8  13
ATOM     13  C   UNL     1      -5.736   1.662  26.013  0.00  0.00    +0.115 C 
BRANCH  13   6
ATOM      6  N   UNL     1      -5.340   1.430  24.632  0.00  0.00    -0.309 NA
ATOM     32  H   UNL     1      -5.922   1.999  24.016  0.00  0.00    +0.122 HD
BRANCH   6  16
ATOM     16  C   UNL     1      -5.504   0.028  24.270  0.00  0.00    +0.116 C 
BRANCH  16  18
ATOM     18  C   UNL     1      -4.235  -0.756  24.475  0.00  0.00    -0.033 A 
ATOM     21  C   UNL     1      -4.166  -2.089  24.072  0.00  0.00    +0.008 A 
ATOM     22  C   UNL     1      -3.128  -0.148  25.067  0.00  0.00    +0.008 A 
ATOM     23  C   UNL     1      -2.990  -2.815  24.261  0.00  0.00    +0.046 A 
ATOM     24  C   UNL     1      -1.953  -0.874  25.257  0.00  0.00    +0.046 A 
ATOM     27  C   UNL     1      -1.883  -2.208  24.854  0.00  0.00    +0.120 A 
BRANCH  27   4
ATOM      4  O   UNL     1      -0.736  -2.916  25.038  0.00  0.00    -0.495 OA
ATOM     31  C   UNL     1       0.422  -2.183  25.436  0.00  0.00    +0.277 C 
ENDBRANCH  27   4
ENDBRANCH  16  18
ENDBRANCH   6  16
ENDBRANCH  13   6
ENDBRANCH   8  13
BRANCH  10  14
ATOM     14  C   UNL     1      -2.015   3.930  26.263  0.00  0.00    +0.090 C 
BRANCH  14  15
ATOM      3  O   UNL     1       0.929   1.916  25.750  0.00  0.00    -0.354 OA
ATOM      7  N   UNL     1       0.086   2.681  26.547  0.00  0.00    -0.083 NA
ATOM     15  C   UNL     1      -0.899   3.071  25.734  0.00  0.00    +0.087 A 
ATOM     17  C   UNL     1      -0.733   2.586  24.424  0.00  0.00    +0.076 A 
ATOM     19  C   UNL     1       0.431   1.867  24.488  0.00  0.00    +0.168 A 
BRANCH  19  20
ATOM     20  C   UNL     1       1.197   1.106  23.545  0.00  0.00    +0.023 A 
ATOM     25  C   UNL     1       2.581   1.262  23.483  0.00  0.00    +0.057 A 
ATOM     26  C   UNL     1       0.556   0.211  22.688  0.00  0.00    +0.012 A 
ATOM     28  C   UNL     1       3.325   0.523  22.564  0.00  0.00    +0.118 A 
ATOM     29  C   UNL     1       1.301  -0.527  21.768  0.00  0.00    +0.004 A 
ATOM     30  C   UNL     1       2.686  -0.372  21.707  0.00  0.00    +0.045 A 
BRANCH  28   5
ATOM      5  O   UNL     1       4.677   0.675  22.503  0.00  0.00    -0.507 OA
ATOM     34  H   UNL     1       4.887   1.625  22.484  0.00  0.00    +0.292 HD
ENDBRANCH  28   5
ENDBRANCH  19  20
ENDBRANCH  14  15
ENDBRANCH  10  14
TORSDOF 10
ENDMDL
MODEL 4
REMARK VINA RESULT:      -1.1     14.479     17.430
REMARK  Name = 75536380
REMARK  11 active torsions:
REMARK  status: ('A' for Active; 'I' for Inactive)
REMARK    1  A    between atoms: O_2  and  C_9
REMARK    2  A    between atoms: O_4  and  C_27
REMARK    3  A    between atoms: O_4  and  C_31
REMARK    4  A    between atoms: O_5  and  C_28
REMARK    5  A    between atoms: N_6  and  C_13
REMARK    6  A    between atoms: N_6  and  C_16
REMARK    7  A    between atoms: C_8  and  C_13
REMARK    8  A    between atoms: C_10  and  C_14
REMARK    9  A    between atoms: C_14  and  C_15
REMARK   10  A    between atoms: C_16  and  C_18
REMARK   11  A    between atoms: C_19  and  C_20
REMARK                            x       y       z     vdW  Elec       q    Type
REMARK                         _______ _______ _______ _____ _____    ______ ____
ROOT
ATOM      1  O   UNL     1      -3.680   2.555  25.637  0.00  0.00    -0.369 OA
ATOM      8  C   UNL     1      -4.917   1.976  25.204  0.00  0.00    +0.161 C 
ATOM      9  C   UNL     1      -6.120   2.763  25.741  0.00  0.00    +0.145 C 
ATOM     10  C   UNL     1      -3.509   3.937  25.314  0.00  0.00    +0.125 C 
ATOM     11  C   UNL     1      -5.993   4.262  25.487  0.00  0.00    +0.036 C 
ATOM     12  C   UNL     1      -4.626   4.777  25.930  0.00  0.00    +0.034 C 
ENDROOT
BRANCH   9   2
ATOM      2  O   UNL     1      -6.206   2.565  27.153  0.00  0.00    -0.389 OA
ATOM     33  H   UNL     1      -5.496   1.952  27.409  0.00  0.00    +0.210 HD
ENDBRANCH   9   2
BRANCH   8  13
ATOM     13  C   UNL     1      -4.944   1.806  23.687  0.00  0.00    +0.115 C 
BRANCH  13   6
ATOM      6  N   UNL     1      -4.264   0.583  23.288  0.00  0.00    -0.309 NA
ATOM     32  H   UNL     1      -4.656   0.253  22.406  0.00  0.00    +0.122 HD
BRANCH   6  16
ATOM     16  C   UNL     1      -4.428  -0.458  24.294  0.00  0.00    +0.116 C 
BRANCH  16  18
ATOM     18  C   UNL     1      -3.111  -1.080  24.677  0.00  0.00    -0.033 A 
ATOM     21  C   UNL     1      -2.235  -0.396  25.519  0.00  0.00    +0.008 A 
ATOM     22  C   UNL     1      -2.768  -2.341  24.189  0.00  0.00    +0.008 A 
ATOM     23  C   UNL     1      -1.016  -0.972  25.875  0.00  0.00    +0.046 A 
ATOM     24  C   UNL     1      -1.549  -2.917  24.544  0.00  0.00    +0.046 A 
ATOM     27  C   UNL     1      -0.672  -2.234  25.387  0.00  0.00    +0.120 A 
BRANCH  27   4
ATOM      4  O   UNL     1       0.517  -2.796  25.734  0.00  0.00    -0.495 OA
ATOM     31  C   UNL     1       1.673  -2.362  25.018  0.00  0.00    +0.277 C 
ENDBRANCH  27   4
ENDBRANCH  16  18
ENDBRANCH   6  16
ENDBRANCH  13   6
ENDBRANCH   8  13
BRANCH  10  14
ATOM     14  C   UNL     1      -2.148   4.368  25.848  0.00  0.00    +0.090 C 
BRANCH  14  15
ATOM      3  O   UNL     1       0.605   2.045  25.714  0.00  0.00    -0.354 OA
ATOM      7  N   UNL     1      -0.261   2.889  26.401  0.00  0.00    -0.083 NA
ATOM     15  C   UNL     1      -1.065   3.396  25.463  0.00  0.00    +0.087 A 
ATOM     17  C   UNL     1      -0.758   2.913  24.179  0.00  0.00    +0.076 A 
ATOM     19  C   UNL     1       0.298   2.068  24.392  0.00  0.00    +0.168 A 
BRANCH  19  20
ATOM     20  C   UNL     1       1.109   1.239  23.550  0.00  0.00    +0.023 A 
ATOM     25  C   UNL     1       2.491   1.420  23.516  0.00  0.00    +0.057 A 
ATOM     26  C   UNL     1       0.515   0.251  22.764  0.00  0.00    +0.012 A 
ATOM     28  C   UNL     1       3.280   0.614  22.694  0.00  0.00    +0.118 A 
ATOM     29  C   UNL     1       1.304  -0.554  21.943  0.00  0.00    +0.004 A 
ATOM     30  C   UNL     1       2.687  -0.373  21.909  0.00  0.00    +0.045 A 
BRANCH  28   5
ATOM      5  O   UNL     1       4.629   0.792  22.660  0.00  0.00    -0.507 OA
ATOM     34  H   UNL     1       4.839   1.682  22.993  0.00  0.00    +0.292 HD
ENDBRANCH  28   5
ENDBRANCH  19  20
ENDBRANCH  14  15
ENDBRANCH  10  14
TORSDOF 10
ENDMDL
MODEL 5
REMARK VINA RESULT:      -0.8     14.273     17.059
REMARK  Name = 75536380
REMARK  11 active torsions:
REMARK  status: ('A' for Active; 'I' for Inactive)
REMARK    1  A    between atoms: O_2  and  C_9
REMARK    2  A    between atoms: O_4  and  C_27
REMARK    3  A    between atoms: O_4  and  C_31
REMARK    4  A    between atoms: O_5  and  C_28
REMARK    5  A    between atoms: N_6  and  C_13
REMARK    6  A    between atoms: N_6  and  C_16
REMARK    7  A    between atoms: C_8  and  C_13
REMARK    8  A    between atoms: C_10  and  C_14
REMARK    9  A    between atoms: C_14  and  C_15
REMARK   10  A    between atoms: C_16  and  C_18
REMARK   11  A    between atoms: C_19  and  C_20
REMARK                            x       y       z     vdW  Elec       q    Type
REMARK                         _______ _______ _______ _____ _____    ______ ____
ROOT
ATOM      1  O   UNL     1      -2.994   2.135  24.920  0.00  0.00    -0.369 OA
ATOM      8  C   UNL     1      -3.654   3.175  25.654  0.00  0.00    +0.161 C 
ATOM      9  C   UNL     1      -3.094   4.556  25.292  0.00  0.00    +0.145 C 
ATOM     10  C   UNL     1      -3.018   2.285  23.499  0.00  0.00    +0.125 C 
ATOM     11  C   UNL     1      -3.032   4.780  23.784  0.00  0.00    +0.036 C 
ATOM     12  C   UNL     1      -2.362   3.601  23.084  0.00  0.00    +0.034 C 
ENDROOT
BRANCH   9   2
ATOM      2  O   UNL     1      -1.764   4.663  25.805  0.00  0.00    -0.389 OA
ATOM     33  H   UNL     1      -1.348   3.787  25.729  0.00  0.00    +0.210 HD
ENDBRANCH   9   2
BRANCH   8  13
ATOM     13  C   UNL     1      -5.170   3.084  25.494  0.00  0.00    +0.115 C 
BRANCH  13   6
ATOM      6  N   UNL     1      -5.688   1.879  26.123  0.00  0.00    -0.309 NA
ATOM     32  H   UNL     1      -4.995   1.518  26.781  0.00  0.00    +0.122 HD
BRANCH   6  16
ATOM     16  C   UNL     1      -5.973   0.851  25.131  0.00  0.00    +0.116 C 
BRANCH  16  18
ATOM     18  C   UNL     1      -4.857  -0.155  25.030  0.00  0.00    -0.033 A 
ATOM     21  C   UNL     1      -3.920  -0.264  26.057  0.00  0.00    +0.008 A 
ATOM     22  C   UNL     1      -4.761  -0.979  23.908  0.00  0.00    +0.008 A 
ATOM     23  C   UNL     1      -2.887  -1.196  25.963  0.00  0.00    +0.046 A 
ATOM     24  C   UNL     1      -3.728  -1.910  23.813  0.00  0.00    +0.046 A 
ATOM     27  C   UNL     1      -2.790  -2.020  24.841  0.00  0.00    +0.120 A 
BRANCH  27   4
ATOM      4  O   UNL     1      -1.783  -2.929  24.750  0.00  0.00    -0.495 OA
ATOM     31  C   UNL     1      -0.465  -2.468  25.047  0.00  0.00    +0.277 C 
ENDBRANCH  27   4
ENDBRANCH  16  18
ENDBRANCH   6  16
ENDBRANCH  13   6
ENDBRANCH   8  13
BRANCH  10  14
ATOM     14  C   UNL     1      -2.277   1.096  22.899  0.00  0.00    +0.090 C 
BRANCH  14  15
ATOM      3  O   UNL     1       1.030   1.809  24.144  0.00  0.00    -0.354 OA
ATOM      7  N   UNL     1      -0.335   2.062  24.062  0.00  0.00    -0.083 NA
ATOM     15  C   UNL     1      -0.809   1.131  23.229  0.00  0.00    +0.087 A 
ATOM     17  C   UNL     1       0.200   0.272  22.759  0.00  0.00    +0.076 A 
ATOM     19  C   UNL     1       1.335   0.740  23.364  0.00  0.00    +0.168 A 
BRANCH  19  20
ATOM     20  C   UNL     1       2.716   0.356  23.348  0.00  0.00    +0.023 A 
ATOM     25  C   UNL     1       3.083  -0.945  23.691  0.00  0.00    +0.057 A 
ATOM     26  C   UNL     1       3.694   1.285  22.990  0.00  0.00    +0.012 A 
ATOM     28  C   UNL     1       4.427  -1.317  23.678  0.00  0.00    +0.118 A 
ATOM     29  C   UNL     1       5.038   0.912  22.977  0.00  0.00    +0.004 A 
ATOM     30  C   UNL     1       5.404  -0.389  23.320  0.00  0.00    +0.045 A 
BRANCH  28   5
ATOM      5  O   UNL     1       4.785  -2.587  24.014  0.00  0.00    -0.507 OA
ATOM     34  H   UNL     1       5.081  -2.596  24.940  0.00  0.00    +0.292 HD
ENDBRANCH  28   5
ENDBRANCH  19  20
ENDBRANCH  14  15
ENDBRANCH  10  14
TORSDOF 10
ENDMDL
MODEL 6
REMARK VINA RESULT:      -0.6     13.566     16.911
REMARK  Name = 75536380
REMARK  11 active torsions:
REMARK  status: ('A' for Active; 'I' for Inactive)
REMARK    1  A    between atoms: O_2  and  C_9
REMARK    2  A    between atoms: O_4  and  C_27
REMARK    3  A    between atoms: O_4  and  C_31
REMARK    4  A    between atoms: O_5  and  C_28
REMARK    5  A    between atoms: N_6  and  C_13
REMARK    6  A    between atoms: N_6  and  C_16
REMARK    7  A    between atoms: C_8  and  C_13
REMARK    8  A    between atoms: C_10  and  C_14
REMARK    9  A    between atoms: C_14  and  C_15
REMARK   10  A    between atoms: C_16  and  C_18
REMARK   11  A    between atoms: C_19  and  C_20
REMARK                            x       y       z     vdW  Elec       q    Type
REMARK                         _______ _______ _______ _____ _____    ______ ____
ROOT
ATOM      1  O   UNL     1      -1.010   2.946  24.170  0.00  0.00    -0.369 OA
ATOM      8  C   UNL     1      -1.062   3.697  25.391  0.00  0.00    +0.161 C 
ATOM      9  C   UNL     1      -2.426   4.376  25.570  0.00  0.00    +0.145 C 
ATOM     10  C   UNL     1      -2.039   1.965  24.016  0.00  0.00    +0.125 C 
ATOM     11  C   UNL     1      -3.588   3.409  25.366  0.00  0.00    +0.036 C 
ATOM     12  C   UNL     1      -3.419   2.618  24.071  0.00  0.00    +0.034 C 
ENDROOT
BRANCH   9   2
ATOM      2  O   UNL     1      -2.551   5.420  24.602  0.00  0.00    -0.389 OA
ATOM     33  H   UNL     1      -2.039   5.158  23.818  0.00  0.00    +0.210 HD
ENDBRANCH   9   2
BRANCH   8  13
ATOM     13  C   UNL     1      -0.663   2.834  26.585  0.00  0.00    +0.115 C 
BRANCH  13   6
ATOM      6  N   UNL     1      -0.067   1.582  26.146  0.00  0.00    -0.309 NA
ATOM     32  H   UNL     1      -0.306   1.420  25.167  0.00  0.00    +0.122 HD
BRANCH   6  16
ATOM     16  C   UNL     1      -0.556   0.462  26.940  0.00  0.00    +0.116 C 
BRANCH  16  18
ATOM     18  C   UNL     1      -1.343  -0.514  26.107  0.00  0.00    -0.033 A 
ATOM     21  C   UNL     1      -2.738  -0.492  26.139  0.00  0.00    +0.008 A 
ATOM     22  C   UNL     1      -0.678  -1.441  25.304  0.00  0.00    +0.008 A 
ATOM     23  C   UNL     1      -3.467  -1.396  25.368  0.00  0.00    +0.046 A 
ATOM     24  C   UNL     1      -1.408  -2.345  24.534  0.00  0.00    +0.046 A 
ATOM     27  C   UNL     1      -2.803  -2.323  24.564  0.00  0.00    +0.120 A 
BRANCH  27   4
ATOM      4  O   UNL     1      -3.515  -3.205  23.812  0.00  0.00    -0.495 OA
ATOM     31  C   UNL     1      -4.813  -2.793  23.385  0.00  0.00    +0.277 C 
ENDBRANCH  27   4
ENDBRANCH  16  18
ENDBRANCH   6  16
ENDBRANCH  13   6
ENDBRANCH   8  13
BRANCH  10  14
ATOM     14  C   UNL     1      -1.818   1.276  22.675  0.00  0.00    +0.090 C 
BRANCH  14  15
ATOM      3  O   UNL     1       1.173  -0.552  21.833  0.00  0.00    -0.354 OA
ATOM      7  N   UNL     1      -0.175  -0.254  21.666  0.00  0.00    -0.083 NA
ATOM     15  C   UNL     1      -0.432   0.699  22.566  0.00  0.00    +0.087 A 
ATOM     17  C   UNL     1       0.704   1.040  23.321  0.00  0.00    +0.076 A 
ATOM     19  C   UNL     1       1.685   0.226  22.821  0.00  0.00    +0.168 A 
BRANCH  19  20
ATOM     20  C   UNL     1       3.076   0.032  23.108  0.00  0.00    +0.023 A 
ATOM     25  C   UNL     1       3.541  -1.224  23.494  0.00  0.00    +0.057 A 
ATOM     26  C   UNL     1       3.965   1.103  23.002  0.00  0.00    +0.012 A 
ATOM     28  C   UNL     1       4.894  -1.411  23.776  0.00  0.00    +0.118 A 
ATOM     29  C   UNL     1       5.318   0.915  23.284  0.00  0.00    +0.004 A 
ATOM     30  C   UNL     1       5.783  -0.342  23.670  0.00  0.00    +0.045 A 
BRANCH  28   5
ATOM      5  O   UNL     1       5.347  -2.638  24.153  0.00  0.00    -0.507 OA
ATOM     34  H   UNL     1       5.749  -2.568  25.036  0.00  0.00    +0.292 HD
ENDBRANCH  28   5
ENDBRANCH  19  20
ENDBRANCH  14  15
ENDBRANCH  10  14
TORSDOF 10
ENDMDL
MODEL 7
REMARK VINA RESULT:       0.0     14.169     17.363
REMARK  Name = 75536380
REMARK  11 active torsions:
REMARK  status: ('A' for Active; 'I' for Inactive)
REMARK    1  A    between atoms: O_2  and  C_9
REMARK    2  A    between atoms: O_4  and  C_27
REMARK    3  A    between atoms: O_4  and  C_31
REMARK    4  A    between atoms: O_5  and  C_28
REMARK    5  A    between atoms: N_6  and  C_13
REMARK    6  A    between atoms: N_6  and  C_16
REMARK    7  A    between atoms: C_8  and  C_13
REMARK    8  A    between atoms: C_10  and  C_14
REMARK    9  A    between atoms: C_14  and  C_15
REMARK   10  A    between atoms: C_16  and  C_18
REMARK   11  A    between atoms: C_19  and  C_20
REMARK                            x       y       z     vdW  Elec       q    Type
REMARK                         _______ _______ _______ _____ _____    ______ ____
ROOT
ATOM      1  O   UNL     1      -3.515   2.734  25.508  0.00  0.00    -0.369 OA
ATOM      8  C   UNL     1      -4.771   2.267  24.998  0.00  0.00    +0.161 C 
ATOM      9  C   UNL     1      -5.946   3.018  25.637  0.00  0.00    +0.145 C 
ATOM     10  C   UNL     1      -3.291   4.140  25.378  0.00  0.00    +0.125 C 
ATOM     11  C   UNL     1      -5.762   4.532  25.591  0.00  0.00    +0.036 C 
ATOM     12  C   UNL     1      -4.380   4.929  26.102  0.00  0.00    +0.034 C 
ENDROOT
BRANCH   9   2
ATOM      2  O   UNL     1      -6.049   2.632  27.009  0.00  0.00    -0.389 OA
ATOM     33  H   UNL     1      -6.943   2.864  27.314  0.00  0.00    +0.210 HD
ENDBRANCH   9   2
BRANCH   8  13
ATOM     13  C   UNL     1      -4.794   2.308  23.472  0.00  0.00    +0.115 C 
BRANCH  13   6
ATOM      6  N   UNL     1      -3.505   2.726  22.943  0.00  0.00    -0.309 NA
ATOM     32  H   UNL     1      -3.653   3.382  22.176  0.00  0.00    +0.122 HD
BRANCH   6  16
ATOM     16  C   UNL     1      -2.749   1.584  22.445  0.00  0.00    +0.116 C 
BRANCH  16  18
ATOM     18  C   UNL     1      -2.917   0.373  23.324  0.00  0.00    -0.033 A 
ATOM     21  C   UNL     1      -3.893  -0.576  23.024  0.00  0.00    +0.008 A 
ATOM     22  C   UNL     1      -2.096   0.202  24.439  0.00  0.00    +0.008 A 
ATOM     23  C   UNL     1      -4.048  -1.698  23.838  0.00  0.00    +0.046 A 
ATOM     24  C   UNL     1      -2.252  -0.919  25.254  0.00  0.00    +0.046 A 
ATOM     27  C   UNL     1      -3.228  -1.871  24.953  0.00  0.00    +0.120 A 
BRANCH  27   4
ATOM      4  O   UNL     1      -3.380  -2.965  25.746  0.00  0.00    -0.495 OA
ATOM     31  C   UNL     1      -3.715  -4.193  25.101  0.00  0.00    +0.277 C 
ENDBRANCH  27   4
ENDBRANCH  16  18
ENDBRANCH   6  16
ENDBRANCH  13   6
ENDBRANCH   8  13
BRANCH  10  14
ATOM     14  C   UNL     1      -1.918   4.442  25.967  0.00  0.00    +0.090 C 
BRANCH  14  15
ATOM      3  O   UNL     1       0.572   1.842  25.796  0.00  0.00    -0.354 OA
ATOM      7  N   UNL     1      -0.286   2.679  26.500  0.00  0.00    -0.083 NA
ATOM     15  C   UNL     1      -0.899   3.410  25.565  0.00  0.00    +0.087 A 
ATOM     17  C   UNL     1      -0.473   3.081  24.266  0.00  0.00    +0.076 A 
ATOM     19  C   UNL     1       0.451   2.091  24.467  0.00  0.00    +0.168 A 
BRANCH  19  20
ATOM     20  C   UNL     1       1.279   1.297  23.607  0.00  0.00    +0.023 A 
ATOM     25  C   UNL     1       2.662   1.477  23.609  0.00  0.00    +0.057 A 
ATOM     26  C   UNL     1       0.700   0.346  22.767  0.00  0.00    +0.012 A 
ATOM     28  C   UNL     1       3.466   0.706  22.770  0.00  0.00    +0.118 A 
ATOM     29  C   UNL     1       1.505  -0.425  21.928  0.00  0.00    +0.004 A 
ATOM     30  C   UNL     1       2.889  -0.246  21.930  0.00  0.00    +0.045 A 
BRANCH  28   5
ATOM      5  O   UNL     1       4.817   0.882  22.772  0.00  0.00    -0.507 OA
ATOM     34  H   UNL     1       5.056   1.476  23.504  0.00  0.00    +0.292 HD
ENDBRANCH  28   5
ENDBRANCH  19  20
ENDBRANCH  14  15
ENDBRANCH  10  14
TORSDOF 10
ENDMDL
MODEL 8
REMARK VINA RESULT:       0.4     15.045     18.001
REMARK  Name = 75536380
REMARK  11 active torsions:
REMARK  status: ('A' for Active; 'I' for Inactive)
REMARK    1  A    between atoms: O_2  and  C_9
REMARK    2  A    between atoms: O_4  and  C_27
REMARK    3  A    between atoms: O_4  and  C_31
REMARK    4  A    between atoms: O_5  and  C_28
REMARK    5  A    between atoms: N_6  and  C_13
REMARK    6  A    between atoms: N_6  and  C_16
REMARK    7  A    between atoms: C_8  and  C_13
REMARK    8  A    between atoms: C_10  and  C_14
REMARK    9  A    between atoms: C_14  and  C_15
REMARK   10  A    between atoms: C_16  and  C_18
REMARK   11  A    between atoms: C_19  and  C_20
REMARK                            x       y       z     vdW  Elec       q    Type
REMARK                         _______ _______ _______ _____ _____    ______ ____
ROOT
ATOM      1  O   UNL     1      -4.515   2.097  23.713  0.00  0.00    -0.369 OA
ATOM      8  C   UNL     1      -5.278   2.875  24.645  0.00  0.00    +0.161 C 
ATOM      9  C   UNL     1      -6.192   1.985  25.497  0.00  0.00    +0.145 C 
ATOM     10  C   UNL     1      -3.732   1.051  24.293  0.00  0.00    +0.125 C 
ATOM     11  C   UNL     1      -5.445   0.805  26.112  0.00  0.00    +0.036 C 
ATOM     12  C   UNL     1      -4.621   0.072  25.057  0.00  0.00    +0.034 C 
ENDROOT
BRANCH   9   2
ATOM      2  O   UNL     1      -7.230   1.461  24.665  0.00  0.00    -0.389 OA
ATOM     33  H   UNL     1      -7.082   0.503  24.579  0.00  0.00    +0.210 HD
ENDBRANCH   9   2
BRANCH   8  13
ATOM     13  C   UNL     1      -4.373   3.776  25.481  0.00  0.00    +0.115 C 
BRANCH  13   6
ATOM      6  N   UNL     1      -3.927   4.926  24.709  0.00  0.00    -0.309 NA
ATOM     32  H   UNL     1      -4.652   5.181  24.036  0.00  0.00    +0.122 HD
BRANCH   6  16
ATOM     16  C   UNL     1      -2.699   4.626  23.986  0.00  0.00    +0.116 C 
BRANCH  16  18
ATOM     18  C   UNL     1      -1.679   3.954  24.866  0.00  0.00    -0.033 A 
ATOM     21  C   UNL     1      -0.420   3.634  24.357  0.00  0.00    +0.008 A 
ATOM     22  C   UNL     1      -1.993   3.652  26.192  0.00  0.00    +0.008 A 
ATOM     23  C   UNL     1       0.524   3.013  25.173  0.00  0.00    +0.046 A 
ATOM     24  C   UNL     1      -1.049   3.030  27.007  0.00  0.00    +0.046 A 
ATOM     27  C   UNL     1       0.211   2.710  26.499  0.00  0.00    +0.120 A 
BRANCH  27   4
ATOM      4  O   UNL     1       1.132   2.104  27.294  0.00  0.00    -0.495 OA
ATOM     31  C   UNL     1       1.309   2.638  28.606  0.00  0.00    +0.277 C 
ENDBRANCH  27   4
ENDBRANCH  16  18
ENDBRANCH   6  16
ENDBRANCH  13   6
ENDBRANCH   8  13
BRANCH  10  14
ATOM     14  C   UNL     1      -2.997   0.346  23.159  0.00  0.00    +0.090 C 
BRANCH  14  15
ATOM      3  O   UNL     1       0.167  -0.572  24.620  0.00  0.00    -0.354 OA
ATOM      7  N   UNL     1      -1.222  -0.525  24.624  0.00  0.00    -0.083 NA
ATOM     15  C   UNL     1      -1.549   0.110  23.495  0.00  0.00    +0.087 A 
ATOM     17  C   UNL     1      -0.420   0.482  22.746  0.00  0.00    +0.076 A 
ATOM     19  C   UNL     1       0.633   0.030  23.496  0.00  0.00    +0.168 A 
BRANCH  19  20
ATOM     20  C   UNL     1       2.059   0.058  23.350  0.00  0.00    +0.023 A 
ATOM     25  C   UNL     1       2.823  -1.037  23.750  0.00  0.00    +0.057 A 
ATOM     26  C   UNL     1       2.681   1.183  22.808  0.00  0.00    +0.012 A 
ATOM     28  C   UNL     1       4.211  -1.008  23.610  0.00  0.00    +0.118 A 
ATOM     29  C   UNL     1       4.069   1.212  22.668  0.00  0.00    +0.004 A 
ATOM     30  C   UNL     1       4.834   0.116  23.068  0.00  0.00    +0.045 A 
BRANCH  28   5
ATOM      5  O   UNL     1       4.957  -2.077  24.001  0.00  0.00    -0.507 OA
ATOM     34  H   UNL     1       4.717  -2.846  23.456  0.00  0.00    +0.292 HD
ENDBRANCH  28   5
ENDBRANCH  19  20
ENDBRANCH  14  15
ENDBRANCH  10  14
TORSDOF 10
ENDMDL
MODEL 9
REMARK VINA RESULT:       0.8     15.155     18.792
REMARK  Name = 75536380
REMARK  11 active torsions:
REMARK  status: ('A' for Active; 'I' for Inactive)
REMARK    1  A    between atoms: O_2  and  C_9
REMARK    2  A    between atoms: O_4  and  C_27
REMARK    3  A    between atoms: O_4  and  C_31
REMARK    4  A    between atoms: O_5  and  C_28
REMARK    5  A    between atoms: N_6  and  C_13
REMARK    6  A    between atoms: N_6  and  C_16
REMARK    7  A    between atoms: C_8  and  C_13
REMARK    8  A    between atoms: C_10  and  C_14
REMARK    9  A    between atoms: C_14  and  C_15
REMARK   10  A    between atoms: C_16  and  C_18
REMARK   11  A    between atoms: C_19  and  C_20
REMARK                            x       y       z     vdW  Elec       q    Type
REMARK                         _______ _______ _______ _____ _____    ______ ____
ROOT
ATOM      1  O   UNL     1      -3.785   1.952  25.396  0.00  0.00    -0.369 OA
ATOM      8  C   UNL     1      -4.648   0.825  25.600  0.00  0.00    +0.161 C 
ATOM      9  C   UNL     1      -6.108   1.266  25.775  0.00  0.00    +0.145 C 
ATOM     10  C   UNL     1      -4.144   2.803  24.306  0.00  0.00    +0.125 C 
ATOM     11  C   UNL     1      -6.560   2.226  24.679  0.00  0.00    +0.036 C 
ATOM     12  C   UNL     1      -5.554   3.360  24.498  0.00  0.00    +0.034 C 
ENDROOT
BRANCH   9   2
ATOM      2  O   UNL     1      -6.238   1.940  27.028  0.00  0.00    -0.389 OA
ATOM     33  H   UNL     1      -6.340   1.262  27.718  0.00  0.00    +0.210 HD
ENDBRANCH   9   2
BRANCH   8  13
ATOM     13  C   UNL     1      -4.466  -0.214  24.498  0.00  0.00    +0.115 C 
BRANCH  13   6
ATOM      6  N   UNL     1      -3.788  -1.397  25.006  0.00  0.00    -0.309 NA
ATOM     32  H   UNL     1      -4.431  -1.925  25.598  0.00  0.00    +0.122 HD
BRANCH   6  16
ATOM     16  C   UNL     1      -2.618  -1.033  25.793  0.00  0.00    +0.116 C 
BRANCH  16  18
ATOM     18  C   UNL     1      -1.408  -0.805  24.926  0.00  0.00    -0.033 A 
ATOM     21  C   UNL     1      -0.300  -1.645  25.040  0.00  0.00    +0.008 A 
ATOM     22  C   UNL     1      -1.395   0.245  24.008  0.00  0.00    +0.008 A 
ATOM     23  C   UNL     1       0.820  -1.435  24.236  0.00  0.00    +0.046 A 
ATOM     24  C   UNL     1      -0.274   0.456  23.206  0.00  0.00    +0.046 A 
ATOM     27  C   UNL     1       0.834  -0.384  23.318  0.00  0.00    +0.120 A 
BRANCH  27   4
ATOM      4  O   UNL     1       1.927  -0.180  22.535  0.00  0.00    -0.495 OA
ATOM     31  C   UNL     1       2.851   0.821  22.960  0.00  0.00    +0.277 C 
ENDBRANCH  27   4
ENDBRANCH  16  18
ENDBRANCH   6  16
ENDBRANCH  13   6
ENDBRANCH   8  13
BRANCH  10  14
ATOM     14  C   UNL     1      -3.119   3.930  24.246  0.00  0.00    +0.090 C 
BRANCH  14  15
ATOM      3  O   UNL     1       0.208   3.071  25.335  0.00  0.00    -0.354 OA
ATOM      7  N   UNL     1      -0.728   3.355  24.347  0.00  0.00    -0.083 NA
ATOM     15  C   UNL     1      -1.867   3.584  25.007  0.00  0.00    +0.087 A 
ATOM     17  C   UNL     1      -1.711   3.461  26.399  0.00  0.00    +0.076 A 
ATOM     19  C   UNL     1      -0.390   3.138  26.552  0.00  0.00    +0.168 A 
BRANCH  19  20
ATOM     20  C   UNL     1       0.457   2.869  27.677  0.00  0.00    +0.023 A 
ATOM     25  C   UNL     1       1.841   2.815  27.512  0.00  0.00    +0.057 A 
ATOM     26  C   UNL     1      -0.104   2.660  28.937  0.00  0.00    +0.012 A 
ATOM     28  C   UNL     1       2.663   2.551  28.607  0.00  0.00    +0.118 A 
ATOM     29  C   UNL     1       0.719   2.395  30.032  0.00  0.00    +0.004 A 
ATOM     30  C   UNL     1       2.103   2.342  29.867  0.00  0.00    +0.045 A 
BRANCH  28   5
ATOM      5  O   UNL     1       4.014   2.497  28.446  0.00  0.00    -0.507 OA
ATOM     34  H   UNL     1       4.433   2.415  29.320  0.00  0.00    +0.292 HD
ENDBRANCH  28   5
ENDBRANCH  19  20
ENDBRANCH  14  15
ENDBRANCH  10  14
TORSDOF 10
ENDMDL
MODEL 10
REMARK VINA RESULT:       1.0     13.728     16.349
REMARK  Name = 75536380
REMARK  11 active torsions:
REMARK  status: ('A' for Active; 'I' for Inactive)
REMARK    1  A    between atoms: O_2  and  C_9
REMARK    2  A    between atoms: O_4  and  C_27
REMARK    3  A    between atoms: O_4  and  C_31
REMARK    4  A    between atoms: O_5  and  C_28
REMARK    5  A    between atoms: N_6  and  C_13
REMARK    6  A    between atoms: N_6  and  C_16
REMARK    7  A    between atoms: C_8  and  C_13
REMARK    8  A    between atoms: C_10  and  C_14
REMARK    9  A    between atoms: C_14  and  C_15
REMARK   10  A    between atoms: C_16  and  C_18
REMARK   11  A    between atoms: C_19  and  C_20
REMARK                            x       y       z     vdW  Elec       q    Type
REMARK                         _______ _______ _______ _____ _____    ______ ____
ROOT
ATOM      1  O   UNL     1       0.222   1.124  23.089  0.00  0.00    -0.369 OA
ATOM      8  C   UNL     1       0.355  -0.298  22.963  0.00  0.00    +0.161 C 
ATOM      9  C   UNL     1       1.665  -0.676  22.260  0.00  0.00    +0.145 C 
ATOM     10  C   UNL     1       1.307   1.779  23.750  0.00  0.00    +0.125 C 
ATOM     11  C   UNL     1       2.875   0.027  22.869  0.00  0.00    +0.036 C 
ATOM     12  C   UNL     1       2.620   1.525  23.013  0.00  0.00    +0.034 C 
ENDROOT
BRANCH   9   2
ATOM      2  O   UNL     1       1.579  -0.288  20.887  0.00  0.00    -0.389 OA
ATOM     33  H   UNL     1       2.486  -0.161  20.559  0.00  0.00    +0.210 HD
ENDBRANCH   9   2
BRANCH   8  13
ATOM     13  C   UNL     1       0.182  -0.989  24.314  0.00  0.00    +0.115 C 
BRANCH  13   6
ATOM      6  N   UNL     1      -0.139  -0.024  25.354  0.00  0.00    -0.309 NA
ATOM     32  H   UNL     1       0.688   0.137  25.930  0.00  0.00    +0.122 HD
BRANCH   6  16
ATOM     16  C   UNL     1      -1.217  -0.510  26.205  0.00  0.00    +0.116 C 
BRANCH  16  18
ATOM     18  C   UNL     1      -2.309  -1.169  25.405  0.00  0.00    -0.033 A 
ATOM     21  C   UNL     1      -3.049  -0.423  24.488  0.00  0.00    +0.008 A 
ATOM     22  C   UNL     1      -2.580  -2.526  25.580  0.00  0.00    +0.008 A 
ATOM     23  C   UNL     1      -4.060  -1.034  23.746  0.00  0.00    +0.046 A 
ATOM     24  C   UNL     1      -3.592  -3.136  24.840  0.00  0.00    +0.046 A 
ATOM     27  C   UNL     1      -4.332  -2.391  23.922  0.00  0.00    +0.120 A 
BRANCH  27   4
ATOM      4  O   UNL     1      -5.318  -2.986  23.198  0.00  0.00    -0.495 OA
ATOM     31  C   UNL     1      -4.929  -4.029  22.306  0.00  0.00    +0.277 C 
ENDBRANCH  27   4
ENDBRANCH  16  18
ENDBRANCH   6  16
ENDBRANCH  13   6
ENDBRANCH   8  13
BRANCH  10  14
ATOM     14  C   UNL     1       0.986   3.269  23.790  0.00  0.00    +0.090 C 
BRANCH  14  15
ATOM      3  O   UNL     1      -1.960   4.557  25.420  0.00  0.00    -0.354 OA
ATOM      7  N   UNL     1      -0.617   4.631  25.068  0.00  0.00    -0.083 NA
ATOM     15  C   UNL     1      -0.387   3.529  24.348  0.00  0.00    +0.087 A 
ATOM     17  C   UNL     1      -1.537   2.731  24.214  0.00  0.00    +0.076 A 
ATOM     19  C   UNL     1      -2.496   3.421  24.905  0.00  0.00    +0.168 A 
BRANCH  19  20
ATOM     20  C   UNL     1      -3.886   3.206  25.184  0.00  0.00    +0.023 A 
ATOM     25  C   UNL     1      -4.734   4.295  25.382  0.00  0.00    +0.057 A 
ATOM     26  C   UNL     1      -4.388   1.907  25.260  0.00  0.00    +0.012 A 
ATOM     28  C   UNL     1      -6.086   4.085  25.657  0.00  0.00    +0.118 A 
ATOM     29  C   UNL     1      -5.740   1.697  25.535  0.00  0.00    +0.004 A 
ATOM     30  C   UNL     1      -6.589   2.787  25.732  0.00  0.00    +0.045 A 
BRANCH  28   5
ATOM      5  O   UNL     1      -6.914   5.148  25.850  0.00  0.00    -0.507 OA
ATOM     34  H   UNL     1      -7.705   4.848  26.330  0.00  0.00    +0.292 HD
ENDBRANCH  28   5
ENDBRANCH  19  20
ENDBRANCH  14  15
ENDBRANCH  10  14
TORSDOF 10
ENDMDL
