MODEL 1
REMARK VINA RESULT:       0.9      0.000      0.000
REMARK  Name = 75536971
REMARK  2 active torsions:
REMARK  status: ('A' for Active; 'I' for Inactive)
REMARK    1  A    between atoms: N_5  and  C_13
REMARK    2  A    between atoms: C_14  and  C_17
REMARK                            x       y       z     vdW  Elec       q    Type
REMARK                         _______ _______ _______ _____ _____    ______ ____
ROOT
ATOM      1  O   UNL     1       0.646  -2.373  24.405  0.00  0.00    -0.252 OA
ATOM      2  O   UNL     1      -5.728   0.286  25.251  0.00  0.00    -0.270 OA
ATOM      3  N   UNL     1      -1.037  -0.769  24.580  0.00  0.00    -0.278 N 
ATOM      4  N   UNL     1      -3.579   0.331  24.333  0.00  0.00    -0.294 N 
ATOM      5  N   UNL     1       1.011  -0.059  23.918  0.00  0.00    -0.254 N 
ATOM      7  C   UNL     1      -1.157   0.672  24.516  0.00  0.00    +0.113 C 
ATOM      8  C   UNL     1      -2.430   1.070  23.775  0.00  0.00    +0.132 C 
ATOM      9  C   UNL     1       0.137   1.108  23.843  0.00  0.00    +0.139 C 
ATOM     10  C   UNL     1      -2.166  -1.568  25.026  0.00  0.00    +0.128 C 
ATOM     11  C   UNL     1      -3.439  -1.131  24.302  0.00  0.00    +0.127 C 
ATOM     12  C   UNL     1       0.270  -1.212  24.314  0.00  0.00    +0.309 C 
ATOM     14  C   UNL     1      -4.753   0.903  24.823  0.00  0.00    +0.248 C 
ENDROOT
BRANCH  14  17
ATOM      6  N   UNL     1      -5.884   4.355  25.759  0.00  0.00    -0.263 NA
ATOM     17  C   UNL     1      -4.849   2.369  24.849  0.00  0.00    +0.055 A 
ATOM     20  C   UNL     1      -4.042   3.153  24.034  0.00  0.00    +0.016 A 
ATOM     21  C   UNL     1      -5.746   3.012  25.687  0.00  0.00    +0.123 A 
ATOM     23  C   UNL     1      -4.154   4.539  24.081  0.00  0.00    +0.020 A 
ATOM     24  C   UNL     1      -5.082   5.086  24.952  0.00  0.00    +0.111 A 
ENDBRANCH  14  17
BRANCH   5  13
ATOM     13  C   UNL     1       2.387  -0.005  23.551  0.00  0.00    +0.038 A 
ATOM     15  C   UNL     1       3.232  -1.072  23.859  0.00  0.00    +0.023 A 
ATOM     16  C   UNL     1       2.889   1.112  22.886  0.00  0.00    +0.023 A 
ATOM     18  C   UNL     1       4.579  -1.021  23.501  0.00  0.00    +0.002 A 
ATOM     19  C   UNL     1       4.236   1.164  22.528  0.00  0.00    +0.002 A 
ATOM     22  C   UNL     1       5.081   0.098  22.835  0.00  0.00    +0.000 A 
ENDBRANCH   5  13
TORSDOF 2
ENDMDL
MODEL 2
REMARK VINA RESULT:       4.5      2.058      2.324
REMARK  Name = 75536971
REMARK  2 active torsions:
REMARK  status: ('A' for Active; 'I' for Inactive)
REMARK    1  A    between atoms: N_5  and  C_13
REMARK    2  A    between atoms: C_14  and  C_17
REMARK                            x       y       z     vdW  Elec       q    Type
REMARK                         _______ _______ _______ _____ _____    ______ ____
ROOT
ATOM      1  O   UNL     1       1.194  -0.688  21.160  0.00  0.00    -0.252 OA
ATOM      2  O   UNL     1      -4.664   2.641  22.897  0.00  0.00    -0.270 OA
ATOM      3  N   UNL     1      -0.303   0.557  22.443  0.00  0.00    -0.278 N 
ATOM      4  N   UNL     1      -2.344   2.366  22.981  0.00  0.00    -0.294 N 
ATOM      5  N   UNL     1       1.819   0.367  23.214  0.00  0.00    -0.254 N 
ATOM      7  C   UNL     1      -0.334   1.187  23.745  0.00  0.00    +0.113 C 
ATOM      8  C   UNL     1      -1.050   2.532  23.671  0.00  0.00    +0.132 C 
ATOM      9  C   UNL     1       1.135   1.266  24.138  0.00  0.00    +0.139 C 
ATOM     10  C   UNL     1      -1.526   0.450  21.663  0.00  0.00    +0.128 C 
ATOM     11  C   UNL     1      -2.249   1.795  21.632  0.00  0.00    +0.127 C 
ATOM     12  C   UNL     1       0.947  -0.015  22.152  0.00  0.00    +0.309 C 
ATOM     14  C   UNL     1      -3.590   2.742  23.488  0.00  0.00    +0.248 C 
ENDROOT
BRANCH  14  17
ATOM      6  N   UNL     1      -4.883   3.624  26.896  0.00  0.00    -0.263 NA
ATOM     17  C   UNL     1      -3.644   3.298  24.846  0.00  0.00    +0.055 A 
ATOM     20  C   UNL     1      -2.567   3.999  25.376  0.00  0.00    +0.016 A 
ATOM     21  C   UNL     1      -4.769   3.139  25.640  0.00  0.00    +0.123 A 
ATOM     23  C   UNL     1      -2.647   4.514  26.666  0.00  0.00    +0.020 A 
ATOM     24  C   UNL     1      -3.816   4.301  27.378  0.00  0.00    +0.111 A 
ENDBRANCH  14  17
BRANCH   5  13
ATOM     13  C   UNL     1       3.194   0.022  23.364  0.00  0.00    +0.038 A 
ATOM     15  C   UNL     1       3.551  -1.267  23.760  0.00  0.00    +0.023 A 
ATOM     16  C   UNL     1       4.182   0.973  23.114  0.00  0.00    +0.023 A 
ATOM     18  C   UNL     1       4.896  -1.605  23.906  0.00  0.00    +0.002 A 
ATOM     19  C   UNL     1       5.528   0.636  23.260  0.00  0.00    +0.002 A 
ATOM     22  C   UNL     1       5.885  -0.653  23.656  0.00  0.00    +0.000 A 
ENDBRANCH   5  13
TORSDOF 2
ENDMDL
