MODEL 1
REMARK VINA RESULT:      -3.6      0.000      0.000
REMARK  Name = 26744329
REMARK  6 active torsions:
REMARK  status: ('A' for Active; 'I' for Inactive)
REMARK    1  A    between atoms: O_1  and  C_12
REMARK    2  A    between atoms: N_5  and  C_14
REMARK    3  A    between atoms: N_9  and  C_25
REMARK    4  A    between atoms: C_10  and  C_15
REMARK    5  A    between atoms: C_14  and  C_16
REMARK    6  A    between atoms: C_17  and  C_20
REMARK                            x       y       z     vdW  Elec       q    Type
REMARK                         _______ _______ _______ _____ _____    ______ ____
ROOT
ATOM      5  N   UNL     1      -4.709   1.566  25.346  0.00  0.00    -0.285 NA
ATOM     10  C   UNL     1      -4.011   2.313  24.281  0.00  0.00    +0.149 C 
ATOM     11  C   UNL     1      -4.275   3.796  24.603  0.00  0.00    +0.061 C 
ATOM     12  C   UNL     1      -5.166   3.779  25.839  0.00  0.00    +0.130 C 
ATOM     13  C   UNL     1      -5.818   2.410  25.786  0.00  0.00    +0.116 C 
ENDROOT
BRANCH  10  15
ATOM      2  O   UNL     1      -1.760   2.445  25.225  0.00  0.00    -0.336 OA
ATOM      6  N   UNL     1      -1.879   1.306  23.301  0.00  0.00    -0.190 NA
ATOM      7  N   UNL     1      -0.457   2.020  24.943  0.00  0.00    -0.056 NA
ATOM     15  C   UNL     1      -2.535   1.982  24.209  0.00  0.00    +0.245 A 
ATOM     17  C   UNL     1      -0.608   1.356  23.793  0.00  0.00    +0.202 A 
BRANCH  17  20
ATOM     20  C   UNL     1       0.490   0.731  23.113  0.00  0.00    +0.025 A 
ATOM     23  C   UNL     1       1.800   1.006  23.504  0.00  0.00    +0.044 A 
ATOM     24  C   UNL     1       0.245  -0.152  22.061  0.00  0.00    +0.012 A 
ATOM     25  C   UNL     1       2.867   0.395  22.844  0.00  0.00    +0.127 A 
ATOM     26  C   UNL     1       1.312  -0.761  21.400  0.00  0.00    +0.003 A 
ATOM     27  C   UNL     1       2.623  -0.487  21.791  0.00  0.00    +0.033 A 
BRANCH  25   9
ATOM      3  O   UNL     1       4.613   1.858  23.201  0.00  0.00    -0.126 OA
ATOM      4  O   UNL     1       4.933  -0.273  23.621  0.00  0.00    -0.126 OA
ATOM      9  N   UNL     1       4.201   0.673  23.241  0.00  0.00    +0.056 N 
ENDBRANCH  25   9
ENDBRANCH  17  20
ENDBRANCH  10  15
BRANCH  12   1
ATOM      1  O   UNL     1      -6.123   4.820  25.781  0.00  0.00    -0.390 OA
ATOM     28  H   UNL     1      -5.861   5.494  26.431  0.00  0.00    +0.210 HD
ENDBRANCH  12   1
BRANCH   5  14
ATOM     14  C   UNL     1      -5.161   0.247  24.921  0.00  0.00    +0.120 C 
BRANCH  14  16
ATOM      8  N   UNL     1      -1.942  -2.606  24.875  0.00  0.00    -0.263 NA
ATOM     16  C   UNL     1      -4.034  -0.752  24.905  0.00  0.00    -0.030 A 
ATOM     18  C   UNL     1      -3.983  -1.730  23.919  0.00  0.00    +0.024 A 
ATOM     19  C   UNL     1      -3.040  -0.699  25.877  0.00  0.00    +0.024 A 
ATOM     21  C   UNL     1      -2.926  -2.627  23.948  0.00  0.00    +0.111 A 
ATOM     22  C   UNL     1      -2.026  -1.641  25.817  0.00  0.00    +0.111 A 
ENDBRANCH  14  16
ENDBRANCH   5  14
TORSDOF 6
ENDMDL
MODEL 2
REMARK VINA RESULT:      -2.5     17.410     19.297
REMARK  Name = 26744329
REMARK  6 active torsions:
REMARK  status: ('A' for Active; 'I' for Inactive)
REMARK    1  A    between atoms: O_1  and  C_12
REMARK    2  A    between atoms: N_5  and  C_14
REMARK    3  A    between atoms: N_9  and  C_25
REMARK    4  A    between atoms: C_10  and  C_15
REMARK    5  A    between atoms: C_14  and  C_16
REMARK    6  A    between atoms: C_17  and  C_20
REMARK                            x       y       z     vdW  Elec       q    Type
REMARK                         _______ _______ _______ _____ _____    ______ ____
ROOT
ATOM      5  N   UNL     1      12.432  -9.442  31.162  0.00  0.00    -0.285 NA
ATOM     10  C   UNL     1      11.967  -8.056  30.956  0.00  0.00    +0.149 C 
ATOM     11  C   UNL     1      10.653  -7.959  31.754  0.00  0.00    +0.061 C 
ATOM     12  C   UNL     1      10.441  -9.351  32.336  0.00  0.00    +0.130 C 
ATOM     13  C   UNL     1      11.237 -10.248  31.407  0.00  0.00    +0.116 C 
ENDROOT
BRANCH  10  15
ATOM      2  O   UNL     1      13.151  -6.855  32.724  0.00  0.00    -0.336 OA
ATOM      6  N   UNL     1      13.762  -6.267  30.652  0.00  0.00    -0.190 NA
ATOM      7  N   UNL     1      14.136  -5.871  32.873  0.00  0.00    -0.056 NA
ATOM     15  C   UNL     1      12.992  -7.028  31.386  0.00  0.00    +0.245 A 
ATOM     17  C   UNL     1      14.446  -5.573  31.608  0.00  0.00    +0.202 A 
BRANCH  17  20
ATOM     20  C   UNL     1      15.434  -4.592  31.266  0.00  0.00    +0.025 A 
ATOM     23  C   UNL     1      15.841  -4.445  29.940  0.00  0.00    +0.044 A 
ATOM     24  C   UNL     1      15.988  -3.785  32.261  0.00  0.00    +0.012 A 
ATOM     25  C   UNL     1      16.802  -3.488  29.608  0.00  0.00    +0.127 A 
ATOM     26  C   UNL     1      16.949  -2.830  31.928  0.00  0.00    +0.003 A 
ATOM     27  C   UNL     1      17.356  -2.681  30.602  0.00  0.00    +0.033 A 
BRANCH  25   9
ATOM      3  O   UNL     1      17.405  -2.181  27.807  0.00  0.00    -0.126 OA
ATOM      4  O   UNL     1      17.385  -4.362  27.555  0.00  0.00    -0.126 OA
ATOM      9  N   UNL     1      17.217  -3.337  28.259  0.00  0.00    +0.056 N 
ENDBRANCH  25   9
ENDBRANCH  17  20
ENDBRANCH  10  15
BRANCH  12   1
ATOM      1  O   UNL     1       9.066  -9.687  32.341  0.00  0.00    -0.390 OA
ATOM     28  H   UNL     1       8.643  -9.200  31.613  0.00  0.00    +0.210 HD
ENDBRANCH  12   1
BRANCH   5  14
ATOM     14  C   UNL     1      13.219  -9.956  30.049  0.00  0.00    +0.120 C 
BRANCH  14  16
ATOM      8  N   UNL     1      17.300  -8.607  30.221  0.00  0.00    -0.263 NA
ATOM     16  C   UNL     1      14.647  -9.484  30.109  0.00  0.00    -0.030 A 
ATOM     18  C   UNL     1      15.288  -9.049  28.954  0.00  0.00    +0.024 A 
ATOM     19  C   UNL     1      15.332  -9.480  31.320  0.00  0.00    +0.024 A 
ATOM     21  C   UNL     1      16.603  -8.625  29.062  0.00  0.00    +0.111 A 
ATOM     22  C   UNL     1      16.644  -9.036  31.321  0.00  0.00    +0.111 A 
ENDBRANCH  14  16
ENDBRANCH   5  14
TORSDOF 6
ENDMDL
MODEL 3
REMARK VINA RESULT:      -2.5     16.269     18.542
REMARK  Name = 26744329
REMARK  6 active torsions:
REMARK  status: ('A' for Active; 'I' for Inactive)
REMARK    1  A    between atoms: O_1  and  C_12
REMARK    2  A    between atoms: N_5  and  C_14
REMARK    3  A    between atoms: N_9  and  C_25
REMARK    4  A    between atoms: C_10  and  C_15
REMARK    5  A    between atoms: C_14  and  C_16
REMARK    6  A    between atoms: C_17  and  C_20
REMARK                            x       y       z     vdW  Elec       q    Type
REMARK                         _______ _______ _______ _____ _____    ______ ____
ROOT
ATOM      5  N   UNL     1      10.519  -9.538  32.327  0.00  0.00    -0.285 NA
ATOM     10  C   UNL     1      10.497  -8.388  31.401  0.00  0.00    +0.149 C 
ATOM     11  C   UNL     1       9.142  -7.703  31.655  0.00  0.00    +0.061 C 
ATOM     12  C   UNL     1       8.455  -8.565  32.707  0.00  0.00    +0.130 C 
ATOM     13  C   UNL     1       9.124  -9.917  32.549  0.00  0.00    +0.116 C 
ENDROOT
BRANCH  10  15
ATOM      2  O   UNL     1      11.895  -7.027  32.873  0.00  0.00    -0.336 OA
ATOM      6  N   UNL     1      12.524  -6.990  30.725  0.00  0.00    -0.190 NA
ATOM      7  N   UNL     1      13.016  -6.191  32.811  0.00  0.00    -0.056 NA
ATOM     15  C   UNL     1      11.673  -7.456  31.603  0.00  0.00    +0.245 A 
ATOM     17  C   UNL     1      13.329  -6.219  31.512  0.00  0.00    +0.202 A 
BRANCH  17  20
ATOM     20  C   UNL     1      14.439  -5.490  30.970  0.00  0.00    +0.025 A 
ATOM     23  C   UNL     1      15.173  -6.023  29.910  0.00  0.00    +0.044 A 
ATOM     24  C   UNL     1      14.783  -4.248  31.504  0.00  0.00    +0.012 A 
ATOM     25  C   UNL     1      16.251  -5.312  29.383  0.00  0.00    +0.127 A 
ATOM     26  C   UNL     1      15.863  -3.538  30.976  0.00  0.00    +0.003 A 
ATOM     27  C   UNL     1      16.597  -4.070  29.916  0.00  0.00    +0.033 A 
BRANCH  25   9
ATOM      3  O   UNL     1      17.235  -5.131  27.305  0.00  0.00    -0.126 OA
ATOM      4  O   UNL     1      17.405  -7.038  28.379  0.00  0.00    -0.126 OA
ATOM      9  N   UNL     1      17.000  -5.853  28.304  0.00  0.00    +0.056 N 
ENDBRANCH  25   9
ENDBRANCH  17  20
ENDBRANCH  10  15
BRANCH  12   1
ATOM      1  O   UNL     1       7.062  -8.636  32.464  0.00  0.00    -0.390 OA
ATOM     28  H   UNL     1       6.628  -8.010  33.068  0.00  0.00    +0.210 HD
ENDBRANCH  12   1
BRANCH   5  14
ATOM     14  C   UNL     1      11.318 -10.654  31.840  0.00  0.00    +0.120 C 
BRANCH  14  16
ATOM      8  N   UNL     1      15.471  -9.600  31.466  0.00  0.00    -0.263 NA
ATOM     16  C   UNL     1      12.772 -10.285  31.708  0.00  0.00    -0.030 A 
ATOM     18  C   UNL     1      13.504  -9.922  32.834  0.00  0.00    +0.024 A 
ATOM     19  C   UNL     1      13.389 -10.306  30.462  0.00  0.00    +0.024 A 
ATOM     21  C   UNL     1      14.839  -9.591  32.661  0.00  0.00    +0.111 A 
ATOM     22  C   UNL     1      14.728  -9.959  30.396  0.00  0.00    +0.111 A 
ENDBRANCH  14  16
ENDBRANCH   5  14
TORSDOF 6
ENDMDL
MODEL 4
REMARK VINA RESULT:      -1.9      1.831      6.775
REMARK  Name = 26744329
REMARK  6 active torsions:
REMARK  status: ('A' for Active; 'I' for Inactive)
REMARK    1  A    between atoms: O_1  and  C_12
REMARK    2  A    between atoms: N_5  and  C_14
REMARK    3  A    between atoms: N_9  and  C_25
REMARK    4  A    between atoms: C_10  and  C_15
REMARK    5  A    between atoms: C_14  and  C_16
REMARK    6  A    between atoms: C_17  and  C_20
REMARK                            x       y       z     vdW  Elec       q    Type
REMARK                         _______ _______ _______ _____ _____    ______ ____
ROOT
ATOM      5  N   UNL     1       0.485  -0.528  23.675  0.00  0.00    -0.285 NA
ATOM     10  C   UNL     1       1.100   0.674  24.274  0.00  0.00    +0.149 C 
ATOM     11  C   UNL     1       1.989   1.257  23.160  0.00  0.00    +0.061 C 
ATOM     12  C   UNL     1       1.842   0.291  21.991  0.00  0.00    +0.130 C 
ATOM     13  C   UNL     1       1.416  -1.005  22.655  0.00  0.00    +0.116 C 
ENDROOT
BRANCH  10  15
ATOM      2  O   UNL     1       0.528   2.642  25.605  0.00  0.00    -0.336 OA
ATOM      6  N   UNL     1      -1.214   1.718  24.545  0.00  0.00    -0.190 NA
ATOM      7  N   UNL     1      -0.587   3.420  25.938  0.00  0.00    -0.056 NA
ATOM     15  C   UNL     1       0.072   1.662  24.782  0.00  0.00    +0.245 A 
ATOM     17  C   UNL     1      -1.576   2.812  25.276  0.00  0.00    +0.202 A 
BRANCH  17  20
ATOM     20  C   UNL     1      -2.933   3.274  25.322  0.00  0.00    +0.025 A 
ATOM     23  C   UNL     1      -3.979   2.356  25.415  0.00  0.00    +0.044 A 
ATOM     24  C   UNL     1      -3.205   4.641  25.273  0.00  0.00    +0.012 A 
ATOM     25  C   UNL     1      -5.299   2.806  25.462  0.00  0.00    +0.127 A 
ATOM     26  C   UNL     1      -4.526   5.090  25.319  0.00  0.00    +0.003 A 
ATOM     27  C   UNL     1      -5.573   4.173  25.413  0.00  0.00    +0.033 A 
BRANCH  25   9
ATOM      3  O   UNL     1      -6.666   1.406  26.682  0.00  0.00    -0.126 OA
ATOM      4  O   UNL     1      -6.978   1.541  24.513  0.00  0.00    -0.126 OA
ATOM      9  N   UNL     1      -6.365   1.873  25.557  0.00  0.00    +0.056 N 
ENDBRANCH  25   9
ENDBRANCH  17  20
ENDBRANCH  10  15
BRANCH  12   1
ATOM      1  O   UNL     1       3.070   0.149  21.302  0.00  0.00    -0.390 OA
ATOM     28  H   UNL     1       2.944   0.504  20.405  0.00  0.00    +0.210 HD
ENDBRANCH  12   1
BRANCH   5  14
ATOM     14  C   UNL     1       0.169  -1.561  24.654  0.00  0.00    +0.120 C 
BRANCH  14  16
ATOM      8  N   UNL     1      -4.074  -2.014  25.188  0.00  0.00    -0.263 NA
ATOM     16  C   UNL     1      -1.316  -1.719  24.841  0.00  0.00    -0.030 A 
ATOM     18  C   UNL     1      -2.020  -2.648  24.083  0.00  0.00    +0.024 A 
ATOM     19  C   UNL     1      -1.990  -0.937  25.774  0.00  0.00    +0.024 A 
ATOM     21  C   UNL     1      -3.385  -2.756  24.292  0.00  0.00    +0.111 A 
ATOM     22  C   UNL     1      -3.357  -1.123  25.907  0.00  0.00    +0.111 A 
ENDBRANCH  14  16
ENDBRANCH   5  14
TORSDOF 6
ENDMDL
MODEL 5
REMARK VINA RESULT:      -0.0      1.971      3.722
REMARK  Name = 26744329
REMARK  6 active torsions:
REMARK  status: ('A' for Active; 'I' for Inactive)
REMARK    1  A    between atoms: O_1  and  C_12
REMARK    2  A    between atoms: N_5  and  C_14
REMARK    3  A    between atoms: N_9  and  C_25
REMARK    4  A    between atoms: C_10  and  C_15
REMARK    5  A    between atoms: C_14  and  C_16
REMARK    6  A    between atoms: C_17  and  C_20
REMARK                            x       y       z     vdW  Elec       q    Type
REMARK                         _______ _______ _______ _____ _____    ______ ____
ROOT
ATOM      5  N   UNL     1      -3.963   2.456  25.312  0.00  0.00    -0.285 NA
ATOM     10  C   UNL     1      -3.864   1.031  25.688  0.00  0.00    +0.149 C 
ATOM     11  C   UNL     1      -5.125   0.378  25.093  0.00  0.00    +0.061 C 
ATOM     12  C   UNL     1      -5.892   1.522  24.442  0.00  0.00    +0.130 C 
ATOM     13  C   UNL     1      -5.389   2.750  25.177  0.00  0.00    +0.116 C 
ENDROOT
BRANCH  10  15
ATOM      2  O   UNL     1      -2.146  -0.695  25.893  0.00  0.00    -0.336 OA
ATOM      6  N   UNL     1      -1.820   0.721  24.190  0.00  0.00    -0.190 NA
ATOM      7  N   UNL     1      -0.967  -1.109  25.263  0.00  0.00    -0.056 NA
ATOM     15  C   UNL     1      -2.584   0.388  25.199  0.00  0.00    +0.245 A 
ATOM     17  C   UNL     1      -0.840  -0.225  24.269  0.00  0.00    +0.202 A 
BRANCH  17  20
ATOM     20  C   UNL     1       0.251  -0.261  23.339  0.00  0.00    +0.025 A 
ATOM     23  C   UNL     1       1.561  -0.113  23.794  0.00  0.00    +0.044 A 
ATOM     24  C   UNL     1       0.000  -0.444  21.979  0.00  0.00    +0.012 A 
ATOM     25  C   UNL     1       2.622  -0.150  22.888  0.00  0.00    +0.127 A 
ATOM     26  C   UNL     1       1.062  -0.480  21.073  0.00  0.00    +0.003 A 
ATOM     27  C   UNL     1       2.372  -0.333  21.528  0.00  0.00    +0.033 A 
BRANCH  25   9
ATOM      3  O   UNL     1       4.488   1.136  23.312  0.00  0.00    -0.126 OA
ATOM      4  O   UNL     1       4.566  -1.007  23.784  0.00  0.00    -0.126 OA
ATOM      9  N   UNL     1       3.956   0.000  23.350  0.00  0.00    +0.056 N 
ENDBRANCH  25   9
ENDBRANCH  17  20
ENDBRANCH  10  15
BRANCH  12   1
ATOM      1  O   UNL     1      -7.287   1.347  24.604  0.00  0.00    -0.390 OA
ATOM     28  H   UNL     1      -7.730   1.893  23.932  0.00  0.00    +0.210 HD
ENDBRANCH  12   1
BRANCH   5  14
ATOM     14  C   UNL     1      -3.308   3.348  26.260  0.00  0.00    +0.120 C 
BRANCH  14  16
ATOM      8  N   UNL     1       0.101   5.306  24.517  0.00  0.00    -0.263 NA
ATOM     16  C   UNL     1      -2.115   4.033  25.650  0.00  0.00    -0.030 A 
ATOM     18  C   UNL     1      -2.201   5.363  25.253  0.00  0.00    +0.024 A 
ATOM     19  C   UNL     1      -0.920   3.339  25.482  0.00  0.00    +0.024 A 
ATOM     21  C   UNL     1      -1.075   5.949  24.696  0.00  0.00    +0.111 A 
ATOM     22  C   UNL     1       0.148   4.016  24.916  0.00  0.00    +0.111 A 
ENDBRANCH  14  16
ENDBRANCH   5  14
TORSDOF 6
ENDMDL
