MODEL 1
REMARK VINA RESULT:       2.1      0.000      0.000
REMARK  Name = 26745401
REMARK  6 active torsions:
REMARK  status: ('A' for Active; 'I' for Inactive)
REMARK    1  A    between atoms: N_3  and  C_18
REMARK    2  A    between atoms: C_6  and  C_13
REMARK    3  A    between atoms: C_11  and  C_12
REMARK    4  A    between atoms: C_13  and  C_19
REMARK    5  A    between atoms: C_18  and  C_20
REMARK    6  A    between atoms: C_31  and  C_32
REMARK                            x       y       z     vdW  Elec       q    Type
REMARK                         _______ _______ _______ _____ _____    ______ ____
ROOT
ATOM      3  N   UNL     1      -0.319   0.561  24.604  0.00  0.00    -0.281 NA
ATOM      4  N   UNL     1       1.919  -0.904  21.981  0.00  0.00    -0.347 N 
ATOM      5  N   UNL     1       3.088   0.989  22.218  0.00  0.00    -0.240 NA
ATOM     11  C   UNL     1       0.770   1.377  25.213  0.00  0.00    +0.150 C 
ATOM     14  C   UNL     1       1.772   1.947  24.164  0.00  0.00    +0.085 C 
ATOM     15  C   UNL     1       0.215  -0.624  23.872  0.00  0.00    +0.140 C 
ATOM     16  C   UNL     1       2.089   0.924  23.147  0.00  0.00    +0.065 A 
ATOM     17  C   UNL     1       1.354  -0.226  23.018  0.00  0.00    +0.053 A 
ATOM     21  C   UNL     1       2.961  -0.130  21.531  0.00  0.00    +0.197 A 
ATOM     33  H   UNL     1       1.635  -1.801  21.613  0.00  0.00    +0.167 HD
ENDROOT
BRANCH  11  12
ATOM      1  O   UNL     1       0.421   2.746  27.105  0.00  0.00    -0.274 OA
ATOM      2  N   UNL     1      -0.674   3.369  25.154  0.00  0.00    -0.300 N 
ATOM      6  C   UNL     1      -3.191   4.375  24.118  0.00  0.00    -0.004 C 
ATOM      7  C   UNL     1      -2.513   3.128  23.530  0.00  0.00    +0.023 C 
ATOM      8  C   UNL     1      -2.794   4.549  25.592  0.00  0.00    +0.023 C 
ATOM      9  C   UNL     1      -1.000   3.168  23.737  0.00  0.00    +0.108 C 
ATOM     10  C   UNL     1      -1.275   4.561  25.757  0.00  0.00    +0.108 C 
ATOM     12  C   UNL     1       0.162   2.554  25.914  0.00  0.00    +0.233 C 
BRANCH   6  13
ATOM     13  C   UNL     1      -4.708   4.289  23.972  0.00  0.00    +0.038 C 
BRANCH  13  19
ATOM     19  C   UNL     1      -5.287   3.200  24.835  0.00  0.00    -0.047 A 
ATOM     22  C   UNL     1      -5.667   3.477  26.148  0.00  0.00    +0.003 A 
ATOM     23  C   UNL     1      -5.443   1.912  24.320  0.00  0.00    +0.003 A 
ATOM     26  C   UNL     1      -6.202   2.467  26.947  0.00  0.00    +0.000 A 
ATOM     27  C   UNL     1      -5.979   0.903  25.119  0.00  0.00    +0.000 A 
ATOM     28  C   UNL     1      -6.359   1.180  26.433  0.00  0.00    +0.000 A 
ENDBRANCH  13  19
ENDBRANCH   6  13
ENDBRANCH  11  12
BRANCH   3  18
ATOM     18  C   UNL     1      -1.292   0.093  25.598  0.00  0.00    +0.120 C 
BRANCH  18  20
ATOM     20  C   UNL     1      -2.326  -0.815  24.987  0.00  0.00    -0.033 A 
ATOM     24  C   UNL     1      -2.520  -2.097  25.503  0.00  0.00    +0.005 A 
ATOM     25  C   UNL     1      -3.086  -0.377  23.903  0.00  0.00    +0.005 A 
ATOM     29  C   UNL     1      -3.475  -2.939  24.935  0.00  0.00    +0.003 A 
ATOM     30  C   UNL     1      -4.042  -1.219  23.335  0.00  0.00    +0.003 A 
ATOM     31  C   UNL     1      -4.236  -2.500  23.851  0.00  0.00    -0.050 A 
ATOM     32  C   UNL     1      -5.258  -3.402  23.244  0.00  0.00    +0.044 C 
ENDBRANCH  18  20
ENDBRANCH   3  18
TORSDOF 5
ENDMDL
