MODEL 1
REMARK VINA RESULT:       4.9      0.000      0.000
REMARK  Name = 11911716
REMARK  7 active torsions:
REMARK  status: ('A' for Active; 'I' for Inactive)
REMARK    1  A    between atoms: N_4  and  C_11
REMARK    2  A    between atoms: N_5  and  C_12
REMARK    3  A    between atoms: N_8  and  C_29
REMARK    4  A    between atoms: N_8  and  C_32
REMARK    5  A    between atoms: N_8  and  C_33
REMARK    6  A    between atoms: C_16  and  C_17
REMARK    7  A    between atoms: C_18  and  C_23
REMARK                            x       y       z     vdW  Elec       q    Type
REMARK                         _______ _______ _______ _____ _____    ______ ____
ROOT
ATOM      1  O   UNL     1      -4.992   3.235  25.620  0.00  0.00    -0.370 OA
ATOM      2  O   UNL     1      -2.294   3.341  24.056  0.00  0.00    -0.370 OA
ATOM      9  C   UNL     1      -2.990   2.290  24.746  0.00  0.00    +0.171 C 
ATOM     10  C   UNL     1      -3.636   2.907  25.970  0.00  0.00    +0.171 C 
ATOM     11  C   UNL     1      -4.157   1.804  23.918  0.00  0.00    +0.130 C 
ATOM     12  C   UNL     1      -2.837   4.167  26.214  0.00  0.00    +0.130 C 
ATOM     13  C   UNL     1      -5.256   2.783  24.284  0.00  0.00    +0.185 C 
ATOM     14  C   UNL     1      -2.412   4.557  24.809  0.00  0.00    +0.185 C 
ENDROOT
BRANCH  11   4
ATOM      4  N   UNL     1      -4.526   0.464  24.322  0.00  0.00    -0.306 N 
ATOM      6  N   UNL     1      -2.315  -0.307  24.175  0.00  0.00    -0.214 NA
ATOM      7  N   UNL     1      -4.099  -1.785  24.839  0.00  0.00    -0.223 NA
ATOM     15  C   UNL     1      -3.619  -0.574  24.449  0.00  0.00    +0.216 A 
ATOM     18  C   UNL     1      -1.459  -1.342  24.308  0.00  0.00    +0.076 A 
ATOM     21  C   UNL     1      -3.189  -2.774  24.952  0.00  0.00    +0.116 A 
ATOM     22  C   UNL     1      -1.843  -2.610  24.698  0.00  0.00    +0.048 A 
ATOM     34  H   UNL     1      -5.487   0.268  24.580  0.00  0.00    +0.149 HD
BRANCH  18  23
ATOM     23  C   UNL     1      -0.079  -1.038  24.013  0.00  0.00    +0.001 A 
ATOM     27  C   UNL     1       0.940  -1.856  24.506  0.00  0.00    +0.012 A 
ATOM     28  C   UNL     1       0.242   0.077  23.235  0.00  0.00    +0.012 A 
ATOM     29  C   UNL     1       2.591  -0.447  23.445  0.00  0.00    +0.029 A 
ATOM     30  C   UNL     1       2.273  -1.560  24.221  0.00  0.00    +0.024 A 
ATOM     31  C   UNL     1       1.575   0.372  22.952  0.00  0.00    +0.024 A 
BRANCH  29   8
ATOM      8  N   UNL     1       3.939  -0.149  23.157  0.00  0.00    -0.336 N 
ATOM     32  C   UNL     1       4.273   0.906  22.222  0.00  0.00    +0.129 C 
ATOM     33  C   UNL     1       5.008  -0.886  23.802  0.00  0.00    +0.129 C 
ENDBRANCH  29   8
ENDBRANCH  18  23
ENDBRANCH  11   4
BRANCH  12   5
ATOM      3  O   UNL     1      -0.771   2.229  25.744  0.00  0.00    -0.270 OA
ATOM      5  N   UNL     1      -1.692   3.906  27.053  0.00  0.00    -0.304 N 
ATOM     16  C   UNL     1      -0.742   2.944  26.741  0.00  0.00    +0.244 C 
ATOM     35  H   UNL     1      -1.666   4.379  27.950  0.00  0.00    +0.149 HD
BRANCH  16  17
ATOM     17  C   UNL     1       0.362   2.780  27.721  0.00  0.00    +0.037 A 
ATOM     19  C   UNL     1       0.052   2.446  29.023  0.00  0.00    +0.013 A 
ATOM     20  C   UNL     1       1.661   2.963  27.297  0.00  0.00    +0.013 A 
ATOM     24  C   UNL     1       1.088   2.291  29.944  0.00  0.00    +0.001 A 
ATOM     25  C   UNL     1       2.698   2.809  28.217  0.00  0.00    +0.001 A 
ATOM     26  C   UNL     1       2.412   2.472  29.541  0.00  0.00    +0.000 A 
ENDBRANCH  16  17
ENDBRANCH  12   5
TORSDOF 5
ENDMDL
MODEL 2
REMARK VINA RESULT:       6.9      1.958      5.582
REMARK  Name = 11911716
REMARK  7 active torsions:
REMARK  status: ('A' for Active; 'I' for Inactive)
REMARK    1  A    between atoms: N_4  and  C_11
REMARK    2  A    between atoms: N_5  and  C_12
REMARK    3  A    between atoms: N_8  and  C_29
REMARK    4  A    between atoms: N_8  and  C_32
REMARK    5  A    between atoms: N_8  and  C_33
REMARK    6  A    between atoms: C_16  and  C_17
REMARK    7  A    between atoms: C_18  and  C_23
REMARK                            x       y       z     vdW  Elec       q    Type
REMARK                         _______ _______ _______ _____ _____    ______ ____
ROOT
ATOM      1  O   UNL     1      -3.898  -1.620  23.178  0.00  0.00    -0.370 OA
ATOM      2  O   UNL     1      -2.526  -1.455  25.976  0.00  0.00    -0.370 OA
ATOM      9  C   UNL     1      -2.890  -0.466  24.999  0.00  0.00    +0.171 C 
ATOM     10  C   UNL     1      -2.648  -1.074  23.632  0.00  0.00    +0.171 C 
ATOM     11  C   UNL     1      -4.381  -0.218  25.034  0.00  0.00    +0.130 C 
ATOM     12  C   UNL     1      -1.654  -2.182  23.892  0.00  0.00    +0.130 C 
ATOM     13  C   UNL     1      -4.922  -1.315  24.137  0.00  0.00    +0.185 C 
ATOM     14  C   UNL     1      -2.012  -2.614  25.303  0.00  0.00    +0.185 C 
ENDROOT
BRANCH  11   4
ATOM      4  N   UNL     1      -4.680   1.081  24.472  0.00  0.00    -0.306 N 
ATOM      6  N   UNL     1      -2.835   2.082  25.522  0.00  0.00    -0.214 NA
ATOM      7  N   UNL     1      -4.311   3.372  24.119  0.00  0.00    -0.223 NA
ATOM     15  C   UNL     1      -3.919   2.212  24.712  0.00  0.00    +0.216 A 
ATOM     18  C   UNL     1      -2.117   3.204  25.734  0.00  0.00    +0.076 A 
ATOM     21  C   UNL     1      -3.547   4.454  24.374  0.00  0.00    +0.116 A 
ATOM     22  C   UNL     1      -2.428   4.430  25.182  0.00  0.00    +0.048 A 
ATOM     34  H   UNL     1      -5.454   1.177  23.825  0.00  0.00    +0.149 HD
BRANCH  18  23
ATOM     23  C   UNL     1      -0.971   3.044  26.597  0.00  0.00    +0.001 A 
ATOM     27  C   UNL     1       0.305   2.898  26.047  0.00  0.00    +0.012 A 
ATOM     28  C   UNL     1      -1.133   3.032  27.984  0.00  0.00    +0.012 A 
ATOM     29  C   UNL     1       1.247   2.730  28.266  0.00  0.00    +0.029 A 
ATOM     30  C   UNL     1       1.412   2.742  26.882  0.00  0.00    +0.024 A 
ATOM     31  C   UNL     1      -0.026   2.876  28.817  0.00  0.00    +0.024 A 
BRANCH  29   8
ATOM      8  N   UNL     1       2.367   2.573  29.109  0.00  0.00    -0.336 N 
ATOM     32  C   UNL     1       3.654   3.121  28.729  0.00  0.00    +0.129 C 
ATOM     33  C   UNL     1       2.242   1.873  30.371  0.00  0.00    +0.129 C 
ENDBRANCH  29   8
ENDBRANCH  18  23
ENDBRANCH  11   4
BRANCH  12   5
ATOM      3  O   UNL     1      -0.796   0.371  22.896  0.00  0.00    -0.270 OA
ATOM      5  N   UNL     1      -0.298  -1.695  23.823  0.00  0.00    -0.304 N 
ATOM     16  C   UNL     1       0.020  -0.440  23.323  0.00  0.00    +0.244 C 
ATOM     35  H   UNL     1       0.438  -2.356  24.051  0.00  0.00    +0.149 HD
BRANCH  16  17
ATOM     17  C   UNL     1       1.466  -0.099  23.296  0.00  0.00    +0.037 A 
ATOM     19  C   UNL     1       2.392  -1.110  23.442  0.00  0.00    +0.013 A 
ATOM     20  C   UNL     1       1.835   1.219  23.122  0.00  0.00    +0.013 A 
ATOM     24  C   UNL     1       3.749  -0.790  23.415  0.00  0.00    +0.001 A 
ATOM     25  C   UNL     1       3.192   1.540  23.096  0.00  0.00    +0.001 A 
ATOM     26  C   UNL     1       4.150   0.535  23.243  0.00  0.00    +0.000 A 
ENDBRANCH  16  17
ENDBRANCH  12   5
TORSDOF 5
ENDMDL
