MODEL 1
REMARK VINA RESULT:      10.6      0.000      0.000
REMARK  Name = 51136880
REMARK  10 active torsions:
REMARK  status: ('A' for Active; 'I' for Inactive)
REMARK    1  A    between atoms: O_3  and  C_23
REMARK    2  A    between atoms: O_5  and  C_34
REMARK    3  A    between atoms: O_5  and  C_35
REMARK    4  A    between atoms: N_6  and  C_15
REMARK    5  A    between atoms: N_10  and  C_27
REMARK    6  A    between atoms: C_11  and  C_16
REMARK    7  A    between atoms: C_15  and  C_17
REMARK    8  A    between atoms: C_19  and  C_22
REMARK    9  A    between atoms: C_20  and  C_23
REMARK   10  A    between atoms: C_28  and  C_29
REMARK                            x       y       z     vdW  Elec       q    Type
REMARK                         _______ _______ _______ _____ _____    ______ ____
ROOT
ATOM      1  O   UNL     1      -3.831   2.486  22.527  0.00  0.00    -0.336 OA
ATOM      7  N   UNL     1      -2.651   1.638  24.232  0.00  0.00    -0.190 NA
ATOM      8  N   UNL     1      -2.509   2.386  22.075  0.00  0.00    -0.056 NA
ATOM     16  C   UNL     1      -3.827   2.025  23.806  0.00  0.00    +0.245 A 
ATOM     19  C   UNL     1      -1.875   1.878  23.136  0.00  0.00    +0.204 A 
ENDROOT
BRANCH  19  22
ATOM      9  N   UNL     1       1.769   2.262  23.772  0.00  0.00    -0.239 NA
ATOM     22  C   UNL     1      -0.467   1.600  23.134  0.00  0.00    +0.041 A 
ATOM     24  C   UNL     1       0.037   0.456  22.525  0.00  0.00    +0.016 A 
ATOM     25  C   UNL     1       0.432   2.464  23.738  0.00  0.00    +0.124 A 
ATOM     26  C   UNL     1       1.406   0.214  22.540  0.00  0.00    +0.044 A 
ATOM     27  C   UNL     1       2.222   1.139  23.169  0.00  0.00    +0.125 A 
BRANCH  27  10
ATOM      4  O   UNL     1       3.724  -1.381  23.785  0.00  0.00    -0.270 OA
ATOM     10  N   UNL     1       3.599   0.886  23.178  0.00  0.00    -0.266 N 
ATOM     28  C   UNL     1       4.248  -0.316  23.475  0.00  0.00    +0.249 C 
ATOM     37  H   UNL     1       4.148   1.690  22.890  0.00  0.00    +0.157 HD
BRANCH  28  29
ATOM     29  C   UNL     1       5.730  -0.279  23.369  0.00  0.00    +0.037 A 
ATOM     30  C   UNL     1       6.450   0.729  24.010  0.00  0.00    +0.016 A 
ATOM     31  C   UNL     1       6.402  -1.252  22.628  0.00  0.00    +0.016 A 
ATOM     32  C   UNL     1       7.841   0.765  23.910  0.00  0.00    +0.046 A 
ATOM     33  C   UNL     1       7.792  -1.216  22.527  0.00  0.00    +0.046 A 
ATOM     34  C   UNL     1       8.511  -0.208  23.168  0.00  0.00    +0.120 A 
BRANCH  34   5
ATOM      5  O   UNL     1       9.868  -0.173  23.071  0.00  0.00    -0.495 OA
ATOM     35  C   UNL     1      10.438   0.897  22.318  0.00  0.00    +0.277 C 
ENDBRANCH  34   5
ENDBRANCH  28  29
ENDBRANCH  27  10
ENDBRANCH  19  22
BRANCH  16  11
ATOM      6  N   UNL     1      -5.184   1.094  25.672  0.00  0.00    -0.284 NA
ATOM     11  C   UNL     1      -5.156   2.029  24.529  0.00  0.00    +0.146 C 
ATOM     12  C   UNL     1      -5.499   3.401  25.137  0.00  0.00    +0.030 C 
ATOM     13  C   UNL     1      -5.762   3.129  26.612  0.00  0.00    +0.017 C 
ATOM     14  C   UNL     1      -6.122   1.656  26.643  0.00  0.00    +0.085 C 
BRANCH   6  15
ATOM     15  C   UNL     1      -5.538  -0.267  25.293  0.00  0.00    +0.159 C 
BRANCH  15  17
ATOM      2  O   UNL     1      -3.163  -0.731  25.556  0.00  0.00    -0.461 OA
ATOM     17  C   UNL     1      -4.323  -1.086  24.946  0.00  0.00    +0.119 A 
ATOM     18  C   UNL     1      -4.120  -2.161  24.110  0.00  0.00    +0.046 A 
ATOM     20  C   UNL     1      -2.208  -1.587  25.107  0.00  0.00    +0.131 A 
ATOM     21  C   UNL     1      -2.747  -2.486  24.216  0.00  0.00    +0.047 A 
BRANCH  20  23
ATOM     23  C   UNL     1      -0.853  -1.389  25.641  0.00  0.00    +0.230 C 
BRANCH  23   3
ATOM      3  O   UNL     1      -0.701  -0.049  26.116  0.00  0.00    -0.387 OA
ATOM     36  H   UNL     1      -0.779  -0.081  27.085  0.00  0.00    +0.210 HD
ENDBRANCH  23   3
ENDBRANCH  20  23
ENDBRANCH  15  17
ENDBRANCH   6  15
ENDBRANCH  16  11
TORSDOF 9
ENDMDL
MODEL 2
REMARK VINA RESULT:      11.7      1.621      2.762
REMARK  Name = 51136880
REMARK  10 active torsions:
REMARK  status: ('A' for Active; 'I' for Inactive)
REMARK    1  A    between atoms: O_3  and  C_23
REMARK    2  A    between atoms: O_5  and  C_34
REMARK    3  A    between atoms: O_5  and  C_35
REMARK    4  A    between atoms: N_6  and  C_15
REMARK    5  A    between atoms: N_10  and  C_27
REMARK    6  A    between atoms: C_11  and  C_16
REMARK    7  A    between atoms: C_15  and  C_17
REMARK    8  A    between atoms: C_19  and  C_22
REMARK    9  A    between atoms: C_20  and  C_23
REMARK   10  A    between atoms: C_28  and  C_29
REMARK                            x       y       z     vdW  Elec       q    Type
REMARK                         _______ _______ _______ _____ _____    ______ ____
ROOT
ATOM      1  O   UNL     1      -3.591   1.371  23.040  0.00  0.00    -0.336 OA
ATOM      7  N   UNL     1      -2.150   1.207  24.748  0.00  0.00    -0.190 NA
ATOM      8  N   UNL     1      -2.322   1.214  22.467  0.00  0.00    -0.056 NA
ATOM     16  C   UNL     1      -3.399   1.357  24.385  0.00  0.00    +0.245 A 
ATOM     19  C   UNL     1      -1.527   1.123  23.536  0.00  0.00    +0.204 A 
ENDROOT
BRANCH  19  22
ATOM      9  N   UNL     1       2.113   1.839  23.788  0.00  0.00    -0.239 NA
ATOM     22  C   UNL     1      -0.106   0.951  23.430  0.00  0.00    +0.041 A 
ATOM     24  C   UNL     1       0.436  -0.211  22.893  0.00  0.00    +0.016 A 
ATOM     25  C   UNL     1       0.766   1.937  23.860  0.00  0.00    +0.124 A 
ATOM     26  C   UNL     1       1.817  -0.349  22.803  0.00  0.00    +0.044 A 
ATOM     27  C   UNL     1       2.604   0.696  23.259  0.00  0.00    +0.125 A 
BRANCH  27  10
ATOM      4  O   UNL     1       4.367  -1.595  24.058  0.00  0.00    -0.270 OA
ATOM     10  N   UNL     1       3.993   0.547  23.164  0.00  0.00    -0.266 N 
ATOM     28  C   UNL     1       4.767  -0.551  23.555  0.00  0.00    +0.249 C 
ATOM     37  H   UNL     1       4.444   1.339  22.716  0.00  0.00    +0.157 HD
BRANCH  28  29
ATOM     29  C   UNL     1       6.225  -0.422  23.297  0.00  0.00    +0.037 A 
ATOM     30  C   UNL     1       6.932   0.663  23.816  0.00  0.00    +0.016 A 
ATOM     31  C   UNL     1       6.887  -1.385  22.534  0.00  0.00    +0.016 A 
ATOM     32  C   UNL     1       8.301   0.785  23.573  0.00  0.00    +0.046 A 
ATOM     33  C   UNL     1       8.255  -1.263  22.291  0.00  0.00    +0.046 A 
ATOM     34  C   UNL     1       8.961  -0.178  22.810  0.00  0.00    +0.120 A 
BRANCH  34   5
ATOM      5  O   UNL     1      10.296  -0.060  22.573  0.00  0.00    -0.495 OA
ATOM     35  C   UNL     1      10.736   1.130  21.919  0.00  0.00    +0.277 C 
ENDBRANCH  34   5
ENDBRANCH  28  29
ENDBRANCH  27  10
ENDBRANCH  19  22
BRANCH  16  11
ATOM      6  N   UNL     1      -5.163   2.892  25.237  0.00  0.00    -0.284 NA
ATOM     11  C   UNL     1      -4.636   1.512  25.245  0.00  0.00    +0.146 C 
ATOM     12  C   UNL     1      -5.810   0.641  24.761  0.00  0.00    +0.030 C 
ATOM     13  C   UNL     1      -6.969   1.609  24.565  0.00  0.00    +0.017 C 
ATOM     14  C   UNL     1      -6.606   2.783  25.452  0.00  0.00    +0.085 C 
BRANCH   6  15
ATOM     15  C   UNL     1      -4.526   3.756  26.221  0.00  0.00    +0.159 C 
BRANCH  15  17
ATOM      2  O   UNL     1      -2.150   3.333  26.541  0.00  0.00    -0.461 OA
ATOM     17  C   UNL     1      -3.091   4.045  25.867  0.00  0.00    +0.119 A 
ATOM     18  C   UNL     1      -2.497   4.908  24.975  0.00  0.00    +0.046 A 
ATOM     20  C   UNL     1      -0.942   3.745  26.074  0.00  0.00    +0.131 A 
ATOM     21  C   UNL     1      -1.102   4.712  25.109  0.00  0.00    +0.047 A 
BRANCH  20  23
ATOM     23  C   UNL     1       0.239   3.101  26.668  0.00  0.00    +0.230 C 
BRANCH  23   3
ATOM      3  O   UNL     1      -0.028   1.719  26.921  0.00  0.00    -0.387 OA
ATOM     36  H   UNL     1       0.250   1.227  26.128  0.00  0.00    +0.210 HD
ENDBRANCH  23   3
ENDBRANCH  20  23
ENDBRANCH  15  17
ENDBRANCH   6  15
ENDBRANCH  16  11
TORSDOF 9
ENDMDL
