MODEL 1
REMARK VINA RESULT:      -1.2      0.000      0.000
REMARK  Name = 71694324
REMARK  7 active torsions:
REMARK  status: ('A' for Active; 'I' for Inactive)
REMARK    1  A    between atoms: O_6  and  C_18
REMARK    2  A    between atoms: O_6  and  C_26
REMARK    3  A    between atoms: O_7  and  C_25
REMARK    4  A    between atoms: O_7  and  C_27
REMARK    5  A    between atoms: C_11  and  C_14
REMARK    6  A    between atoms: C_16  and  C_18
REMARK    7  A    between atoms: C_17  and  C_20
REMARK                            x       y       z     vdW  Elec       q    Type
REMARK                         _______ _______ _______ _____ _____    ______ ____
ROOT
ATOM      9  N   UNL     1      -1.599   1.222  24.730  0.00  0.00    -0.340 N 
ATOM     10  N   UNL     1      -3.131  -0.365  24.477  0.00  0.00    -0.238 NA
ATOM     14  C   UNL     1      -2.882   0.822  24.983  0.00  0.00    +0.130 A 
ATOM     17  C   UNL     1      -0.993   0.227  24.018  0.00  0.00    +0.066 A 
ATOM     19  C   UNL     1      -1.957  -0.743  23.874  0.00  0.00    +0.139 A 
ATOM     28  H   UNL     1      -1.182   2.094  25.029  0.00  0.00    +0.167 HD
ENDROOT
BRANCH  14  11
ATOM      4  O   UNL     1      -5.988   1.587  24.544  0.00  0.00    -0.376 OA
ATOM      5  O   UNL     1      -2.141   3.622  26.963  0.00  0.00    -0.273 OA
ATOM      8  N   UNL     1      -3.747   3.119  25.356  0.00  0.00    -0.285 N 
ATOM     11  C   UNL     1      -3.849   1.703  25.764  0.00  0.00    +0.168 C 
ATOM     12  C   UNL     1      -5.313   1.227  25.749  0.00  0.00    +0.190 C 
ATOM     13  C   UNL     1      -4.567   3.513  24.203  0.00  0.00    +0.136 C 
ATOM     15  C   UNL     1      -5.991   3.001  24.356  0.00  0.00    +0.179 C 
ATOM     16  C   UNL     1      -2.828   3.958  25.994  0.00  0.00    +0.242 C 
BRANCH  16  18
ATOM     18  C   UNL     1      -2.693   5.356  25.445  0.00  0.00    +0.255 C 
BRANCH  18   6
ATOM      6  O   UNL     1      -1.316   5.586  25.266  0.00  0.00    -0.374 OA
ATOM     26  C   UNL     1      -0.725   4.633  24.384  0.00  0.00    +0.194 C 
ENDBRANCH  18   6
ENDBRANCH  16  18
ENDBRANCH  14  11
BRANCH  17  20
ATOM     20  C   UNL     1       0.373   0.294  23.568  0.00  0.00    +0.000 A 
ATOM     21  C   UNL     1       1.196   1.339  23.989  0.00  0.00    +0.013 A 
ATOM     22  C   UNL     1       0.874  -0.686  22.711  0.00  0.00    +0.013 A 
ATOM     23  C   UNL     1       2.519   1.404  23.553  0.00  0.00    +0.046 A 
ATOM     24  C   UNL     1       2.197  -0.620  22.274  0.00  0.00    +0.046 A 
ATOM     25  C   UNL     1       3.020   0.424  22.695  0.00  0.00    +0.130 A 
BRANCH  25   7
ATOM      7  O   UNL     1       4.312   0.486  22.272  0.00  0.00    -0.406 OA
BRANCH   7  27
ATOM      1  F   UNL     1       5.627   1.020  24.065  0.00  0.00    -0.133 F 
ATOM      2  F   UNL     1       4.897  -1.028  23.840  0.00  0.00    -0.133 F 
ATOM      3  F   UNL     1       6.451  -0.294  22.490  0.00  0.00    -0.133 F 
ATOM     27  C   UNL     1       5.334   0.058  23.164  0.00  0.00    +0.575 C 
ENDBRANCH   7  27
ENDBRANCH  25   7
ENDBRANCH  17  20
TORSDOF 6
ENDMDL
MODEL 2
REMARK VINA RESULT:      -1.0      1.794      3.620
REMARK  Name = 71694324
REMARK  7 active torsions:
REMARK  status: ('A' for Active; 'I' for Inactive)
REMARK    1  A    between atoms: O_6  and  C_18
REMARK    2  A    between atoms: O_6  and  C_26
REMARK    3  A    between atoms: O_7  and  C_25
REMARK    4  A    between atoms: O_7  and  C_27
REMARK    5  A    between atoms: C_11  and  C_14
REMARK    6  A    between atoms: C_16  and  C_18
REMARK    7  A    between atoms: C_17  and  C_20
REMARK                            x       y       z     vdW  Elec       q    Type
REMARK                         _______ _______ _______ _____ _____    ______ ____
ROOT
ATOM      9  N   UNL     1      -1.596   1.297  23.571  0.00  0.00    -0.340 N 
ATOM     10  N   UNL     1      -2.158   3.156  24.648  0.00  0.00    -0.238 NA
ATOM     14  C   UNL     1      -2.611   2.068  24.065  0.00  0.00    +0.130 A 
ATOM     17  C   UNL     1      -0.422   1.933  23.857  0.00  0.00    +0.066 A 
ATOM     19  C   UNL     1      -0.793   3.078  24.522  0.00  0.00    +0.139 A 
ATOM     28  H   UNL     1      -1.707   0.421  23.076  0.00  0.00    +0.167 HD
ENDROOT
BRANCH  14  11
ATOM      4  O   UNL     1      -5.267   2.759  25.767  0.00  0.00    -0.376 OA
ATOM      5  O   UNL     1      -3.886  -0.889  22.673  0.00  0.00    -0.273 OA
ATOM      8  N   UNL     1      -4.335   0.359  24.585  0.00  0.00    -0.285 N 
ATOM     11  C   UNL     1      -4.070   1.650  23.919  0.00  0.00    +0.168 C 
ATOM     12  C   UNL     1      -5.093   2.716  24.351  0.00  0.00    +0.190 C 
ATOM     13  C   UNL     1      -4.663   0.432  26.015  0.00  0.00    +0.136 C 
ATOM     15  C   UNL     1      -5.713   1.502  26.271  0.00  0.00    +0.179 C 
ATOM     16  C   UNL     1      -4.162  -0.833  23.874  0.00  0.00    +0.242 C 
BRANCH  16  18
ATOM     18  C   UNL     1      -4.333  -2.115  24.650  0.00  0.00    +0.255 C 
BRANCH  18   6
ATOM      6  O   UNL     1      -3.236  -2.933  24.322  0.00  0.00    -0.374 OA
ATOM     26  C   UNL     1      -2.002  -2.378  24.773  0.00  0.00    +0.194 C 
ENDBRANCH  18   6
ENDBRANCH  16  18
ENDBRANCH  14  11
BRANCH  17  20
ATOM     20  C   UNL     1       0.870   1.414  23.490  0.00  0.00    +0.000 A 
ATOM     21  C   UNL     1       1.971   2.269  23.423  0.00  0.00    +0.013 A 
ATOM     22  C   UNL     1       1.021   0.058  23.203  0.00  0.00    +0.013 A 
ATOM     23  C   UNL     1       3.223   1.765  23.068  0.00  0.00    +0.046 A 
ATOM     24  C   UNL     1       2.273  -0.444  22.847  0.00  0.00    +0.046 A 
ATOM     25  C   UNL     1       3.373   0.409  22.780  0.00  0.00    +0.130 A 
BRANCH  25   7
ATOM      7  O   UNL     1       4.595  -0.082  22.436  0.00  0.00    -0.406 OA
BRANCH   7  27
ATOM      1  F   UNL     1       6.802  -0.393  22.950  0.00  0.00    -0.133 F 
ATOM      2  F   UNL     1       5.551   0.816  24.273  0.00  0.00    -0.133 F 
ATOM      3  F   UNL     1       5.266  -1.350  24.218  0.00  0.00    -0.133 F 
ATOM     27  C   UNL     1       5.561  -0.269  23.465  0.00  0.00    +0.575 C 
ENDBRANCH   7  27
ENDBRANCH  25   7
ENDBRANCH  17  20
TORSDOF 6
ENDMDL
MODEL 3
REMARK VINA RESULT:       0.8      1.195      3.205
REMARK  Name = 71694324
REMARK  7 active torsions:
REMARK  status: ('A' for Active; 'I' for Inactive)
REMARK    1  A    between atoms: O_6  and  C_18
REMARK    2  A    between atoms: O_6  and  C_26
REMARK    3  A    between atoms: O_7  and  C_25
REMARK    4  A    between atoms: O_7  and  C_27
REMARK    5  A    between atoms: C_11  and  C_14
REMARK    6  A    between atoms: C_16  and  C_18
REMARK    7  A    between atoms: C_17  and  C_20
REMARK                            x       y       z     vdW  Elec       q    Type
REMARK                         _______ _______ _______ _____ _____    ______ ____
ROOT
ATOM      9  N   UNL     1      -1.502   2.055  23.632  0.00  0.00    -0.340 N 
ATOM     10  N   UNL     1      -3.051   0.561  24.179  0.00  0.00    -0.238 NA
ATOM     14  C   UNL     1      -2.809   1.836  23.970  0.00  0.00    +0.130 A 
ATOM     17  C   UNL     1      -0.872   0.844  23.627  0.00  0.00    +0.066 A 
ATOM     19  C   UNL     1      -1.847  -0.064  23.967  0.00  0.00    +0.139 A 
ATOM     28  H   UNL     1      -1.086   2.956  23.435  0.00  0.00    +0.167 HD
ENDROOT
BRANCH  14  11
ATOM      4  O   UNL     1      -2.490   4.951  24.759  0.00  0.00    -0.376 OA
ATOM      5  O   UNL     1      -6.234   1.668  24.712  0.00  0.00    -0.273 OA
ATOM      8  N   UNL     1      -4.465   3.020  25.391  0.00  0.00    -0.285 N 
ATOM     11  C   UNL     1      -3.807   2.984  24.069  0.00  0.00    +0.168 C 
ATOM     12  C   UNL     1      -3.240   4.366  23.695  0.00  0.00    +0.190 C 
ATOM     13  C   UNL     1      -3.752   3.757  26.441  0.00  0.00    +0.136 C 
ATOM     15  C   UNL     1      -3.292   5.113  25.928  0.00  0.00    +0.179 C 
ATOM     16  C   UNL     1      -5.638   2.287  25.598  0.00  0.00    +0.242 C 
BRANCH  16  18
ATOM     18  C   UNL     1      -6.188   2.273  27.003  0.00  0.00    +0.255 C 
BRANCH  18   6
ATOM      6  O   UNL     1      -7.101   1.204  27.066  0.00  0.00    -0.374 OA
ATOM     26  C   UNL     1      -7.127   0.598  28.357  0.00  0.00    +0.194 C 
ENDBRANCH  18   6
ENDBRANCH  16  18
ENDBRANCH  14  11
BRANCH  17  20
ATOM     20  C   UNL     1       0.523   0.678  23.313  0.00  0.00    +0.000 A 
ATOM     21  C   UNL     1       1.447   1.648  23.706  0.00  0.00    +0.013 A 
ATOM     22  C   UNL     1       0.953  -0.451  22.616  0.00  0.00    +0.013 A 
ATOM     23  C   UNL     1       2.799   1.487  23.402  0.00  0.00    +0.046 A 
ATOM     24  C   UNL     1       2.304  -0.611  22.311  0.00  0.00    +0.046 A 
ATOM     25  C   UNL     1       3.227   0.357  22.705  0.00  0.00    +0.130 A 
BRANCH  25   7
ATOM      7  O   UNL     1       4.547   0.199  22.410  0.00  0.00    -0.406 OA
BRANCH   7  27
ATOM      1  F   UNL     1       6.683  -0.372  22.994  0.00  0.00    -0.133 F 
ATOM      2  F   UNL     1       5.466   0.795  24.384  0.00  0.00    -0.133 F 
ATOM      3  F   UNL     1       4.996  -1.315  24.065  0.00  0.00    -0.133 F 
ATOM     27  C   UNL     1       5.429  -0.189  23.457  0.00  0.00    +0.575 C 
ENDBRANCH   7  27
ENDBRANCH  25   7
ENDBRANCH  17  20
TORSDOF 6
ENDMDL
MODEL 4
REMARK VINA RESULT:       1.3     14.717     17.261
REMARK  Name = 71694324
REMARK  7 active torsions:
REMARK  status: ('A' for Active; 'I' for Inactive)
REMARK    1  A    between atoms: O_6  and  C_18
REMARK    2  A    between atoms: O_6  and  C_26
REMARK    3  A    between atoms: O_7  and  C_25
REMARK    4  A    between atoms: O_7  and  C_27
REMARK    5  A    between atoms: C_11  and  C_14
REMARK    6  A    between atoms: C_16  and  C_18
REMARK    7  A    between atoms: C_17  and  C_20
REMARK                            x       y       z     vdW  Elec       q    Type
REMARK                         _______ _______ _______ _____ _____    ______ ____
ROOT
ATOM      9  N   UNL     1      -4.111 -10.133  14.133  0.00  0.00    -0.340 N 
ATOM     10  N   UNL     1      -3.757 -10.473  11.968  0.00  0.00    -0.238 NA
ATOM     14  C   UNL     1      -3.192 -10.371  13.150  0.00  0.00    +0.130 A 
ATOM     17  C   UNL     1      -5.340 -10.079  13.540  0.00  0.00    +0.066 A 
ATOM     19  C   UNL     1      -5.097 -10.291  12.203  0.00  0.00    +0.139 A 
ATOM     28  H   UNL     1      -3.907 -10.010  15.117  0.00  0.00    +0.167 HD
ENDROOT
BRANCH  14  11
ATOM      4  O   UNL     1      -1.436  -9.603  15.750  0.00  0.00    -0.376 OA
ATOM      5  O   UNL     1      -0.490 -10.307  10.912  0.00  0.00    -0.273 OA
ATOM      8  N   UNL     1      -0.946  -9.326  12.972  0.00  0.00    -0.285 N 
ATOM     11  C   UNL     1      -1.705 -10.493  13.466  0.00  0.00    +0.168 C 
ATOM     12  C   UNL     1      -1.381 -10.780  14.944  0.00  0.00    +0.190 C 
ATOM     13  C   UNL     1      -0.883  -8.174  13.880  0.00  0.00    +0.136 C 
ATOM     15  C   UNL     1      -0.515  -8.617  15.288  0.00  0.00    +0.179 C 
ATOM     16  C   UNL     1      -0.435  -9.336  11.671  0.00  0.00    +0.242 C 
BRANCH  16  18
ATOM     18  C   UNL     1       0.224  -8.066  11.193  0.00  0.00    +0.255 C 
BRANCH  18   6
ATOM      6  O   UNL     1       1.575  -8.143  11.579  0.00  0.00    -0.374 OA
ATOM     26  C   UNL     1       2.058  -6.901  12.086  0.00  0.00    +0.194 C 
ENDBRANCH  18   6
ENDBRANCH  16  18
ENDBRANCH  14  11
BRANCH  17  20
ATOM     20  C   UNL     1      -6.561  -9.844  14.265  0.00  0.00    +0.000 A 
ATOM     21  C   UNL     1      -6.545  -9.793  15.660  0.00  0.00    +0.013 A 
ATOM     22  C   UNL     1      -7.760  -9.668  13.576  0.00  0.00    +0.013 A 
ATOM     23  C   UNL     1      -7.728  -9.565  16.363  0.00  0.00    +0.046 A 
ATOM     24  C   UNL     1      -8.943  -9.441  14.279  0.00  0.00    +0.046 A 
ATOM     25  C   UNL     1      -8.927  -9.389  15.673  0.00  0.00    +0.130 A 
BRANCH  25   7
ATOM      7  O   UNL     1     -10.081  -9.164  16.359  0.00  0.00    -0.406 OA
BRANCH   7  27
ATOM      1  F   UNL     1     -10.517  -9.132  18.604  0.00  0.00    -0.133 F 
ATOM      2  F   UNL     1      -8.713  -8.158  17.846  0.00  0.00    -0.133 F 
ATOM      3  F   UNL     1     -10.661  -7.246  17.461  0.00  0.00    -0.133 F 
ATOM     27  C   UNL     1     -10.010  -8.424  17.572  0.00  0.00    +0.575 C 
ENDBRANCH   7  27
ENDBRANCH  25   7
ENDBRANCH  17  20
TORSDOF 6
ENDMDL
MODEL 5
REMARK VINA RESULT:       2.2      1.870      3.191
REMARK  Name = 71694324
REMARK  7 active torsions:
REMARK  status: ('A' for Active; 'I' for Inactive)
REMARK    1  A    between atoms: O_6  and  C_18
REMARK    2  A    between atoms: O_6  and  C_26
REMARK    3  A    between atoms: O_7  and  C_25
REMARK    4  A    between atoms: O_7  and  C_27
REMARK    5  A    between atoms: C_11  and  C_14
REMARK    6  A    between atoms: C_16  and  C_18
REMARK    7  A    between atoms: C_17  and  C_20
REMARK                            x       y       z     vdW  Elec       q    Type
REMARK                         _______ _______ _______ _____ _____    ______ ____
ROOT
ATOM      9  N   UNL     1      -0.795   0.040  24.592  0.00  0.00    -0.340 N 
ATOM     10  N   UNL     1      -1.990   1.910  24.654  0.00  0.00    -0.238 NA
ATOM     14  C   UNL     1      -1.983   0.625  24.930  0.00  0.00    +0.130 A 
ATOM     17  C   UNL     1       0.006   1.014  24.066  0.00  0.00    +0.066 A 
ATOM     19  C   UNL     1      -0.753   2.159  24.115  0.00  0.00    +0.139 A 
ATOM     28  H   UNL     1      -0.564  -0.939  24.704  0.00  0.00    +0.167 HD
ENDROOT
BRANCH  14  11
ATOM      4  O   UNL     1      -3.185  -2.305  24.300  0.00  0.00    -0.376 OA
ATOM      5  O   UNL     1      -4.876   1.821  26.515  0.00  0.00    -0.273 OA
ATOM      8  N   UNL     1      -4.422   0.160  24.950  0.00  0.00    -0.285 N 
ATOM     11  C   UNL     1      -3.117  -0.182  25.552  0.00  0.00    +0.168 C 
ATOM     12  C   UNL     1      -2.894  -1.705  25.563  0.00  0.00    +0.190 C 
ATOM     13  C   UNL     1      -4.777  -0.577  23.731  0.00  0.00    +0.136 C 
ATOM     15  C   UNL     1      -4.537  -2.068  23.914  0.00  0.00    +0.179 C 
ATOM     16  C   UNL     1      -5.178   1.204  25.490  0.00  0.00    +0.242 C 
BRANCH  16  18
ATOM     18  C   UNL     1      -6.440   1.577  24.753  0.00  0.00    +0.255 C 
BRANCH  18   6
ATOM      6  O   UNL     1      -6.672   2.940  25.016  0.00  0.00    -0.374 OA
ATOM     26  C   UNL     1      -5.456   3.679  25.119  0.00  0.00    +0.194 C 
ENDBRANCH  18   6
ENDBRANCH  16  18
ENDBRANCH  14  11
BRANCH  17  20
ATOM     20  C   UNL     1       1.344   0.770  23.595  0.00  0.00    +0.000 A 
ATOM     21  C   UNL     1       1.783  -0.538  23.387  0.00  0.00    +0.013 A 
ATOM     22  C   UNL     1       2.203   1.841  23.347  0.00  0.00    +0.013 A 
ATOM     23  C   UNL     1       3.080  -0.774  22.930  0.00  0.00    +0.046 A 
ATOM     24  C   UNL     1       3.500   1.605  22.892  0.00  0.00    +0.046 A 
ATOM     25  C   UNL     1       3.938   0.298  22.683  0.00  0.00    +0.130 A 
BRANCH  25   7
ATOM      7  O   UNL     1       5.203   0.068  22.235  0.00  0.00    -0.406 OA
BRANCH   7  27
ATOM      1  F   UNL     1       7.387  -0.513  22.583  0.00  0.00    -0.133 F 
ATOM      2  F   UNL     1       6.326   0.635  24.109  0.00  0.00    -0.133 F 
ATOM      3  F   UNL     1       5.819  -1.470  23.812  0.00  0.00    -0.133 F 
ATOM     27  C   UNL     1       6.189  -0.336  23.178  0.00  0.00    +0.575 C 
ENDBRANCH   7  27
ENDBRANCH  25   7
ENDBRANCH  17  20
TORSDOF 6
ENDMDL
