MODEL 1
REMARK VINA RESULT:      -4.7      0.000      0.000
REMARK  Name = 38027996
REMARK  10 active torsions:
REMARK  status: ('A' for Active; 'I' for Inactive)
REMARK    1  A    between atoms: N_4  and  C_14
REMARK    2  A    between atoms: N_5  and  C_24
REMARK    3  A    between atoms: C_6  and  C_10
REMARK    4  A    between atoms: C_7  and  C_14
REMARK    5  A    between atoms: C_9  and  C_13
REMARK    6  A    between atoms: C_10  and  C_15
REMARK    7  A    between atoms: C_10  and  C_16
REMARK    8  A    between atoms: C_11  and  C_17
REMARK    9  A    between atoms: C_13  and  C_18
REMARK   10  A    between atoms: C_23  and  C_25
REMARK                            x       y       z     vdW  Elec       q    Type
REMARK                         _______ _______ _______ _____ _____    ______ ____
ROOT
ATOM      6  C   UNL     1      -1.589   0.286  25.002  0.00  0.00    +0.000 C 
ATOM      7  C   UNL     1      -1.006  -1.014  24.395  0.00  0.00    +0.032 C 
ATOM      8  C   UNL     1      -2.748  -0.040  25.957  0.00  0.00    +0.012 C 
ATOM      9  C   UNL     1      -3.886  -0.802  25.252  0.00  0.00    +0.023 C 
ATOM     11  C   UNL     1      -3.360  -1.946  24.410  0.00  0.00    -0.073 C 
ATOM     12  C   UNL     1      -2.068  -2.031  24.048  0.00  0.00    -0.022 C 
ATOM     17  C   UNL     1      -4.346  -3.016  24.031  0.00  0.00    +0.039 C 
ENDROOT
BRANCH   6  10
ATOM     10  C   UNL     1      -0.520   1.096  25.744  0.00  0.00    -0.013 C 
ATOM     15  C   UNL     1       0.297   1.927  24.759  0.00  0.00    +0.007 C 
ATOM     16  C   UNL     1      -1.165   1.988  26.799  0.00  0.00    +0.007 C 
ENDBRANCH   6  10
BRANCH   9  13
ATOM     13  C   UNL     1      -4.748   0.147  24.411  0.00  0.00    +0.103 C 
BRANCH  13  18
ATOM      1  O   UNL     1      -5.901   1.293  26.136  0.00  0.00    -0.276 OA
ATOM      3  N   UNL     1      -4.439   2.557  24.849  0.00  0.00    -0.299 N 
ATOM      5  N   UNL     1      -2.627   4.771  24.690  0.00  0.00    -0.302 NA
ATOM     18  C   UNL     1      -5.087   1.378  25.213  0.00  0.00    +0.216 C 
ATOM     19  C   UNL     1      -4.709   3.794  25.581  0.00  0.00    +0.123 C 
ATOM     20  C   UNL     1      -3.572   2.722  23.679  0.00  0.00    +0.123 C 
ATOM     21  C   UNL     1      -3.417   4.540  25.908  0.00  0.00    +0.103 C 
ATOM     22  C   UNL     1      -2.301   3.494  24.039  0.00  0.00    +0.103 C 
ATOM     24  C   UNL     1      -1.406   5.514  25.003  0.00  0.00    +0.105 C 
ENDBRANCH  13  18
ENDBRANCH   9  13
BRANCH   7  14
ATOM     14  C   UNL     1      -0.160  -0.714  23.153  0.00  0.00    +0.112 C 
BRANCH  14   4
ATOM      2  O   UNL     1       2.021  -0.222  21.352  0.00  0.00    -0.270 OA
ATOM      4  N   UNL     1       1.221  -0.590  23.499  0.00  0.00    -0.311 N 
ATOM     23  C   UNL     1       2.222  -0.349  22.557  0.00  0.00    +0.244 C 
ATOM     31  H   UNL     1       1.454  -0.591  24.487  0.00  0.00    +0.149 HD
BRANCH  23  25
ATOM     25  C   UNL     1       3.611  -0.273  23.074  0.00  0.00    +0.037 A 
ATOM     26  C   UNL     1       4.333   0.916  22.964  0.00  0.00    +0.013 A 
ATOM     27  C   UNL     1       4.195  -1.390  23.673  0.00  0.00    +0.013 A 
ATOM     28  C   UNL     1       5.637   0.988  23.452  0.00  0.00    +0.001 A 
ATOM     29  C   UNL     1       5.500  -1.318  24.160  0.00  0.00    +0.001 A 
ATOM     30  C   UNL     1       6.221  -0.129  24.049  0.00  0.00    +0.000 A 
ENDBRANCH  23  25
ENDBRANCH  14   4
ENDBRANCH   7  14
TORSDOF 6
ENDMDL
