MODEL 1
REMARK VINA RESULT:      -2.5      0.000      0.000
REMARK  Name = 40777056
REMARK  10 active torsions:
REMARK  status: ('A' for Active; 'I' for Inactive)
REMARK    1  A    between atoms: S_2  and  C_24
REMARK    2  A    between atoms: S_2  and  C_29
REMARK    3  A    between atoms: O_4  and  C_30
REMARK    4  A    between atoms: N_7  and  C_17
REMARK    5  A    between atoms: C_11  and  C_18
REMARK    6  A    between atoms: C_12  and  C_17
REMARK    7  A    between atoms: C_20  and  C_23
REMARK    8  A    between atoms: C_21  and  C_24
REMARK    9  A    between atoms: C_22  and  C_25
REMARK   10  A    between atoms: C_29  and  C_30
REMARK                            x       y       z     vdW  Elec       q    Type
REMARK                         _______ _______ _______ _____ _____    ______ ____
ROOT
ATOM      6  N   UNL     1      -1.859  -2.195  23.857  0.00  0.00    -0.297 NA
ATOM     10  C   UNL     1      -3.790  -1.805  25.560  0.00  0.00    +0.002 C 
ATOM     11  C   UNL     1      -3.839  -0.740  24.428  0.00  0.00    +0.055 C 
ATOM     12  C   UNL     1      -1.320  -2.188  25.243  0.00  0.00    +0.074 C 
ATOM     13  C   UNL     1      -2.409  -1.753  26.247  0.00  0.00    +0.024 C 
ATOM     14  C   UNL     1      -3.907  -3.185  24.879  0.00  0.00    +0.019 C 
ATOM     15  C   UNL     1      -2.551  -0.913  23.573  0.00  0.00    +0.094 C 
ATOM     16  C   UNL     1      -2.854  -3.289  23.761  0.00  0.00    +0.085 C 
ENDROOT
BRANCH  11  18
ATOM      8  N   UNL     1      -5.315   1.016  25.279  0.00  0.00    -0.237 NA
ATOM      9  N   UNL     1      -4.582   3.298  25.528  0.00  0.00    -0.232 NA
ATOM     18  C   UNL     1      -4.085   0.710  24.817  0.00  0.00    +0.050 A 
ATOM     19  C   UNL     1      -3.065   1.631  24.682  0.00  0.00    +0.052 A 
ATOM     20  C   UNL     1      -3.374   2.923  25.058  0.00  0.00    +0.081 A 
ATOM     22  C   UNL     1      -5.492   2.309  25.611  0.00  0.00    +0.127 A 
ATOM     25  C   UNL     1      -6.840   2.685  26.128  0.00  0.00    +0.088 C 
BRANCH  20  23
ATOM      1  S   UNL     1      -0.814   3.608  24.457  0.00  0.00    -0.095 S 
ATOM     23  C   UNL     1      -2.405   3.982  24.969  0.00  0.00    +0.038 A 
ATOM     26  C   UNL     1      -2.557   5.324  25.243  0.00  0.00    +0.017 A 
ATOM     27  C   UNL     1      -1.353   6.053  25.030  0.00  0.00    +0.008 A 
ATOM     28  C   UNL     1      -0.325   5.243  24.602  0.00  0.00    +0.046 A 
ENDBRANCH  20  23
ENDBRANCH  11  18
BRANCH  12  17
ATOM     17  C   UNL     1      -0.055  -1.339  25.371  0.00  0.00    +0.123 C 
BRANCH  17   7
ATOM      3  O   UNL     1       0.464   1.030  23.791  0.00  0.00    -0.275 OA
ATOM      7  N   UNL     1       0.639  -1.265  24.122  0.00  0.00    -0.313 N 
ATOM     21  C   UNL     1       0.847  -0.078  23.421  0.00  0.00    +0.223 C 
ATOM     31  H   UNL     1       0.987  -2.134  23.728  0.00  0.00    +0.149 HD
BRANCH  21  24
ATOM     24  C   UNL     1       1.589  -0.270  22.120  0.00  0.00    +0.165 C 
BRANCH  24   2
ATOM      2  S   UNL     1       3.204   0.536  22.242  0.00  0.00    -0.140 S 
BRANCH   2  29
ATOM     29  C   UNL     1       4.019  -0.656  23.331  0.00  0.00    +0.189 C 
BRANCH  29  30
ATOM      5  O   UNL     1       6.383  -0.238  23.128  0.00  0.00    -0.250 OA
ATOM     30  C   UNL     1       5.347  -0.108  23.767  0.00  0.00    +0.315 C 
BRANCH  30   4
ATOM      4  O   UNL     1       5.277   0.564  24.944  0.00  0.00    -0.480 OA
ATOM     32  H   UNL     1       5.677   1.457  24.879  0.00  0.00    +0.295 HD
ENDBRANCH  30   4
ENDBRANCH  29  30
ENDBRANCH   2  29
ENDBRANCH  24   2
ENDBRANCH  21  24
ENDBRANCH  17   7
ENDBRANCH  12  17
TORSDOF 9
ENDMDL
MODEL 2
REMARK VINA RESULT:      -1.4      1.794      4.886
REMARK  Name = 40777056
REMARK  10 active torsions:
REMARK  status: ('A' for Active; 'I' for Inactive)
REMARK    1  A    between atoms: S_2  and  C_24
REMARK    2  A    between atoms: S_2  and  C_29
REMARK    3  A    between atoms: O_4  and  C_30
REMARK    4  A    between atoms: N_7  and  C_17
REMARK    5  A    between atoms: C_11  and  C_18
REMARK    6  A    between atoms: C_12  and  C_17
REMARK    7  A    between atoms: C_20  and  C_23
REMARK    8  A    between atoms: C_21  and  C_24
REMARK    9  A    between atoms: C_22  and  C_25
REMARK   10  A    between atoms: C_29  and  C_30
REMARK                            x       y       z     vdW  Elec       q    Type
REMARK                         _______ _______ _______ _____ _____    ______ ____
ROOT
ATOM      6  N   UNL     1      -0.543   4.334  25.501  0.00  0.00    -0.297 NA
ATOM     10  C   UNL     1      -2.445   4.085  23.739  0.00  0.00    +0.002 C 
ATOM     11  C   UNL     1      -2.988   3.805  25.169  0.00  0.00    +0.055 C 
ATOM     12  C   UNL     1      -0.094   3.455  24.388  0.00  0.00    +0.074 C 
ATOM     13  C   UNL     1      -1.270   3.129  23.444  0.00  0.00    +0.024 C 
ATOM     14  C   UNL     1      -1.872   5.518  23.754  0.00  0.00    +0.019 C 
ATOM     15  C   UNL     1      -1.765   3.773  26.130  0.00  0.00    +0.094 C 
ATOM     16  C   UNL     1      -0.884   5.657  24.926  0.00  0.00    +0.085 C 
ENDROOT
BRANCH  11  18
ATOM      8  N   UNL     1      -5.095   2.849  25.961  0.00  0.00    -0.237 NA
ATOM      9  N   UNL     1      -5.601   0.502  25.747  0.00  0.00    -0.232 NA
ATOM     18  C   UNL     1      -3.909   2.610  25.366  0.00  0.00    +0.050 A 
ATOM     19  C   UNL     1      -3.501   1.361  24.940  0.00  0.00    +0.052 A 
ATOM     20  C   UNL     1      -4.398   0.335  25.158  0.00  0.00    +0.081 A 
ATOM     22  C   UNL     1      -5.881   1.766  26.118  0.00  0.00    +0.127 A 
ATOM     25  C   UNL     1      -7.203   1.991  26.771  0.00  0.00    +0.088 C 
BRANCH  20  23
ATOM      1  S   UNL     1      -3.061  -1.956  25.748  0.00  0.00    -0.095 S 
ATOM     23  C   UNL     1      -4.101  -1.017  24.764  0.00  0.00    +0.038 A 
ATOM     26  C   UNL     1      -4.543  -1.717  23.663  0.00  0.00    +0.017 A 
ATOM     27  C   UNL     1      -4.021  -3.042  23.627  0.00  0.00    +0.008 A 
ATOM     28  C   UNL     1      -3.200  -3.304  24.702  0.00  0.00    +0.046 A 
ENDBRANCH  20  23
ENDBRANCH  11  18
BRANCH  12  17
ATOM     17  C   UNL     1       0.602   2.189  24.892  0.00  0.00    +0.123 C 
BRANCH  17   7
ATOM      3  O   UNL     1      -0.164  -0.435  23.943  0.00  0.00    -0.275 OA
ATOM      7  N   UNL     1       1.179   1.458  23.806  0.00  0.00    -0.313 N 
ATOM     21  C   UNL     1       0.749   0.192  23.411  0.00  0.00    +0.223 C 
ATOM     31  H   UNL     1       1.950   1.892  23.308  0.00  0.00    +0.149 HD
BRANCH  21  24
ATOM     24  C   UNL     1       1.533  -0.374  22.250  0.00  0.00    +0.165 C 
BRANCH  24   2
ATOM      2  S   UNL     1       3.166   0.403  22.212  0.00  0.00    -0.140 S 
BRANCH   2  29
ATOM     29  C   UNL     1       4.021  -0.711  23.351  0.00  0.00    +0.189 C 
BRANCH  29  30
ATOM      5  O   UNL     1       6.368  -0.228  23.096  0.00  0.00    -0.250 OA
ATOM     30  C   UNL     1       5.338  -0.107  23.747  0.00  0.00    +0.315 C 
BRANCH  30   4
ATOM      4  O   UNL     1       5.264   0.603  24.900  0.00  0.00    -0.480 OA
ATOM     32  H   UNL     1       4.824   1.470  24.768  0.00  0.00    +0.295 HD
ENDBRANCH  30   4
ENDBRANCH  29  30
ENDBRANCH   2  29
ENDBRANCH  24   2
ENDBRANCH  21  24
ENDBRANCH  17   7
ENDBRANCH  12  17
TORSDOF 9
ENDMDL
MODEL 3
REMARK VINA RESULT:      -0.5      2.391      3.153
REMARK  Name = 40777056
REMARK  10 active torsions:
REMARK  status: ('A' for Active; 'I' for Inactive)
REMARK    1  A    between atoms: S_2  and  C_24
REMARK    2  A    between atoms: S_2  and  C_29
REMARK    3  A    between atoms: O_4  and  C_30
REMARK    4  A    between atoms: N_7  and  C_17
REMARK    5  A    between atoms: C_11  and  C_18
REMARK    6  A    between atoms: C_12  and  C_17
REMARK    7  A    between atoms: C_20  and  C_23
REMARK    8  A    between atoms: C_21  and  C_24
REMARK    9  A    between atoms: C_22  and  C_25
REMARK   10  A    between atoms: C_29  and  C_30
REMARK                            x       y       z     vdW  Elec       q    Type
REMARK                         _______ _______ _______ _____ _____    ______ ____
ROOT
ATOM      6  N   UNL     1      -2.116  -2.107  23.727  0.00  0.00    -0.297 NA
ATOM     10  C   UNL     1      -3.335  -1.559  25.962  0.00  0.00    +0.002 C 
ATOM     11  C   UNL     1      -3.928  -0.717  24.798  0.00  0.00    +0.055 C 
ATOM     12  C   UNL     1      -1.119  -1.818  24.792  0.00  0.00    +0.074 C 
ATOM     13  C   UNL     1      -1.818  -1.291  26.062  0.00  0.00    +0.024 C 
ATOM     14  C   UNL     1      -3.509  -3.042  25.572  0.00  0.00    +0.019 C 
ATOM     15  C   UNL     1      -3.025  -0.947  23.552  0.00  0.00    +0.094 C 
ATOM     16  C   UNL     1      -2.926  -3.268  24.166  0.00  0.00    +0.085 C 
ENDROOT
BRANCH  11  18
ATOM      8  N   UNL     1      -5.442   1.082  25.476  0.00  0.00    -0.237 NA
ATOM      9  N   UNL     1      -4.756   3.392  25.508  0.00  0.00    -0.232 NA
ATOM     18  C   UNL     1      -4.204   0.759  25.047  0.00  0.00    +0.050 A 
ATOM     19  C   UNL     1      -3.202   1.683  24.827  0.00  0.00    +0.052 A 
ATOM     20  C   UNL     1      -3.539   2.998  25.078  0.00  0.00    +0.081 A 
ATOM     22  C   UNL     1      -5.646   2.396  25.683  0.00  0.00    +0.127 A 
ATOM     25  C   UNL     1      -7.003   2.793  26.159  0.00  0.00    +0.088 C 
BRANCH  20  23
ATOM      1  S   UNL     1      -1.441   3.936  23.628  0.00  0.00    -0.095 S 
ATOM     23  C   UNL     1      -2.591   4.064  24.891  0.00  0.00    +0.038 A 
ATOM     26  C   UNL     1      -2.450   5.235  25.601  0.00  0.00    +0.017 A 
ATOM     27  C   UNL     1      -1.384   6.039  25.103  0.00  0.00    +0.008 A 
ATOM     28  C   UNL     1      -0.751   5.451  24.030  0.00  0.00    +0.046 A 
ENDBRANCH  20  23
ENDBRANCH  11  18
BRANCH  12  17
ATOM     17  C   UNL     1      -0.015  -0.873  24.314  0.00  0.00    +0.123 C 
BRANCH  17   7
ATOM      3  O   UNL     1       1.524   1.516  23.767  0.00  0.00    -0.275 OA
ATOM      7  N   UNL     1      -0.075   0.375  25.011  0.00  0.00    -0.313 N 
ATOM     21  C   UNL     1       0.705   1.482  24.683  0.00  0.00    +0.223 C 
ATOM     31  H   UNL     1      -0.719   0.443  25.794  0.00  0.00    +0.149 HD
BRANCH  21  24
ATOM     24  C   UNL     1       0.469   2.672  25.582  0.00  0.00    +0.165 C 
BRANCH  24   2
ATOM      2  S   UNL     1       0.091   2.080  27.250  0.00  0.00    -0.140 S 
BRANCH   2  29
ATOM     29  C   UNL     1       1.564   2.701  28.096  0.00  0.00    +0.189 C 
BRANCH  29  30
ATOM      5  O   UNL     1       0.674   2.921  30.324  0.00  0.00    -0.250 OA
ATOM     30  C   UNL     1       1.468   2.386  29.561  0.00  0.00    +0.315 C 
BRANCH  30   4
ATOM      4  O   UNL     1       2.349   1.430  29.951  0.00  0.00    -0.480 OA
ATOM     32  H   UNL     1       2.167   0.568  29.520  0.00  0.00    +0.295 HD
ENDBRANCH  30   4
ENDBRANCH  29  30
ENDBRANCH   2  29
ENDBRANCH  24   2
ENDBRANCH  21  24
ENDBRANCH  17   7
ENDBRANCH  12  17
TORSDOF 9
ENDMDL
MODEL 4
REMARK VINA RESULT:       0.0      2.500      5.637
REMARK  Name = 40777056
REMARK  10 active torsions:
REMARK  status: ('A' for Active; 'I' for Inactive)
REMARK    1  A    between atoms: S_2  and  C_24
REMARK    2  A    between atoms: S_2  and  C_29
REMARK    3  A    between atoms: O_4  and  C_30
REMARK    4  A    between atoms: N_7  and  C_17
REMARK    5  A    between atoms: C_11  and  C_18
REMARK    6  A    between atoms: C_12  and  C_17
REMARK    7  A    between atoms: C_20  and  C_23
REMARK    8  A    between atoms: C_21  and  C_24
REMARK    9  A    between atoms: C_22  and  C_25
REMARK   10  A    between atoms: C_29  and  C_30
REMARK                            x       y       z     vdW  Elec       q    Type
REMARK                         _______ _______ _______ _____ _____    ______ ____
ROOT
ATOM      6  N   UNL     1      -4.063   3.525  25.737  0.00  0.00    -0.297 NA
ATOM     10  C   UNL     1      -4.923   1.582  24.231  0.00  0.00    +0.002 C 
ATOM     11  C   UNL     1      -3.880   1.055  25.257  0.00  0.00    +0.055 C 
ATOM     12  C   UNL     1      -3.979   3.917  24.304  0.00  0.00    +0.074 C 
ATOM     13  C   UNL     1      -4.286   2.710  23.392  0.00  0.00    +0.024 C 
ATOM     14  C   UNL     1      -6.070   2.214  25.048  0.00  0.00    +0.019 C 
ATOM     15  C   UNL     1      -3.270   2.293  25.975  0.00  0.00    +0.094 C 
ATOM     16  C   UNL     1      -5.482   3.229  26.045  0.00  0.00    +0.085 C 
ENDROOT
BRANCH  11  18
ATOM      8  N   UNL     1      -3.115  -1.225  24.811  0.00  0.00    -0.237 NA
ATOM      9  N   UNL     1      -0.935  -1.691  23.894  0.00  0.00    -0.232 NA
ATOM     18  C   UNL     1      -2.813   0.089  24.764  0.00  0.00    +0.050 A 
ATOM     19  C   UNL     1      -1.609   0.584  24.303  0.00  0.00    +0.052 A 
ATOM     20  C   UNL     1      -0.700  -0.362  23.876  0.00  0.00    +0.081 A 
ATOM     22  C   UNL     1      -2.145  -2.047  24.367  0.00  0.00    +0.127 A 
ATOM     25  C   UNL     1      -2.442  -3.508  24.402  0.00  0.00    +0.088 C 
BRANCH  20  23
ATOM      1  S   UNL     1       1.176  -0.733  21.945  0.00  0.00    -0.095 S 
ATOM     23  C   UNL     1       0.594   0.015  23.371  0.00  0.00    +0.038 A 
ATOM     26  C   UNL     1       1.490   0.932  23.877  0.00  0.00    +0.017 A 
ATOM     27  C   UNL     1       2.669   1.021  23.083  0.00  0.00    +0.008 A 
ATOM     28  C   UNL     1       2.631   0.169  22.001  0.00  0.00    +0.046 A 
ENDBRANCH  20  23
ENDBRANCH  11  18
BRANCH  12  17
ATOM     17  C   UNL     1      -2.640   4.568  23.957  0.00  0.00    +0.123 C 
BRANCH  17   7
ATOM      3  O   UNL     1       0.047   3.498  23.840  0.00  0.00    -0.275 OA
ATOM      7  N   UNL     1      -1.712   4.436  25.038  0.00  0.00    -0.313 N 
ATOM     21  C   UNL     1      -0.430   3.907  24.896  0.00  0.00    +0.223 C 
ATOM     31  H   UNL     1      -2.019   4.739  25.957  0.00  0.00    +0.149 HD
BRANCH  21  24
ATOM     24  C   UNL     1       0.346   3.858  26.191  0.00  0.00    +0.165 C 
BRANCH  24   2
ATOM      2  S   UNL     1       0.194   2.202  26.903  0.00  0.00    -0.140 S 
BRANCH   2  29
ATOM     29  C   UNL     1       0.443   2.632  28.642  0.00  0.00    +0.189 C 
BRANCH  29  30
ATOM      5  O   UNL     1       2.812   3.027  28.438  0.00  0.00    -0.250 OA
ATOM     30  C   UNL     1       1.890   2.448  28.999  0.00  0.00    +0.315 C 
BRANCH  30   4
ATOM      4  O   UNL     1       2.071   1.580  30.026  0.00  0.00    -0.480 OA
ATOM     32  H   UNL     1       1.916   2.005  30.896  0.00  0.00    +0.295 HD
ENDBRANCH  30   4
ENDBRANCH  29  30
ENDBRANCH   2  29
ENDBRANCH  24   2
ENDBRANCH  21  24
ENDBRANCH  17   7
ENDBRANCH  12  17
TORSDOF 9
ENDMDL
MODEL 5
REMARK VINA RESULT:       0.4      2.384      5.858
REMARK  Name = 40777056
REMARK  10 active torsions:
REMARK  status: ('A' for Active; 'I' for Inactive)
REMARK    1  A    between atoms: S_2  and  C_24
REMARK    2  A    between atoms: S_2  and  C_29
REMARK    3  A    between atoms: O_4  and  C_30
REMARK    4  A    between atoms: N_7  and  C_17
REMARK    5  A    between atoms: C_11  and  C_18
REMARK    6  A    between atoms: C_12  and  C_17
REMARK    7  A    between atoms: C_20  and  C_23
REMARK    8  A    between atoms: C_21  and  C_24
REMARK    9  A    between atoms: C_22  and  C_25
REMARK   10  A    between atoms: C_29  and  C_30
REMARK                            x       y       z     vdW  Elec       q    Type
REMARK                         _______ _______ _______ _____ _____    ______ ____
ROOT
ATOM      6  N   UNL     1      -3.619  -1.552  25.914  0.00  0.00    -0.297 NA
ATOM     10  C   UNL     1      -2.817  -1.697  23.440  0.00  0.00    +0.002 C 
ATOM     11  C   UNL     1      -1.608  -1.483  24.393  0.00  0.00    +0.055 C 
ATOM     12  C   UNL     1      -4.425  -0.635  25.064  0.00  0.00    +0.074 C 
ATOM     13  C   UNL     1      -3.832  -0.551  23.641  0.00  0.00    +0.024 C 
ATOM     14  C   UNL     1      -3.511  -3.001  23.887  0.00  0.00    +0.019 C 
ATOM     15  C   UNL     1      -2.180  -1.206  25.813  0.00  0.00    +0.094 C 
ATOM     16  C   UNL     1      -3.802  -2.929  25.397  0.00  0.00    +0.085 C 
ENDROOT
BRANCH  11  18
ATOM      8  N   UNL     1      -0.974   0.779  23.709  0.00  0.00    -0.237 NA
ATOM      9  N   UNL     1       1.314   1.389  23.259  0.00  0.00    -0.232 NA
ATOM     18  C   UNL     1      -0.546  -0.470  23.990  0.00  0.00    +0.050 A 
ATOM     19  C   UNL     1       0.777  -0.860  23.927  0.00  0.00    +0.052 A 
ATOM     20  C   UNL     1       1.671   0.122  23.553  0.00  0.00    +0.081 A 
ATOM     22  C   UNL     1      -0.006   1.645  23.356  0.00  0.00    +0.127 A 
ATOM     25  C   UNL     1      -0.439   3.036  23.039  0.00  0.00    +0.088 C 
BRANCH  20  23
ATOM      1  S   UNL     1       4.094   1.022  22.716  0.00  0.00    -0.095 S 
ATOM     23  C   UNL     1       3.080  -0.148  23.447  0.00  0.00    +0.038 A 
ATOM     26  C   UNL     1       3.786  -1.256  23.862  0.00  0.00    +0.017 A 
ATOM     27  C   UNL     1       5.177  -1.143  23.576  0.00  0.00    +0.008 A 
ATOM     28  C   UNL     1       5.482   0.047  22.953  0.00  0.00    +0.046 A 
ENDBRANCH  20  23
ENDBRANCH  11  18
BRANCH  12  17
ATOM     17  C   UNL     1      -4.590   0.748  25.695  0.00  0.00    +0.123 C 
BRANCH  17   7
ATOM      3  O   UNL     1      -5.013   3.610  25.625  0.00  0.00    -0.275 OA
ATOM      7  N   UNL     1      -3.806   1.723  25.001  0.00  0.00    -0.313 N 
ATOM     21  C   UNL     1      -4.080   3.090  25.019  0.00  0.00    +0.223 C 
ATOM     31  H   UNL     1      -3.014   1.388  24.461  0.00  0.00    +0.149 HD
BRANCH  21  24
ATOM     24  C   UNL     1      -3.115   3.906  24.191  0.00  0.00    +0.165 C 
BRANCH  24   2
ATOM      2  S   UNL     1      -1.899   4.669  25.292  0.00  0.00    -0.140 S 
BRANCH   2  29
ATOM     29  C   UNL     1      -1.763   3.337  26.507  0.00  0.00    +0.189 C 
BRANCH  29  30
ATOM      5  O   UNL     1       0.628   3.367  26.207  0.00  0.00    -0.250 OA
ATOM     30  C   UNL     1      -0.392   2.728  26.430  0.00  0.00    +0.315 C 
BRANCH  30   4
ATOM      4  O   UNL     1      -0.400   1.389  26.650  0.00  0.00    -0.480 OA
ATOM     32  H   UNL     1      -1.311   1.040  26.748  0.00  0.00    +0.295 HD
ENDBRANCH  30   4
ENDBRANCH  29  30
ENDBRANCH   2  29
ENDBRANCH  24   2
ENDBRANCH  21  24
ENDBRANCH  17   7
ENDBRANCH  12  17
TORSDOF 9
ENDMDL
MODEL 6
REMARK VINA RESULT:       0.6      3.051      5.724
REMARK  Name = 40777056
REMARK  10 active torsions:
REMARK  status: ('A' for Active; 'I' for Inactive)
REMARK    1  A    between atoms: S_2  and  C_24
REMARK    2  A    between atoms: S_2  and  C_29
REMARK    3  A    between atoms: O_4  and  C_30
REMARK    4  A    between atoms: N_7  and  C_17
REMARK    5  A    between atoms: C_11  and  C_18
REMARK    6  A    between atoms: C_12  and  C_17
REMARK    7  A    between atoms: C_20  and  C_23
REMARK    8  A    between atoms: C_21  and  C_24
REMARK    9  A    between atoms: C_22  and  C_25
REMARK   10  A    between atoms: C_29  and  C_30
REMARK                            x       y       z     vdW  Elec       q    Type
REMARK                         _______ _______ _______ _____ _____    ______ ____
ROOT
ATOM      6  N   UNL     1      -3.164  -2.168  26.144  0.00  0.00    -0.297 NA
ATOM     10  C   UNL     1      -2.448  -1.941  23.650  0.00  0.00    +0.002 C 
ATOM     11  C   UNL     1      -1.260  -1.594  24.591  0.00  0.00    +0.055 C 
ATOM     12  C   UNL     1      -4.155  -1.343  25.404  0.00  0.00    +0.074 C 
ATOM     13  C   UNL     1      -3.645  -1.024  23.983  0.00  0.00    +0.024 C 
ATOM     14  C   UNL     1      -2.876  -3.385  23.987  0.00  0.00    +0.019 C 
ATOM     15  C   UNL     1      -1.816  -1.555  26.043  0.00  0.00    +0.094 C 
ATOM     16  C   UNL     1      -3.114  -3.503  25.503  0.00  0.00    +0.085 C 
ENDROOT
BRANCH  11  18
ATOM      8  N   UNL     1       0.773  -0.595  23.667  0.00  0.00    -0.237 NA
ATOM      9  N   UNL     1       1.139   1.787  23.650  0.00  0.00    -0.232 NA
ATOM     18  C   UNL     1      -0.417  -0.371  24.262  0.00  0.00    +0.050 A 
ATOM     19  C   UNL     1      -0.892   0.886  24.579  0.00  0.00    +0.052 A 
ATOM     20  C   UNL     1      -0.063   1.938  24.246  0.00  0.00    +0.081 A 
ATOM     22  C   UNL     1       1.489   0.512  23.393  0.00  0.00    +0.127 A 
ATOM     25  C   UNL     1       2.810   0.304  22.734  0.00  0.00    +0.088 C 
BRANCH  20  23
ATOM      1  S   UNL     1      -1.464   3.627  25.848  0.00  0.00    -0.095 S 
ATOM     23  C   UNL     1      -0.433   3.301  24.520  0.00  0.00    +0.038 A 
ATOM     26  C   UNL     1      -0.073   4.450  23.851  0.00  0.00    +0.017 A 
ATOM     27  C   UNL     1      -0.650   5.613  24.436  0.00  0.00    +0.008 A 
ATOM     28  C   UNL     1      -1.431   5.310  25.530  0.00  0.00    +0.046 A 
ENDBRANCH  20  23
ENDBRANCH  11  18
BRANCH  12  17
ATOM     17  C   UNL     1      -4.543  -0.076  26.168  0.00  0.00    +0.123 C 
BRANCH  17   7
ATOM      3  O   UNL     1      -6.216   2.242  26.626  0.00  0.00    -0.275 OA
ATOM      7  N   UNL     1      -4.786   1.009  25.267  0.00  0.00    -0.313 N 
ATOM     21  C   UNL     1      -5.610   2.093  25.567  0.00  0.00    +0.223 C 
ATOM     31  H   UNL     1      -4.335   0.972  24.358  0.00  0.00    +0.149 HD
BRANCH  21  24
ATOM     24  C   UNL     1      -5.717   3.095  24.441  0.00  0.00    +0.165 C 
BRANCH  24   2
ATOM      2  S   UNL     1      -4.097   3.856  24.179  0.00  0.00    -0.140 S 
BRANCH   2  29
ATOM     29  C   UNL     1      -3.943   3.554  22.403  0.00  0.00    +0.189 C 
BRANCH  29  30
ATOM      5  O   UNL     1      -3.145   1.344  22.939  0.00  0.00    -0.250 OA
ATOM     30  C   UNL     1      -3.144   2.302  22.177  0.00  0.00    +0.315 C 
BRANCH  30   4
ATOM      4  O   UNL     1      -2.428   2.337  21.025  0.00  0.00    -0.480 OA
ATOM     32  H   UNL     1      -2.995   2.526  20.247  0.00  0.00    +0.295 HD
ENDBRANCH  30   4
ENDBRANCH  29  30
ENDBRANCH   2  29
ENDBRANCH  24   2
ENDBRANCH  21  24
ENDBRANCH  17   7
ENDBRANCH  12  17
TORSDOF 9
ENDMDL
MODEL 7
REMARK VINA RESULT:       1.2      2.588      5.987
REMARK  Name = 40777056
REMARK  10 active torsions:
REMARK  status: ('A' for Active; 'I' for Inactive)
REMARK    1  A    between atoms: S_2  and  C_24
REMARK    2  A    between atoms: S_2  and  C_29
REMARK    3  A    between atoms: O_4  and  C_30
REMARK    4  A    between atoms: N_7  and  C_17
REMARK    5  A    between atoms: C_11  and  C_18
REMARK    6  A    between atoms: C_12  and  C_17
REMARK    7  A    between atoms: C_20  and  C_23
REMARK    8  A    between atoms: C_21  and  C_24
REMARK    9  A    between atoms: C_22  and  C_25
REMARK   10  A    between atoms: C_29  and  C_30
REMARK                            x       y       z     vdW  Elec       q    Type
REMARK                         _______ _______ _______ _____ _____    ______ ____
ROOT
ATOM      6  N   UNL     1      -5.112   2.920  24.323  0.00  0.00    -0.297 NA
ATOM     10  C   UNL     1      -3.402   4.379  25.638  0.00  0.00    +0.002 C 
ATOM     11  C   UNL     1      -2.685   3.585  24.510  0.00  0.00    +0.055 C 
ATOM     12  C   UNL     1      -5.273   2.698  25.784  0.00  0.00    +0.074 C 
ATOM     13  C   UNL     1      -4.138   3.391  26.568  0.00  0.00    +0.024 C 
ATOM     14  C   UNL     1      -4.480   5.248  24.955  0.00  0.00    +0.019 C 
ATOM     15  C   UNL     1      -3.724   2.595  23.909  0.00  0.00    +0.094 C 
ATOM     16  C   UNL     1      -5.351   4.357  24.051  0.00  0.00    +0.085 C 
ENDROOT
BRANCH  11  18
ATOM      8  N   UNL     1      -0.933   3.000  26.114  0.00  0.00    -0.237 NA
ATOM      9  N   UNL     1       1.003   1.710  25.485  0.00  0.00    -0.232 NA
ATOM     18  C   UNL     1      -1.364   2.907  24.839  0.00  0.00    +0.050 A 
ATOM     19  C   UNL     1      -0.675   2.242  23.843  0.00  0.00    +0.052 A 
ATOM     20  C   UNL     1       0.513   1.657  24.228  0.00  0.00    +0.081 A 
ATOM     22  C   UNL     1       0.240   2.388  26.364  0.00  0.00    +0.127 A 
ATOM     25  C   UNL     1       0.749   2.469  27.763  0.00  0.00    +0.088 C 
BRANCH  20  23
ATOM      1  S   UNL     1       3.008   1.275  23.221  0.00  0.00    -0.095 S 
ATOM     23  C   UNL     1       1.331   0.933  23.292  0.00  0.00    +0.038 A 
ATOM     26  C   UNL     1       0.965  -0.045  22.393  0.00  0.00    +0.017 A 
ATOM     27  C   UNL     1       2.075  -0.519  21.637  0.00  0.00    +0.008 A 
ATOM     28  C   UNL     1       3.248   0.114  21.986  0.00  0.00    +0.046 A 
ENDBRANCH  20  23
ENDBRANCH  11  18
BRANCH  12  17
ATOM     17  C   UNL     1      -5.388   1.215  26.139  0.00  0.00    +0.123 C 
BRANCH  17   7
ATOM      3  O   UNL     1      -3.677  -1.116  26.271  0.00  0.00    -0.275 OA
ATOM      7  N   UNL     1      -4.954   0.395  25.049  0.00  0.00    -0.313 N 
ATOM     21  C   UNL     1      -4.126  -0.716  25.199  0.00  0.00    +0.223 C 
ATOM     31  H   UNL     1      -5.267   0.652  24.117  0.00  0.00    +0.149 HD
BRANCH  21  24
ATOM     24  C   UNL     1      -3.798  -1.402  23.893  0.00  0.00    +0.165 C 
BRANCH  24   2
ATOM      2  S   UNL     1      -2.618  -2.734  24.211  0.00  0.00    -0.140 S 
BRANCH   2  29
ATOM     29  C   UNL     1      -1.090  -1.774  24.099  0.00  0.00    +0.189 C 
BRANCH  29  30
ATOM      5  O   UNL     1       0.475  -2.536  25.765  0.00  0.00    -0.250 OA
ATOM     30  C   UNL     1      -0.410  -1.757  25.438  0.00  0.00    +0.315 C 
BRANCH  30   4
ATOM      4  O   UNL     1      -0.873  -0.772  26.249  0.00  0.00    -0.480 OA
ATOM     32  H   UNL     1      -0.188  -0.467  26.881  0.00  0.00    +0.295 HD
ENDBRANCH  30   4
ENDBRANCH  29  30
ENDBRANCH   2  29
ENDBRANCH  24   2
ENDBRANCH  21  24
ENDBRANCH  17   7
ENDBRANCH  12  17
TORSDOF 9
ENDMDL
MODEL 8
REMARK VINA RESULT:       1.2      2.707      5.924
REMARK  Name = 40777056
REMARK  10 active torsions:
REMARK  status: ('A' for Active; 'I' for Inactive)
REMARK    1  A    between atoms: S_2  and  C_24
REMARK    2  A    between atoms: S_2  and  C_29
REMARK    3  A    between atoms: O_4  and  C_30
REMARK    4  A    between atoms: N_7  and  C_17
REMARK    5  A    between atoms: C_11  and  C_18
REMARK    6  A    between atoms: C_12  and  C_17
REMARK    7  A    between atoms: C_20  and  C_23
REMARK    8  A    between atoms: C_21  and  C_24
REMARK    9  A    between atoms: C_22  and  C_25
REMARK   10  A    between atoms: C_29  and  C_30
REMARK                            x       y       z     vdW  Elec       q    Type
REMARK                         _______ _______ _______ _____ _____    ______ ____
ROOT
ATOM      6  N   UNL     1      -4.032  -1.624  25.946  0.00  0.00    -0.297 NA
ATOM     10  C   UNL     1      -2.698  -1.546  23.710  0.00  0.00    +0.002 C 
ATOM     11  C   UNL     1      -1.752  -1.293  24.917  0.00  0.00    +0.055 C 
ATOM     12  C   UNL     1      -4.715  -0.726  24.978  0.00  0.00    +0.074 C 
ATOM     13  C   UNL     1      -3.836  -0.504  23.728  0.00  0.00    +0.024 C 
ATOM     14  C   UNL     1      -3.346  -2.929  23.934  0.00  0.00    +0.019 C 
ATOM     15  C   UNL     1      -2.644  -1.155  26.184  0.00  0.00    +0.094 C 
ATOM     16  C   UNL     1      -3.965  -2.977  25.342  0.00  0.00    +0.085 C 
ENDROOT
BRANCH  11  18
ATOM      8  N   UNL     1      -0.973   0.946  25.519  0.00  0.00    -0.237 NA
ATOM      9  N   UNL     1       1.071   1.873  24.641  0.00  0.00    -0.232 NA
ATOM     18  C   UNL     1      -0.729  -0.172  24.805  0.00  0.00    +0.050 A 
ATOM     19  C   UNL     1       0.377  -0.340  23.996  0.00  0.00    +0.052 A 
ATOM     20  C   UNL     1       1.252   0.726  23.954  0.00  0.00    +0.081 A 
ATOM     22  C   UNL     1      -0.046   1.915  25.393  0.00  0.00    +0.127 A 
ATOM     25  C   UNL     1      -0.280   3.167  26.168  0.00  0.00    +0.088 C 
BRANCH  20  23
ATOM      1  S   UNL     1       2.414  -0.165  21.665  0.00  0.00    -0.095 S 
ATOM     23  C   UNL     1       2.445   0.686  23.151  0.00  0.00    +0.038 A 
ATOM     26  C   UNL     1       3.677   1.252  23.396  0.00  0.00    +0.017 A 
ATOM     27  C   UNL     1       4.607   0.984  22.351  0.00  0.00    +0.008 A 
ATOM     28  C   UNL     1       4.052   0.223  21.347  0.00  0.00    +0.046 A 
ENDBRANCH  20  23
ENDBRANCH  11  18
BRANCH  12  17
ATOM     17  C   UNL     1      -5.145   0.596  25.615  0.00  0.00    +0.123 C 
BRANCH  17   7
ATOM      3  O   UNL     1      -5.442   3.438  26.077  0.00  0.00    -0.275 OA
ATOM      7  N   UNL     1      -4.175   1.620  25.371  0.00  0.00    -0.313 N 
ATOM     21  C   UNL     1      -4.399   2.972  25.622  0.00  0.00    +0.223 C 
ATOM     31  H   UNL     1      -3.281   1.334  24.984  0.00  0.00    +0.149 HD
BRANCH  21  24
ATOM     24  C   UNL     1      -3.225   3.853  25.262  0.00  0.00    +0.165 C 
BRANCH  24   2
ATOM      2  S   UNL     1      -3.490   4.534  23.607  0.00  0.00    -0.140 S 
BRANCH   2  29
ATOM     29  C   UNL     1      -3.965   3.009  22.760  0.00  0.00    +0.189 C 
BRANCH  29  30
ATOM      5  O   UNL     1      -2.631   2.218  20.916  0.00  0.00    -0.250 OA
ATOM     30  C   UNL     1      -2.753   2.394  22.121  0.00  0.00    +0.315 C 
BRANCH  30   4
ATOM      4  O   UNL     1      -1.794   2.066  23.023  0.00  0.00    -0.480 OA
ATOM     32  H   UNL     1      -0.986   2.610  22.912  0.00  0.00    +0.295 HD
ENDBRANCH  30   4
ENDBRANCH  29  30
ENDBRANCH   2  29
ENDBRANCH  24   2
ENDBRANCH  21  24
ENDBRANCH  17   7
ENDBRANCH  12  17
TORSDOF 9
ENDMDL
MODEL 9
REMARK VINA RESULT:       1.5      2.915      6.969
REMARK  Name = 40777056
REMARK  10 active torsions:
REMARK  status: ('A' for Active; 'I' for Inactive)
REMARK    1  A    between atoms: S_2  and  C_24
REMARK    2  A    between atoms: S_2  and  C_29
REMARK    3  A    between atoms: O_4  and  C_30
REMARK    4  A    between atoms: N_7  and  C_17
REMARK    5  A    between atoms: C_11  and  C_18
REMARK    6  A    between atoms: C_12  and  C_17
REMARK    7  A    between atoms: C_20  and  C_23
REMARK    8  A    between atoms: C_21  and  C_24
REMARK    9  A    between atoms: C_22  and  C_25
REMARK   10  A    between atoms: C_29  and  C_30
REMARK                            x       y       z     vdW  Elec       q    Type
REMARK                         _______ _______ _______ _____ _____    ______ ____
ROOT
ATOM      6  N   UNL     1      -2.882   3.989  24.336  0.00  0.00    -0.297 NA
ATOM     10  C   UNL     1      -0.441   3.821  25.228  0.00  0.00    +0.002 C 
ATOM     11  C   UNL     1      -0.568   3.109  23.852  0.00  0.00    +0.055 C 
ATOM     12  C   UNL     1      -2.887   3.504  25.741  0.00  0.00    +0.074 C 
ATOM     13  C   UNL     1      -1.450   3.201  26.217  0.00  0.00    +0.024 C 
ATOM     14  C   UNL     1      -0.863   5.290  25.009  0.00  0.00    +0.019 C 
ATOM     15  C   UNL     1      -2.079   3.076  23.485  0.00  0.00    +0.094 C 
ATOM     16  C   UNL     1      -2.238   5.324  24.317  0.00  0.00    +0.085 C 
ENDROOT
BRANCH  11  18
ATOM      8  N   UNL     1      -0.718   0.681  23.593  0.00  0.00    -0.237 NA
ATOM      9  N   UNL     1       1.238  -0.710  23.378  0.00  0.00    -0.232 NA
ATOM     18  C   UNL     1       0.098   1.752  23.682  0.00  0.00    +0.050 A 
ATOM     19  C   UNL     1       1.476   1.673  23.629  0.00  0.00    +0.052 A 
ATOM     20  C   UNL     1       1.995   0.404  23.474  0.00  0.00    +0.081 A 
ATOM     22  C   UNL     1      -0.091  -0.501  23.445  0.00  0.00    +0.127 A 
ATOM     25  C   UNL     1      -0.960  -1.708  23.342  0.00  0.00    +0.088 C 
BRANCH  20  23
ATOM      1  S   UNL     1       4.031  -1.352  23.866  0.00  0.00    -0.095 S 
ATOM     23  C   UNL     1       3.414   0.177  23.404  0.00  0.00    +0.038 A 
ATOM     26  C   UNL     1       4.412   1.037  23.003  0.00  0.00    +0.017 A 
ATOM     27  C   UNL     1       5.700   0.434  23.076  0.00  0.00    +0.008 A 
ATOM     28  C   UNL     1       5.638  -0.865  23.530  0.00  0.00    +0.046 A 
ENDBRANCH  20  23
ENDBRANCH  11  18
BRANCH  12  17
ATOM     17  C   UNL     1      -3.818   2.307  25.940  0.00  0.00    +0.123 C 
BRANCH  17   7
ATOM      3  O   UNL     1      -5.700   0.616  24.535  0.00  0.00    -0.275 OA
ATOM      7  N   UNL     1      -3.518   1.266  25.005  0.00  0.00    -0.313 N 
ATOM     21  C   UNL     1      -4.489   0.494  24.370  0.00  0.00    +0.223 C 
ATOM     31  H   UNL     1      -2.538   1.082  24.809  0.00  0.00    +0.149 HD
BRANCH  21  24
ATOM     24  C   UNL     1      -3.914  -0.551  23.443  0.00  0.00    +0.165 C 
BRANCH  24   2
ATOM      2  S   UNL     1      -4.396  -2.190  24.037  0.00  0.00    -0.140 S 
BRANCH   2  29
ATOM     29  C   UNL     1      -2.967  -2.526  25.091  0.00  0.00    +0.189 C 
BRANCH  29  30
ATOM      5  O   UNL     1      -3.814  -1.264  26.961  0.00  0.00    -0.250 OA
ATOM     30  C   UNL     1      -2.898  -1.498  26.184  0.00  0.00    +0.315 C 
BRANCH  30   4
ATOM      4  O   UNL     1      -1.702  -0.859  26.229  0.00  0.00    -0.480 OA
ATOM     32  H   UNL     1      -1.503  -0.517  27.126  0.00  0.00    +0.295 HD
ENDBRANCH  30   4
ENDBRANCH  29  30
ENDBRANCH   2  29
ENDBRANCH  24   2
ENDBRANCH  21  24
ENDBRANCH  17   7
ENDBRANCH  12  17
TORSDOF 9
ENDMDL
