MODEL 1
REMARK VINA RESULT:      -6.3      0.000      0.000
REMARK  Name = 75536674
REMARK  8 active torsions:
REMARK  status: ('A' for Active; 'I' for Inactive)
REMARK    1  A    between atoms: S_1  and  N_7
REMARK    2  A    between atoms: S_1  and  C_15
REMARK    3  A    between atoms: O_3  and  C_9
REMARK    4  A    between atoms: N_6  and  C_8
REMARK    5  A    between atoms: N_6  and  C_13
REMARK    6  A    between atoms: N_6  and  C_14
REMARK    7  A    between atoms: N_7  and  C_12
REMARK    8  A    between atoms: C_10  and  C_12
REMARK                            x       y       z     vdW  Elec       q    Type
REMARK                         _______ _______ _______ _____ _____    ______ ____
ROOT
ATOM      7  N   UNL     1      -3.432   2.503  25.839  0.00  0.00    -0.187 NA
ATOM     22  H   UNL     1      -2.791   1.914  26.386  0.00  0.00    +0.148 HD
ENDROOT
BRANCH   7   1
ATOM      1  S   UNL     1      -4.796   1.773  25.133  0.00  0.00    +0.058 S 
ATOM      4  O   UNL     1      -4.972   2.285  23.787  0.00  0.00    -0.153 OA
ATOM      5  O   UNL     1      -5.896   1.814  26.077  0.00  0.00    -0.153 OA
BRANCH   1  15
ATOM     15  C   UNL     1      -4.283   0.086  25.009  0.00  0.00    +0.105 A 
ATOM     16  C   UNL     1      -4.521  -0.631  23.837  0.00  0.00    +0.028 A 
ATOM     17  C   UNL     1      -3.645  -0.530  26.086  0.00  0.00    +0.028 A 
ATOM     18  C   UNL     1      -4.120  -1.964  23.741  0.00  0.00    +0.002 A 
ATOM     19  C   UNL     1      -3.244  -1.861  25.990  0.00  0.00    +0.002 A 
ATOM     20  C   UNL     1      -3.481  -2.579  24.817  0.00  0.00    +0.000 A 
ENDBRANCH   1  15
ENDBRANCH   7   1
BRANCH   7  12
ATOM     12  C   UNL     1      -2.831   3.701  25.222  0.00  0.00    +0.140 C 
BRANCH  12  10
ATOM      2  O   UNL     1      -0.494   3.131  25.470  0.00  0.00    -0.371 OA
ATOM      8  C   UNL     1      -0.199   1.573  23.701  0.00  0.00    +0.113 C 
ATOM      9  C   UNL     1      -1.653   2.006  23.741  0.00  0.00    +0.164 C 
ATOM     10  C   UNL     1      -1.547   3.318  24.509  0.00  0.00    +0.164 C 
ATOM     11  C   UNL     1       0.273   1.975  25.089  0.00  0.00    +0.181 C 
BRANCH   8   6
ATOM      6  N   UNL     1      -0.020   0.156  23.432  0.00  0.00    -0.301 NA
ATOM     13  C   UNL     1       1.328  -0.110  22.920  0.00  0.00    +0.105 C 
ATOM     14  C   UNL     1      -0.266  -0.638  24.639  0.00  0.00    +0.105 C 
ENDBRANCH   8   6
BRANCH   9   3
ATOM      3  O   UNL     1      -2.202   2.194  22.451  0.00  0.00    -0.388 OA
ATOM     21  H   UNL     1      -1.733   1.611  21.831  0.00  0.00    +0.210 HD
ENDBRANCH   9   3
ENDBRANCH  12  10
ENDBRANCH   7  12
TORSDOF 6
ENDMDL
MODEL 2
REMARK VINA RESULT:      -5.9      2.287      4.290
REMARK  Name = 75536674
REMARK  8 active torsions:
REMARK  status: ('A' for Active; 'I' for Inactive)
REMARK    1  A    between atoms: S_1  and  N_7
REMARK    2  A    between atoms: S_1  and  C_15
REMARK    3  A    between atoms: O_3  and  C_9
REMARK    4  A    between atoms: N_6  and  C_8
REMARK    5  A    between atoms: N_6  and  C_13
REMARK    6  A    between atoms: N_6  and  C_14
REMARK    7  A    between atoms: N_7  and  C_12
REMARK    8  A    between atoms: C_10  and  C_12
REMARK                            x       y       z     vdW  Elec       q    Type
REMARK                         _______ _______ _______ _____ _____    ______ ____
ROOT
ATOM      7  N   UNL     1      -0.881   0.658  25.673  0.00  0.00    -0.187 NA
ATOM     22  H   UNL     1      -1.188   0.605  26.653  0.00  0.00    +0.148 HD
ENDROOT
BRANCH   7   1
ATOM      1  S   UNL     1      -0.488  -0.790  24.870  0.00  0.00    +0.058 S 
ATOM      4  O   UNL     1       0.151  -1.698  25.804  0.00  0.00    -0.153 OA
ATOM      5  O   UNL     1       0.153  -0.471  23.609  0.00  0.00    -0.153 OA
BRANCH   1  15
ATOM     15  C   UNL     1      -2.088  -1.438  24.488  0.00  0.00    +0.105 A 
ATOM     16  C   UNL     1      -2.305  -2.816  24.513  0.00  0.00    +0.028 A 
ATOM     17  C   UNL     1      -3.130  -0.574  24.157  0.00  0.00    +0.028 A 
ATOM     18  C   UNL     1      -3.566  -3.328  24.207  0.00  0.00    +0.002 A 
ATOM     19  C   UNL     1      -4.391  -1.086  23.851  0.00  0.00    +0.002 A 
ATOM     20  C   UNL     1      -4.609  -2.464  23.876  0.00  0.00    +0.000 A 
ENDBRANCH   1  15
ENDBRANCH   7   1
BRANCH   7  12
ATOM     12  C   UNL     1      -0.243   1.925  25.268  0.00  0.00    +0.140 C 
BRANCH  12  10
ATOM      2  O   UNL     1      -1.650   2.310  23.340  0.00  0.00    -0.371 OA
ATOM      8  C   UNL     1      -3.556   3.315  24.341  0.00  0.00    +0.113 C 
ATOM      9  C   UNL     1      -2.566   2.941  25.428  0.00  0.00    +0.164 C 
ATOM     10  C   UNL     1      -1.275   2.833  24.626  0.00  0.00    +0.164 C 
ATOM     11  C   UNL     1      -3.073   2.454  23.185  0.00  0.00    +0.181 C 
BRANCH   8   6
ATOM      6  N   UNL     1      -4.940   3.056  24.699  0.00  0.00    -0.301 NA
ATOM     13  C   UNL     1      -5.055   1.809  25.462  0.00  0.00    +0.105 C 
ATOM     14  C   UNL     1      -5.497   4.171  25.469  0.00  0.00    +0.105 C 
ENDBRANCH   8   6
BRANCH   9   3
ATOM      3  O   UNL     1      -2.474   3.921  26.444  0.00  0.00    -0.388 OA
ATOM     21  H   UNL     1      -1.971   3.545  27.186  0.00  0.00    +0.210 HD
ENDBRANCH   9   3
ENDBRANCH  12  10
ENDBRANCH   7  12
TORSDOF 6
ENDMDL
MODEL 3
REMARK VINA RESULT:      -5.5      2.392      4.053
REMARK  Name = 75536674
REMARK  8 active torsions:
REMARK  status: ('A' for Active; 'I' for Inactive)
REMARK    1  A    between atoms: S_1  and  N_7
REMARK    2  A    between atoms: S_1  and  C_15
REMARK    3  A    between atoms: O_3  and  C_9
REMARK    4  A    between atoms: N_6  and  C_8
REMARK    5  A    between atoms: N_6  and  C_13
REMARK    6  A    between atoms: N_6  and  C_14
REMARK    7  A    between atoms: N_7  and  C_12
REMARK    8  A    between atoms: C_10  and  C_12
REMARK                            x       y       z     vdW  Elec       q    Type
REMARK                         _______ _______ _______ _____ _____    ______ ____
ROOT
ATOM      7  N   UNL     1      -1.972  -0.697  24.242  0.00  0.00    -0.187 NA
ATOM     22  H   UNL     1      -1.843  -0.259  23.321  0.00  0.00    +0.148 HD
ENDROOT
BRANCH   7   1
ATOM      1  S   UNL     1      -3.552  -1.087  24.738  0.00  0.00    +0.058 S 
ATOM      4  O   UNL     1      -3.512  -1.637  26.080  0.00  0.00    -0.153 OA
ATOM      5  O   UNL     1      -4.216  -1.813  23.672  0.00  0.00    -0.153 OA
BRANCH   1  15
ATOM     15  C   UNL     1      -4.309   0.508  24.826  0.00  0.00    +0.105 A 
ATOM     16  C   UNL     1      -3.935   1.507  23.927  0.00  0.00    +0.028 A 
ATOM     17  C   UNL     1      -5.275   0.770  25.796  0.00  0.00    +0.028 A 
ATOM     18  C   UNL     1      -4.528   2.768  24.000  0.00  0.00    +0.002 A 
ATOM     19  C   UNL     1      -5.869   2.029  25.869  0.00  0.00    +0.002 A 
ATOM     20  C   UNL     1      -5.495   3.029  24.970  0.00  0.00    +0.000 A 
ENDBRANCH   1  15
ENDBRANCH   7   1
BRANCH   7  12
ATOM     12  C   UNL     1      -0.935  -0.393  25.247  0.00  0.00    +0.140 C 
BRANCH  12  10
ATOM      2  O   UNL     1      -0.731   1.392  23.629  0.00  0.00    -0.371 OA
ATOM      8  C   UNL     1      -0.394   3.272  25.042  0.00  0.00    +0.113 C 
ATOM      9  C   UNL     1      -0.606   2.039  25.901  0.00  0.00    +0.164 C 
ATOM     10  C   UNL     1      -0.273   0.931  24.911  0.00  0.00    +0.164 C 
ATOM     11  C   UNL     1      -0.960   2.810  23.709  0.00  0.00    +0.181 C 
BRANCH   8   6
ATOM      6  N   UNL     1      -1.054   4.461  25.555  0.00  0.00    -0.301 NA
ATOM     13  C   UNL     1      -1.119   5.504  24.527  0.00  0.00    +0.105 C 
ATOM     14  C   UNL     1      -2.402   4.142  26.035  0.00  0.00    +0.105 C 
ENDBRANCH   8   6
BRANCH   9   3
ATOM      3  O   UNL     1       0.243   2.008  27.032  0.00  0.00    -0.388 OA
ATOM     21  H   UNL     1       1.135   2.272  26.752  0.00  0.00    +0.210 HD
ENDBRANCH   9   3
ENDBRANCH  12  10
ENDBRANCH   7  12
TORSDOF 6
ENDMDL
MODEL 4
REMARK VINA RESULT:      -5.1      2.595      4.152
REMARK  Name = 75536674
REMARK  8 active torsions:
REMARK  status: ('A' for Active; 'I' for Inactive)
REMARK    1  A    between atoms: S_1  and  N_7
REMARK    2  A    between atoms: S_1  and  C_15
REMARK    3  A    between atoms: O_3  and  C_9
REMARK    4  A    between atoms: N_6  and  C_8
REMARK    5  A    between atoms: N_6  and  C_13
REMARK    6  A    between atoms: N_6  and  C_14
REMARK    7  A    between atoms: N_7  and  C_12
REMARK    8  A    between atoms: C_10  and  C_12
REMARK                            x       y       z     vdW  Elec       q    Type
REMARK                         _______ _______ _______ _____ _____    ______ ____
ROOT
ATOM      7  N   UNL     1      -2.414  -1.802  23.632  0.00  0.00    -0.187 NA
ATOM     22  H   UNL     1      -2.229  -1.184  22.831  0.00  0.00    +0.148 HD
ENDROOT
BRANCH   7   1
ATOM      1  S   UNL     1      -3.861  -1.588  24.501  0.00  0.00    +0.058 S 
ATOM      4  O   UNL     1      -3.639  -1.930  25.893  0.00  0.00    -0.153 OA
ATOM      5  O   UNL     1      -4.949  -2.202  23.764  0.00  0.00    -0.153 OA
BRANCH   1  15
ATOM     15  C   UNL     1      -4.090   0.162  24.399  0.00  0.00    +0.105 A 
ATOM     16  C   UNL     1      -4.954   0.804  25.286  0.00  0.00    +0.028 A 
ATOM     17  C   UNL     1      -3.410   0.899  23.430  0.00  0.00    +0.028 A 
ATOM     18  C   UNL     1      -5.138   2.184  25.203  0.00  0.00    +0.002 A 
ATOM     19  C   UNL     1      -3.594   2.279  23.348  0.00  0.00    +0.002 A 
ATOM     20  C   UNL     1      -4.458   2.922  24.235  0.00  0.00    +0.000 A 
ENDBRANCH   1  15
ENDBRANCH   7   1
BRANCH   7  12
ATOM     12  C   UNL     1      -1.223  -2.355  24.304  0.00  0.00    +0.140 C 
BRANCH  12  10
ATOM      2  O   UNL     1       0.246  -0.633  23.453  0.00  0.00    -0.371 OA
ATOM      8  C   UNL     1      -0.018   1.064  25.094  0.00  0.00    +0.113 C 
ATOM      9  C   UNL     1      -0.929  -0.100  25.436  0.00  0.00    +0.164 C 
ATOM     10  C   UNL     1      -0.268  -1.229  24.656  0.00  0.00    +0.164 C 
ATOM     11  C   UNL     1       0.277   0.795  23.627  0.00  0.00    +0.181 C 
BRANCH   8   6
ATOM      6  N   UNL     1      -0.625   2.365  25.318  0.00  0.00    -0.301 NA
ATOM     13  C   UNL     1      -0.165   2.943  26.585  0.00  0.00    +0.105 C 
ATOM     14  C   UNL     1      -0.325   3.278  24.211  0.00  0.00    +0.105 C 
ENDBRANCH   8   6
BRANCH   9   3
ATOM      3  O   UNL     1      -0.971  -0.372  26.823  0.00  0.00    -0.388 OA
ATOM     21  H   UNL     1      -1.513   0.311  27.252  0.00  0.00    +0.210 HD
ENDBRANCH   9   3
ENDBRANCH  12  10
ENDBRANCH   7  12
TORSDOF 6
ENDMDL
MODEL 5
REMARK VINA RESULT:      -5.0      2.346      4.191
REMARK  Name = 75536674
REMARK  8 active torsions:
REMARK  status: ('A' for Active; 'I' for Inactive)
REMARK    1  A    between atoms: S_1  and  N_7
REMARK    2  A    between atoms: S_1  and  C_15
REMARK    3  A    between atoms: O_3  and  C_9
REMARK    4  A    between atoms: N_6  and  C_8
REMARK    5  A    between atoms: N_6  and  C_13
REMARK    6  A    between atoms: N_6  and  C_14
REMARK    7  A    between atoms: N_7  and  C_12
REMARK    8  A    between atoms: C_10  and  C_12
REMARK                            x       y       z     vdW  Elec       q    Type
REMARK                         _______ _______ _______ _____ _____    ______ ____
ROOT
ATOM      7  N   UNL     1      -0.249   0.567  25.555  0.00  0.00    -0.187 NA
ATOM     22  H   UNL     1      -0.169   0.290  26.542  0.00  0.00    +0.148 HD
ENDROOT
BRANCH   7   1
ATOM      1  S   UNL     1      -0.141  -0.644  24.364  0.00  0.00    +0.058 S 
ATOM      4  O   UNL     1       0.640  -1.754  24.877  0.00  0.00    -0.153 OA
ATOM      5  O   UNL     1       0.210  -0.030  23.097  0.00  0.00    -0.153 OA
BRANCH   1  15
ATOM     15  C   UNL     1      -1.822  -1.175  24.234  0.00  0.00    +0.105 A 
ATOM     16  C   UNL     1      -2.808  -0.274  23.835  0.00  0.00    +0.028 A 
ATOM     17  C   UNL     1      -2.162  -2.494  24.535  0.00  0.00    +0.028 A 
ATOM     18  C   UNL     1      -4.136  -0.693  23.737  0.00  0.00    +0.002 A 
ATOM     19  C   UNL     1      -3.488  -2.912  24.437  0.00  0.00    +0.002 A 
ATOM     20  C   UNL     1      -4.476  -2.011  24.037  0.00  0.00    +0.000 A 
ENDBRANCH   1  15
ENDBRANCH   7   1
BRANCH   7  12
ATOM     12  C   UNL     1       0.160   1.950  25.243  0.00  0.00    +0.140 C 
BRANCH  12  10
ATOM      2  O   UNL     1      -0.562   4.255  25.350  0.00  0.00    -0.371 OA
ATOM      8  C   UNL     1      -2.923   4.007  25.421  0.00  0.00    +0.113 C 
ATOM      9  C   UNL     1      -2.286   2.636  25.289  0.00  0.00    +0.164 C 
ATOM     10  C   UNL     1      -0.873   2.921  25.785  0.00  0.00    +0.164 C 
ATOM     11  C   UNL     1      -1.786   4.912  24.976  0.00  0.00    +0.181 C 
BRANCH   8   6
ATOM      6  N   UNL     1      -4.123   4.171  24.618  0.00  0.00    -0.301 NA
ATOM     13  C   UNL     1      -4.068   3.325  23.422  0.00  0.00    +0.105 C 
ATOM     14  C   UNL     1      -5.322   3.858  25.401  0.00  0.00    +0.105 C 
ENDBRANCH   8   6
BRANCH   9   3
ATOM      3  O   UNL     1      -2.932   1.655  26.076  0.00  0.00    -0.388 OA
ATOM     21  H   UNL     1      -3.697   2.067  26.510  0.00  0.00    +0.210 HD
ENDBRANCH   9   3
ENDBRANCH  12  10
ENDBRANCH   7  12
TORSDOF 6
ENDMDL
MODEL 6
REMARK VINA RESULT:      -4.8      2.419      3.706
REMARK  Name = 75536674
REMARK  8 active torsions:
REMARK  status: ('A' for Active; 'I' for Inactive)
REMARK    1  A    between atoms: S_1  and  N_7
REMARK    2  A    between atoms: S_1  and  C_15
REMARK    3  A    between atoms: O_3  and  C_9
REMARK    4  A    between atoms: N_6  and  C_8
REMARK    5  A    between atoms: N_6  and  C_13
REMARK    6  A    between atoms: N_6  and  C_14
REMARK    7  A    between atoms: N_7  and  C_12
REMARK    8  A    between atoms: C_10  and  C_12
REMARK                            x       y       z     vdW  Elec       q    Type
REMARK                         _______ _______ _______ _____ _____    ______ ____
ROOT
ATOM      7  N   UNL     1      -1.069   2.883  24.053  0.00  0.00    -0.187 NA
ATOM     22  H   UNL     1      -1.265   3.044  23.057  0.00  0.00    +0.148 HD
ENDROOT
BRANCH   7   1
ATOM      1  S   UNL     1      -1.906   3.817  25.203  0.00  0.00    +0.058 S 
ATOM      4  O   UNL     1      -2.025   5.180  24.720  0.00  0.00    -0.153 OA
ATOM      5  O   UNL     1      -1.351   3.555  26.518  0.00  0.00    -0.153 OA
BRANCH   1  15
ATOM     15  C   UNL     1      -3.514   3.084  25.165  0.00  0.00    +0.105 A 
ATOM     16  C   UNL     1      -3.693   1.828  24.584  0.00  0.00    +0.028 A 
ATOM     17  C   UNL     1      -4.603   3.762  25.710  0.00  0.00    +0.028 A 
ATOM     18  C   UNL     1      -4.963   1.252  24.549  0.00  0.00    +0.002 A 
ATOM     19  C   UNL     1      -5.872   3.186  25.675  0.00  0.00    +0.002 A 
ATOM     20  C   UNL     1      -6.053   1.929  25.095  0.00  0.00    +0.000 A 
ENDBRANCH   1  15
ENDBRANCH   7   1
BRANCH   7  12
ATOM     12  C   UNL     1       0.273   2.354  24.365  0.00  0.00    +0.140 C 
BRANCH  12  10
ATOM      2  O   UNL     1      -0.525   0.866  26.095  0.00  0.00    -0.371 OA
ATOM      8  C   UNL     1      -1.130  -1.050  24.827  0.00  0.00    +0.113 C 
ATOM      9  C   UNL     1      -0.652   0.038  23.883  0.00  0.00    +0.164 C 
ATOM     10  C   UNL     1       0.157   0.914  24.831  0.00  0.00    +0.164 C 
ATOM     11  C   UNL     1      -1.438  -0.246  26.080  0.00  0.00    +0.181 C 
BRANCH   8   6
ATOM      6  N   UNL     1      -2.281  -1.787  24.332  0.00  0.00    -0.301 NA
ATOM     13  C   UNL     1      -1.901  -3.152  23.954  0.00  0.00    +0.105 C 
ATOM     14  C   UNL     1      -3.349  -1.821  25.336  0.00  0.00    +0.105 C 
ENDBRANCH   8   6
BRANCH   9   3
ATOM      3  O   UNL     1       0.141  -0.467  22.826  0.00  0.00    -0.388 OA
ATOM     21  H   UNL     1       1.031  -0.649  23.172  0.00  0.00    +0.210 HD
ENDBRANCH   9   3
ENDBRANCH  12  10
ENDBRANCH   7  12
TORSDOF 6
ENDMDL
MODEL 7
REMARK VINA RESULT:      -4.7      2.280      3.825
REMARK  Name = 75536674
REMARK  8 active torsions:
REMARK  status: ('A' for Active; 'I' for Inactive)
REMARK    1  A    between atoms: S_1  and  N_7
REMARK    2  A    between atoms: S_1  and  C_15
REMARK    3  A    between atoms: O_3  and  C_9
REMARK    4  A    between atoms: N_6  and  C_8
REMARK    5  A    between atoms: N_6  and  C_13
REMARK    6  A    between atoms: N_6  and  C_14
REMARK    7  A    between atoms: N_7  and  C_12
REMARK    8  A    between atoms: C_10  and  C_12
REMARK                            x       y       z     vdW  Elec       q    Type
REMARK                         _______ _______ _______ _____ _____    ______ ____
ROOT
ATOM      7  N   UNL     1      -4.560   0.481  24.152  0.00  0.00    -0.187 NA
ATOM     22  H   UNL     1      -4.773   0.512  23.147  0.00  0.00    +0.148 HD
ENDROOT
BRANCH   7   1
ATOM      1  S   UNL     1      -3.902  -0.949  24.796  0.00  0.00    +0.058 S 
ATOM      4  O   UNL     1      -4.375  -2.084  24.025  0.00  0.00    -0.153 OA
ATOM      5  O   UNL     1      -4.055  -0.933  26.238  0.00  0.00    -0.153 OA
BRANCH   1  15
ATOM     15  C   UNL     1      -2.179  -0.741  24.457  0.00  0.00    +0.105 A 
ATOM     16  C   UNL     1      -1.268  -1.721  24.849  0.00  0.00    +0.028 A 
ATOM     17  C   UNL     1      -1.731   0.405  23.801  0.00  0.00    +0.028 A 
ATOM     18  C   UNL     1       0.091  -1.555  24.586  0.00  0.00    +0.002 A 
ATOM     19  C   UNL     1      -0.372   0.571  23.537  0.00  0.00    +0.002 A 
ATOM     20  C   UNL     1       0.540  -0.409  23.929  0.00  0.00    +0.000 A 
ENDBRANCH   1  15
ENDBRANCH   7   1
BRANCH   7  12
ATOM     12  C   UNL     1      -5.368   1.373  25.006  0.00  0.00    +0.140 C 
BRANCH  12  10
ATOM      2  O   UNL     1      -4.533   3.228  26.315  0.00  0.00    -0.371 OA
ATOM      8  C   UNL     1      -2.839   4.086  24.888  0.00  0.00    +0.113 C 
ATOM      9  C   UNL     1      -3.449   2.854  24.245  0.00  0.00    +0.164 C 
ATOM     10  C   UNL     1      -4.784   2.775  24.974  0.00  0.00    +0.164 C 
ATOM     11  C   UNL     1      -3.270   3.915  26.336  0.00  0.00    +0.181 C 
BRANCH   8   6
ATOM      6  N   UNL     1      -1.396   4.171  24.734  0.00  0.00    -0.301 NA
ATOM     13  C   UNL     1      -0.939   5.557  24.870  0.00  0.00    +0.105 C 
ATOM     14  C   UNL     1      -0.717   3.318  25.713  0.00  0.00    +0.105 C 
ENDBRANCH   8   6
BRANCH   9   3
ATOM      3  O   UNL     1      -3.618   2.994  22.848  0.00  0.00    -0.388 OA
ATOM     21  H   UNL     1      -2.840   3.452  22.490  0.00  0.00    +0.210 HD
ENDBRANCH   9   3
ENDBRANCH  12  10
ENDBRANCH   7  12
TORSDOF 6
ENDMDL
MODEL 8
REMARK VINA RESULT:      -4.2      2.261      4.181
REMARK  Name = 75536674
REMARK  8 active torsions:
REMARK  status: ('A' for Active; 'I' for Inactive)
REMARK    1  A    between atoms: S_1  and  N_7
REMARK    2  A    between atoms: S_1  and  C_15
REMARK    3  A    between atoms: O_3  and  C_9
REMARK    4  A    between atoms: N_6  and  C_8
REMARK    5  A    between atoms: N_6  and  C_13
REMARK    6  A    between atoms: N_6  and  C_14
REMARK    7  A    between atoms: N_7  and  C_12
REMARK    8  A    between atoms: C_10  and  C_12
REMARK                            x       y       z     vdW  Elec       q    Type
REMARK                         _______ _______ _______ _____ _____    ______ ____
ROOT
ATOM      7  N   UNL     1       0.183  -0.311  24.628  0.00  0.00    -0.187 NA
ATOM     22  H   UNL     1       1.206  -0.224  24.675  0.00  0.00    +0.148 HD
ENDROOT
BRANCH   7   1
ATOM      1  S   UNL     1      -0.593  -1.332  25.747  0.00  0.00    +0.058 S 
ATOM      4  O   UNL     1      -0.773  -0.622  26.999  0.00  0.00    -0.153 OA
ATOM      5  O   UNL     1       0.054  -2.630  25.730  0.00  0.00    -0.153 OA
BRANCH   1  15
ATOM     15  C   UNL     1      -2.185  -1.538  25.005  0.00  0.00    +0.105 A 
ATOM     16  C   UNL     1      -3.130  -0.516  25.089  0.00  0.00    +0.028 A 
ATOM     17  C   UNL     1      -2.497  -2.724  24.342  0.00  0.00    +0.028 A 
ATOM     18  C   UNL     1      -4.388  -0.681  24.508  0.00  0.00    +0.002 A 
ATOM     19  C   UNL     1      -3.754  -2.888  23.761  0.00  0.00    +0.002 A 
ATOM     20  C   UNL     1      -4.700  -1.866  23.844  0.00  0.00    +0.000 A 
ENDBRANCH   1  15
ENDBRANCH   7   1
BRANCH   7  12
ATOM     12  C   UNL     1      -0.421  -0.070  23.304  0.00  0.00    +0.140 C 
BRANCH  12  10
ATOM      2  O   UNL     1      -2.125   1.527  22.676  0.00  0.00    -0.371 OA
ATOM      8  C   UNL     1      -1.698   3.296  24.203  0.00  0.00    +0.113 C 
ATOM      9  C   UNL     1      -0.743   2.153  24.491  0.00  0.00    +0.164 C 
ATOM     10  C   UNL     1      -0.781   1.399  23.168  0.00  0.00    +0.164 C 
ATOM     11  C   UNL     1      -2.775   2.591  23.394  0.00  0.00    +0.181 C 
BRANCH   8   6
ATOM      6  N   UNL     1      -2.219   3.936  25.400  0.00  0.00    -0.301 NA
ATOM     13  C   UNL     1      -1.938   5.375  25.385  0.00  0.00    +0.105 C 
ATOM     14  C   UNL     1      -3.661   3.706  25.528  0.00  0.00    +0.105 C 
ENDBRANCH   8   6
BRANCH   9   3
ATOM      3  O   UNL     1       0.562   2.598  24.807  0.00  0.00    -0.388 OA
ATOM     21  H   UNL     1       1.140   2.411  24.049  0.00  0.00    +0.210 HD
ENDBRANCH   9   3
ENDBRANCH  12  10
ENDBRANCH   7  12
TORSDOF 6
ENDMDL
MODEL 9
REMARK VINA RESULT:      -4.2     14.537     16.715
REMARK  Name = 75536674
REMARK  8 active torsions:
REMARK  status: ('A' for Active; 'I' for Inactive)
REMARK    1  A    between atoms: S_1  and  N_7
REMARK    2  A    between atoms: S_1  and  C_15
REMARK    3  A    between atoms: O_3  and  C_9
REMARK    4  A    between atoms: N_6  and  C_8
REMARK    5  A    between atoms: N_6  and  C_13
REMARK    6  A    between atoms: N_6  and  C_14
REMARK    7  A    between atoms: N_7  and  C_12
REMARK    8  A    between atoms: C_10  and  C_12
REMARK                            x       y       z     vdW  Elec       q    Type
REMARK                         _______ _______ _______ _____ _____    ______ ____
ROOT
ATOM      7  N   UNL     1      -6.673  -8.982  12.398  0.00  0.00    -0.187 NA
ATOM     22  H   UNL     1      -6.457  -8.037  12.739  0.00  0.00    +0.148 HD
ENDROOT
BRANCH   7   1
ATOM      1  S   UNL     1      -6.045  -9.462  10.892  0.00  0.00    +0.058 S 
ATOM      4  O   UNL     1      -6.158  -8.362   9.952  0.00  0.00    -0.153 OA
ATOM      5  O   UNL     1      -6.576 -10.768  10.553  0.00  0.00    -0.153 OA
BRANCH   1  15
ATOM     15  C   UNL     1      -4.331  -9.682  11.267  0.00  0.00    +0.105 A 
ATOM     16  C   UNL     1      -3.954 -10.387  12.410  0.00  0.00    +0.028 A 
ATOM     17  C   UNL     1      -3.358  -9.147  10.424  0.00  0.00    +0.028 A 
ATOM     18  C   UNL     1      -2.602 -10.557  12.708  0.00  0.00    +0.002 A 
ATOM     19  C   UNL     1      -2.007  -9.317  10.722  0.00  0.00    +0.002 A 
ATOM     20  C   UNL     1      -1.628 -10.023  11.865  0.00  0.00    +0.000 A 
ENDBRANCH   1  15
ENDBRANCH   7   1
BRANCH   7  12
ATOM     12  C   UNL     1      -7.932  -9.570  12.896  0.00  0.00    +0.140 C 
BRANCH  12  10
ATOM      2  O   UNL     1      -6.432  -9.805  14.778  0.00  0.00    -0.371 OA
ATOM      8  C   UNL     1      -7.963 -10.168  16.558  0.00  0.00    +0.113 C 
ATOM      9  C   UNL     1      -8.741  -9.935  15.276  0.00  0.00    +0.164 C 
ATOM     10  C   UNL     1      -7.682 -10.253  14.229  0.00  0.00    +0.164 C 
ATOM     11  C   UNL     1      -6.602  -9.598  16.192  0.00  0.00    +0.181 C 
BRANCH   8   6
ATOM      6  N   UNL     1      -8.551  -9.524  17.722  0.00  0.00    -0.301 NA
ATOM     13  C   UNL     1      -9.393  -8.392  17.320  0.00  0.00    +0.105 C 
ATOM     14  C   UNL     1      -9.335 -10.482  18.506  0.00  0.00    +0.105 C 
ENDBRANCH   8   6
BRANCH   9   3
ATOM      3  O   UNL     1      -9.869 -10.781  15.160  0.00  0.00    -0.388 OA
ATOM     21  H   UNL     1      -9.841 -11.209  14.288  0.00  0.00    +0.210 HD
ENDBRANCH   9   3
ENDBRANCH  12  10
ENDBRANCH   7  12
TORSDOF 6
ENDMDL
MODEL 10
REMARK VINA RESULT:      -3.9      1.857      4.019
REMARK  Name = 75536674
REMARK  8 active torsions:
REMARK  status: ('A' for Active; 'I' for Inactive)
REMARK    1  A    between atoms: S_1  and  N_7
REMARK    2  A    between atoms: S_1  and  C_15
REMARK    3  A    between atoms: O_3  and  C_9
REMARK    4  A    between atoms: N_6  and  C_8
REMARK    5  A    between atoms: N_6  and  C_13
REMARK    6  A    between atoms: N_6  and  C_14
REMARK    7  A    between atoms: N_7  and  C_12
REMARK    8  A    between atoms: C_10  and  C_12
REMARK                            x       y       z     vdW  Elec       q    Type
REMARK                         _______ _______ _______ _____ _____    ______ ____
ROOT
ATOM      7  N   UNL     1      -4.711   0.523  25.641  0.00  0.00    -0.187 NA
ATOM     22  H   UNL     1      -4.556   0.049  26.541  0.00  0.00    +0.148 HD
ENDROOT
BRANCH   7   1
ATOM      1  S   UNL     1      -5.591   1.979  25.635  0.00  0.00    +0.058 S 
ATOM      4  O   UNL     1      -6.150   2.207  26.954  0.00  0.00    -0.153 OA
ATOM      5  O   UNL     1      -6.448   2.007  24.465  0.00  0.00    -0.153 OA
BRANCH   1  15
ATOM     15  C   UNL     1      -4.315   3.173  25.370  0.00  0.00    +0.105 A 
ATOM     16  C   UNL     1      -4.145   3.743  24.109  0.00  0.00    +0.028 A 
ATOM     17  C   UNL     1      -3.476   3.542  26.421  0.00  0.00    +0.028 A 
ATOM     18  C   UNL     1      -3.134   4.682  23.899  0.00  0.00    +0.002 A 
ATOM     19  C   UNL     1      -2.466   4.481  26.211  0.00  0.00    +0.002 A 
ATOM     20  C   UNL     1      -2.296   5.052  24.949  0.00  0.00    +0.000 A 
ENDBRANCH   1  15
ENDBRANCH   7   1
BRANCH   7  12
ATOM     12  C   UNL     1      -4.713  -0.348  24.450  0.00  0.00    +0.140 C 
BRANCH  12  10
ATOM      2  O   UNL     1      -3.177   0.839  23.008  0.00  0.00    -0.371 OA
ATOM      8  C   UNL     1      -1.088   0.309  24.007  0.00  0.00    +0.113 C 
ATOM      9  C   UNL     1      -2.201  -0.314  24.829  0.00  0.00    +0.164 C 
ATOM     10  C   UNL     1      -3.335  -0.342  23.813  0.00  0.00    +0.164 C 
ATOM     11  C   UNL     1      -1.851   1.357  23.213  0.00  0.00    +0.181 C 
BRANCH   8   6
ATOM      6  N   UNL     1      -0.018   0.878  24.810  0.00  0.00    -0.301 NA
ATOM     13  C   UNL     1       0.850   1.731  23.992  0.00  0.00    +0.105 C 
ATOM     14  C   UNL     1      -0.562   1.645  25.935  0.00  0.00    +0.105 C 
ENDBRANCH   8   6
BRANCH   9   3
ATOM      3  O   UNL     1      -1.877  -1.610  25.294  0.00  0.00    -0.388 OA
ATOM     21  H   UNL     1      -1.741  -1.565  26.254  0.00  0.00    +0.210 HD
ENDBRANCH   9   3
ENDBRANCH  12  10
ENDBRANCH   7  12
TORSDOF 6
ENDMDL
