MODEL 1
REMARK VINA RESULT:      18.3      0.000      0.000
REMARK  Name = 11882989
REMARK  15 active torsions:
REMARK  status: ('A' for Active; 'I' for Inactive)
REMARK    1  A    between atoms: O_2  and  C_14
REMARK    2  A    between atoms: O_3  and  C_19
REMARK    3  A    between atoms: N_7  and  C_25
REMARK    4  A    between atoms: N_7  and  C_26
REMARK    5  A    between atoms: C_9  and  C_17
REMARK    6  A    between atoms: C_11  and  C_19
REMARK    7  A    between atoms: C_11  and  C_20
REMARK    8  A    between atoms: C_12  and  C_22
REMARK    9  A    between atoms: C_22  and  C_23
REMARK   10  A    between atoms: C_25  and  C_28
REMARK   11  A    between atoms: C_27  and  C_29
REMARK   12  A    between atoms: C_33  and  C_36
REMARK   13  A    between atoms: C_36  and  C_37
REMARK   14  A    between atoms: C_36  and  C_38
REMARK   15  A    between atoms: C_36  and  C_39
REMARK                            x       y       z     vdW  Elec       q    Type
REMARK                         _______ _______ _______ _____ _____    ______ ____
ROOT
ATOM      1  S   UNL     1       0.822   2.470  25.757  0.00  0.00    -0.057 S 
ATOM      5  O   UNL     1       2.464   0.043  22.139  0.00  0.00    -0.270 OA
ATOM      6  N   UNL     1       0.175   1.256  23.565  0.00  0.00    -0.229 NA
ATOM      8  N   UNL     1       2.510   1.248  24.164  0.00  0.00    -0.261 N 
ATOM      9  C   UNL     1      -3.522   1.896  24.457  0.00  0.00    -0.019 C 
ATOM     10  C   UNL     1      -3.185   3.252  25.220  0.00  0.00    +0.011 C 
ATOM     11  C   UNL     1      -4.378   3.973  25.959  0.00  0.00    +0.021 C 
ATOM     12  C   UNL     1      -2.324   1.588  23.445  0.00  0.00    +0.054 C 
ATOM     13  C   UNL     1      -4.822   2.079  23.631  0.00  0.00    +0.010 C 
ATOM     14  C   UNL     1      -5.608   4.030  25.011  0.00  0.00    +0.123 C 
ATOM     15  C   UNL     1      -1.902   3.111  26.090  0.00  0.00    +0.049 C 
ATOM     16  C   UNL     1      -5.978   2.671  24.424  0.00  0.00    +0.032 C 
ATOM     17  C   UNL     1      -3.707   0.695  25.416  0.00  0.00    +0.012 C 
ATOM     18  C   UNL     1      -0.987   1.758  24.121  0.00  0.00    +0.058 A 
ATOM     20  C   UNL     1      -3.967   5.439  26.273  0.00  0.00    +0.016 C 
ATOM     21  C   UNL     1      -0.818   2.462  25.298  0.00  0.00    +0.015 A 
ATOM     24  C   UNL     1       1.189   1.563  24.345  0.00  0.00    +0.165 A 
ATOM     27  C   UNL     1       3.062   0.522  23.096  0.00  0.00    +0.250 C 
ATOM     42  H   UNL     1       3.119   1.632  24.879  0.00  0.00    +0.157 HD
ENDROOT
BRANCH  27  29
ATOM     29  C   UNL     1       4.538   0.353  23.138  0.00  0.00    +0.037 A 
ATOM     31  C   UNL     1       5.305   1.133  24.003  0.00  0.00    +0.013 A 
ATOM     32  C   UNL     1       5.158  -0.586  22.311  0.00  0.00    +0.013 A 
ATOM     33  C   UNL     1       7.309   0.037  23.215  0.00  0.00    -0.042 A 
ATOM     34  C   UNL     1       6.691   0.975  24.042  0.00  0.00    +0.005 A 
ATOM     35  C   UNL     1       6.542  -0.743  22.350  0.00  0.00    +0.005 A 
BRANCH  33  36
ATOM     36  C   UNL     1       8.790  -0.132  23.258  0.00  0.00    -0.013 C 
ATOM     37  C   UNL     1       9.254  -1.294  22.325  0.00  0.00    +0.015 C 
ATOM     38  C   UNL     1       9.280  -0.464  24.702  0.00  0.00    +0.015 C 
ATOM     39  C   UNL     1       9.623   1.115  22.812  0.00  0.00    +0.015 C 
ENDBRANCH  33  36
ENDBRANCH  27  29
BRANCH  14   2
ATOM      2  O   UNL     1      -6.745   4.559  25.693  0.00  0.00    -0.391 OA
ATOM     40  H   UNL     1      -7.540   4.231  25.240  0.00  0.00    +0.210 HD
ENDBRANCH  14   2
BRANCH  11  19
ATOM     19  C   UNL     1      -4.759   3.348  27.320  0.00  0.00    +0.165 C 
BRANCH  19   3
ATOM      3  O   UNL     1      -5.923   2.577  27.129  0.00  0.00    -0.394 OA
ATOM     41  H   UNL     1      -5.730   1.677  27.444  0.00  0.00    +0.209 HD
ENDBRANCH  19   3
ENDBRANCH  11  19
BRANCH  12  22
ATOM     22  C   UNL     1      -2.422   0.233  22.732  0.00  0.00    +0.106 C 
BRANCH  22  23
ATOM      4  O   UNL     1      -0.827  -1.007  24.021  0.00  0.00    -0.276 OA
ATOM      7  N   UNL     1      -2.990  -1.838  23.948  0.00  0.00    -0.301 N 
ATOM     23  C   UNL     1      -1.991  -0.916  23.622  0.00  0.00    +0.216 C 
ATOM     26  C   UNL     1      -4.360  -1.710  23.464  0.00  0.00    +0.132 C 
BRANCH   7  25
ATOM     25  C   UNL     1      -2.739  -3.000  24.797  0.00  0.00    +0.134 C 
BRANCH  25  28
ATOM     28  C   UNL     1      -3.247  -2.719  26.172  0.00  0.00    -0.016 C 
ATOM     30  C   UNL     1      -2.892  -1.651  26.894  0.00  0.00    +0.005 C 
ENDBRANCH  25  28
ENDBRANCH   7  25
ENDBRANCH  22  23
ENDBRANCH  12  22
TORSDOF 9
ENDMDL
MODEL 2
REMARK VINA RESULT:      21.4      1.337      2.102
REMARK  Name = 11882989
REMARK  15 active torsions:
REMARK  status: ('A' for Active; 'I' for Inactive)
REMARK    1  A    between atoms: O_2  and  C_14
REMARK    2  A    between atoms: O_3  and  C_19
REMARK    3  A    between atoms: N_7  and  C_25
REMARK    4  A    between atoms: N_7  and  C_26
REMARK    5  A    between atoms: C_9  and  C_17
REMARK    6  A    between atoms: C_11  and  C_19
REMARK    7  A    between atoms: C_11  and  C_20
REMARK    8  A    between atoms: C_12  and  C_22
REMARK    9  A    between atoms: C_22  and  C_23
REMARK   10  A    between atoms: C_25  and  C_28
REMARK   11  A    between atoms: C_27  and  C_29
REMARK   12  A    between atoms: C_33  and  C_36
REMARK   13  A    between atoms: C_36  and  C_37
REMARK   14  A    between atoms: C_36  and  C_38
REMARK   15  A    between atoms: C_36  and  C_39
REMARK                            x       y       z     vdW  Elec       q    Type
REMARK                         _______ _______ _______ _____ _____    ______ ____
ROOT
ATOM      1  S   UNL     1       1.332   2.699  24.141  0.00  0.00    -0.057 S 
ATOM      5  O   UNL     1       3.493  -1.399  23.688  0.00  0.00    -0.270 OA
ATOM      6  N   UNL     1       0.991   0.135  24.054  0.00  0.00    -0.229 NA
ATOM      8  N   UNL     1       3.253   0.941  23.834  0.00  0.00    -0.261 N 
ATOM      9  C   UNL     1      -2.719   0.729  24.916  0.00  0.00    -0.019 C 
ATOM     10  C   UNL     1      -2.747   2.138  24.175  0.00  0.00    +0.011 C 
ATOM     11  C   UNL     1      -4.075   2.982  24.292  0.00  0.00    +0.021 C 
ATOM     12  C   UNL     1      -1.505  -0.119  24.318  0.00  0.00    +0.054 C 
ATOM     13  C   UNL     1      -4.038  -0.034  24.624  0.00  0.00    +0.010 C 
ATOM     14  C   UNL     1      -5.295   2.059  24.016  0.00  0.00    +0.123 C 
ATOM     15  C   UNL     1      -1.456   2.958  24.462  0.00  0.00    +0.049 C 
ATOM     16  C   UNL     1      -5.294   0.791  24.864  0.00  0.00    +0.032 C 
ATOM     17  C   UNL     1      -2.549   0.860  26.450  0.00  0.00    +0.012 C 
ATOM     18  C   UNL     1      -0.250   0.714  24.237  0.00  0.00    +0.058 A 
ATOM     20  C   UNL     1      -4.073   4.085  23.196  0.00  0.00    +0.016 C 
ATOM     21  C   UNL     1      -0.254   2.094  24.284  0.00  0.00    +0.015 A 
ATOM     24  C   UNL     1       1.901   1.084  23.997  0.00  0.00    +0.165 A 
ATOM     27  C   UNL     1       3.959  -0.266  23.692  0.00  0.00    +0.250 C 
ATOM     42  H   UNL     1       3.751   1.823  23.777  0.00  0.00    +0.157 HD
ENDROOT
BRANCH  27  29
ATOM     29  C   UNL     1       5.426  -0.125  23.498  0.00  0.00    +0.037 A 
ATOM     31  C   UNL     1       6.122  -1.065  22.738  0.00  0.00    +0.013 A 
ATOM     32  C   UNL     1       6.107   0.947  24.075  0.00  0.00    +0.013 A 
ATOM     33  C   UNL     1       8.180   0.138  23.134  0.00  0.00    -0.042 A 
ATOM     34  C   UNL     1       7.499  -0.934  22.556  0.00  0.00    +0.005 A 
ATOM     35  C   UNL     1       7.484   1.078  23.893  0.00  0.00    +0.005 A 
BRANCH  33  36
ATOM     36  C   UNL     1       9.651   0.279  22.938  0.00  0.00    -0.013 C 
ATOM     37  C   UNL     1      10.262  -1.007  22.300  0.00  0.00    +0.015 C 
ATOM     38  C   UNL     1      10.382   0.523  24.295  0.00  0.00    +0.015 C 
ATOM     39  C   UNL     1      10.096   1.456  22.008  0.00  0.00    +0.015 C 
ENDBRANCH  33  36
ENDBRANCH  27  29
BRANCH  14   2
ATOM      2  O   UNL     1      -6.518   2.760  24.241  0.00  0.00    -0.391 OA
ATOM     40  H   UNL     1      -6.676   3.332  23.472  0.00  0.00    +0.210 HD
ENDBRANCH  14   2
BRANCH  11  19
ATOM     19  C   UNL     1      -4.242   3.730  25.634  0.00  0.00    +0.165 C 
BRANCH  19   3
ATOM      3  O   UNL     1      -5.572   4.191  25.707  0.00  0.00    -0.394 OA
ATOM     41  H   UNL     1      -5.866   4.086  26.628  0.00  0.00    +0.209 HD
ENDBRANCH  19   3
ENDBRANCH  11  19
BRANCH  12  22
ATOM     22  C   UNL     1      -1.246  -1.454  25.029  0.00  0.00    +0.106 C 
BRANCH  22  23
ATOM      4  O   UNL     1      -1.471  -3.091  23.293  0.00  0.00    -0.276 OA
ATOM      7  N   UNL     1      -3.091  -3.092  24.952  0.00  0.00    -0.301 N 
ATOM     23  C   UNL     1      -1.931  -2.615  24.335  0.00  0.00    +0.216 C 
ATOM     26  C   UNL     1      -3.615  -2.513  26.184  0.00  0.00    +0.132 C 
BRANCH   7  25
ATOM     25  C   UNL     1      -3.867  -4.206  24.411  0.00  0.00    +0.134 C 
BRANCH  25  28
ATOM     28  C   UNL     1      -4.738  -3.704  23.309  0.00  0.00    -0.016 C 
ATOM     30  C   UNL     1      -5.049  -2.416  23.132  0.00  0.00    +0.005 C 
ENDBRANCH  25  28
ENDBRANCH   7  25
ENDBRANCH  22  23
ENDBRANCH  12  22
TORSDOF 9
ENDMDL
