MODEL 1
REMARK VINA RESULT:      -3.8      0.000      0.000
REMARK  Name = 75536314
REMARK  7 active torsions:
REMARK  status: ('A' for Active; 'I' for Inactive)
REMARK    1  A    between atoms: O_2  and  C_8
REMARK    2  A    between atoms: N_4  and  C_10
REMARK    3  A    between atoms: N_4  and  C_13
REMARK    4  A    between atoms: C_7  and  C_13
REMARK    5  A    between atoms: C_9  and  C_16
REMARK    6  A    between atoms: C_16  and  C_19
REMARK    7  A    between atoms: C_21  and  C_22
REMARK                            x       y       z     vdW  Elec       q    Type
REMARK                         _______ _______ _______ _____ _____    ______ ____
ROOT
ATOM      1  O   UNL     1      -3.674   2.245  25.787  0.00  0.00    -0.369 OA
ATOM      7  C   UNL     1      -4.876   1.565  25.400  0.00  0.00    +0.161 C 
ATOM      8  C   UNL     1      -6.122   2.373  25.786  0.00  0.00    +0.145 C 
ATOM      9  C   UNL     1      -3.537   3.575  25.282  0.00  0.00    +0.125 C 
ATOM     11  C   UNL     1      -6.036   3.827  25.332  0.00  0.00    +0.036 C 
ATOM     12  C   UNL     1      -4.703   4.449  25.742  0.00  0.00    +0.034 C 
ENDROOT
BRANCH   8   2
ATOM      2  O   UNL     1      -6.253   2.367  27.210  0.00  0.00    -0.389 OA
ATOM     30  H   UNL     1      -6.704   3.190  27.467  0.00  0.00    +0.210 HD
ENDBRANCH   8   2
BRANCH   7  13
ATOM     13  C   UNL     1      -4.843   1.189  23.920  0.00  0.00    +0.115 C 
BRANCH  13   4
ATOM      4  N   UNL     1      -3.478   0.952  23.476  0.00  0.00    -0.311 NA
ATOM     28  H   UNL     1      -3.403   1.219  22.493  0.00  0.00    +0.122 HD
BRANCH   4  10
ATOM      5  N   UNL     1      -3.006  -2.886  25.250  0.00  0.00    -0.316 NA
ATOM     10  C   UNL     1      -3.120  -0.458  23.613  0.00  0.00    +0.056 C 
ATOM     14  C   UNL     1      -4.360  -1.315  23.890  0.00  0.00    +0.034 C 
ATOM     15  C   UNL     1      -2.094  -0.636  24.736  0.00  0.00    +0.034 C 
ATOM     17  C   UNL     1      -3.969  -2.769  24.152  0.00  0.00    +0.082 C 
ATOM     18  C   UNL     1      -1.791  -2.118  24.966  0.00  0.00    +0.082 C 
ATOM     29  H   UNL     1      -2.761  -3.866  25.381  0.00  0.00    +0.122 HD
ENDBRANCH   4  10
ENDBRANCH  13   4
ENDBRANCH   7  13
BRANCH   9  16
ATOM     16  C   UNL     1      -2.212   4.126  25.793  0.00  0.00    +0.090 C 
BRANCH  16  19
ATOM      3  O   UNL     1       0.696   1.999  25.682  0.00  0.00    -0.354 OA
ATOM      6  N   UNL     1      -0.240   2.767  26.363  0.00  0.00    -0.083 NA
ATOM     19  C   UNL     1      -1.057   3.238  25.416  0.00  0.00    +0.087 A 
ATOM     20  C   UNL     1      -0.688   2.804  24.130  0.00  0.00    +0.076 A 
ATOM     21  C   UNL     1       0.418   2.028  24.354  0.00  0.00    +0.167 A 
BRANCH  21  22
ATOM     22  C   UNL     1       1.305   1.274  23.517  0.00  0.00    +0.020 A 
ATOM     23  C   UNL     1       2.655   1.619  23.441  0.00  0.00    +0.011 A 
ATOM     24  C   UNL     1       0.818   0.195  22.777  0.00  0.00    +0.011 A 
ATOM     25  C   UNL     1       3.517   0.885  22.627  0.00  0.00    +0.001 A 
ATOM     26  C   UNL     1       1.680  -0.538  21.963  0.00  0.00    +0.001 A 
ATOM     27  C   UNL     1       3.031  -0.193  21.887  0.00  0.00    +0.000 A 
ENDBRANCH  21  22
ENDBRANCH  16  19
ENDBRANCH   9  16
TORSDOF 7
ENDMDL
MODEL 2
REMARK VINA RESULT:      -2.8      1.780      3.824
REMARK  Name = 75536314
REMARK  7 active torsions:
REMARK  status: ('A' for Active; 'I' for Inactive)
REMARK    1  A    between atoms: O_2  and  C_8
REMARK    2  A    between atoms: N_4  and  C_10
REMARK    3  A    between atoms: N_4  and  C_13
REMARK    4  A    between atoms: C_7  and  C_13
REMARK    5  A    between atoms: C_9  and  C_16
REMARK    6  A    between atoms: C_16  and  C_19
REMARK    7  A    between atoms: C_21  and  C_22
REMARK                            x       y       z     vdW  Elec       q    Type
REMARK                         _______ _______ _______ _____ _____    ______ ____
ROOT
ATOM      1  O   UNL     1      -4.082   2.243  23.763  0.00  0.00    -0.369 OA
ATOM      7  C   UNL     1      -4.807   3.000  24.742  0.00  0.00    +0.161 C 
ATOM      8  C   UNL     1      -5.859   2.136  25.448  0.00  0.00    +0.145 C 
ATOM      9  C   UNL     1      -3.452   1.058  24.254  0.00  0.00    +0.125 C 
ATOM     11  C   UNL     1      -5.282   0.818  25.958  0.00  0.00    +0.036 C 
ATOM     12  C   UNL     1      -4.486   0.112  24.865  0.00  0.00    +0.034 C 
ENDROOT
BRANCH   8   2
ATOM      2  O   UNL     1      -6.901   1.826  24.519  0.00  0.00    -0.389 OA
ATOM     30  H   UNL     1      -7.471   1.154  24.930  0.00  0.00    +0.210 HD
ENDBRANCH   8   2
BRANCH   7  13
ATOM     13  C   UNL     1      -3.856   3.696  25.713  0.00  0.00    +0.115 C 
BRANCH  13   4
ATOM      4  N   UNL     1      -2.900   4.527  24.998  0.00  0.00    -0.311 NA
ATOM     28  H   UNL     1      -3.041   4.399  23.995  0.00  0.00    +0.122 HD
BRANCH   4  10
ATOM      5  N   UNL     1       0.555   2.103  25.534  0.00  0.00    -0.316 NA
ATOM     10  C   UNL     1      -1.528   4.155  25.334  0.00  0.00    +0.056 C 
ATOM     14  C   UNL     1      -0.784   3.623  24.104  0.00  0.00    +0.034 C 
ATOM     15  C   UNL     1      -1.522   3.104  26.449  0.00  0.00    +0.034 C 
ATOM     17  C   UNL     1       0.609   3.123  24.483  0.00  0.00    +0.082 C 
ATOM     18  C   UNL     1      -0.099   2.623  26.737  0.00  0.00    +0.082 C 
ATOM     29  H   UNL     1       1.503   1.810  25.767  0.00  0.00    +0.122 HD
ENDBRANCH   4  10
ENDBRANCH  13   4
ENDBRANCH   7  13
BRANCH   9  16
ATOM     16  C   UNL     1      -2.739   0.397  23.081  0.00  0.00    +0.090 C 
BRANCH  16  19
ATOM      3  O   UNL     1       0.345  -0.825  24.491  0.00  0.00    -0.354 OA
ATOM      6  N   UNL     1      -1.040  -0.715  24.473  0.00  0.00    -0.083 NA
ATOM     19  C   UNL     1      -1.311   0.058  23.417  0.00  0.00    +0.087 A 
ATOM     20  C   UNL     1      -0.148   0.462  22.738  0.00  0.00    +0.076 A 
ATOM     21  C   UNL     1       0.865  -0.120  23.454  0.00  0.00    +0.167 A 
BRANCH  21  22
ATOM     22  C   UNL     1       2.294  -0.142  23.341  0.00  0.00    +0.020 A 
ATOM     23  C   UNL     1       3.009  -1.265  23.757  0.00  0.00    +0.011 A 
ATOM     24  C   UNL     1       2.970   0.961  22.817  0.00  0.00    +0.011 A 
ATOM     25  C   UNL     1       4.400  -1.286  23.648  0.00  0.00    +0.001 A 
ATOM     26  C   UNL     1       4.359   0.940  22.708  0.00  0.00    +0.001 A 
ATOM     27  C   UNL     1       5.075  -0.184  23.124  0.00  0.00    +0.000 A 
ENDBRANCH  21  22
ENDBRANCH  16  19
ENDBRANCH   9  16
TORSDOF 7
ENDMDL
MODEL 3
REMARK VINA RESULT:      -2.5      2.149      4.340
REMARK  Name = 75536314
REMARK  7 active torsions:
REMARK  status: ('A' for Active; 'I' for Inactive)
REMARK    1  A    between atoms: O_2  and  C_8
REMARK    2  A    between atoms: N_4  and  C_10
REMARK    3  A    between atoms: N_4  and  C_13
REMARK    4  A    between atoms: C_7  and  C_13
REMARK    5  A    between atoms: C_9  and  C_16
REMARK    6  A    between atoms: C_16  and  C_19
REMARK    7  A    between atoms: C_21  and  C_22
REMARK                            x       y       z     vdW  Elec       q    Type
REMARK                         _______ _______ _______ _____ _____    ______ ____
ROOT
ATOM      1  O   UNL     1      -3.652   0.099  23.587  0.00  0.00    -0.369 OA
ATOM      7  C   UNL     1      -4.563  -0.400  24.575  0.00  0.00    +0.161 C 
ATOM      8  C   UNL     1      -3.953  -1.569  25.358  0.00  0.00    +0.145 C 
ATOM      9  C   UNL     1      -2.372   0.495  24.084  0.00  0.00    +0.125 C 
ATOM     11  C   UNL     1      -2.554  -1.251  25.880  0.00  0.00    +0.036 C 
ATOM     12  C   UNL     1      -1.675  -0.678  24.773  0.00  0.00    +0.034 C 
ENDROOT
BRANCH   8   2
ATOM      2  O   UNL     1      -3.848  -2.701  24.490  0.00  0.00    -0.389 OA
ATOM     30  H   UNL     1      -2.929  -3.018  24.530  0.00  0.00    +0.210 HD
ENDBRANCH   8   2
BRANCH   7  13
ATOM     13  C   UNL     1      -5.065   0.726  25.478  0.00  0.00    +0.115 C 
BRANCH  13   4
ATOM      4  N   UNL     1      -5.619   1.816  24.689  0.00  0.00    -0.311 NA
ATOM     28  H   UNL     1      -5.572   1.562  23.701  0.00  0.00    +0.122 HD
BRANCH   4  10
ATOM      5  N   UNL     1      -2.284   4.431  25.069  0.00  0.00    -0.316 NA
ATOM     10  C   UNL     1      -4.863   3.049  24.898  0.00  0.00    +0.056 C 
ATOM     14  C   UNL     1      -4.046   3.410  23.652  0.00  0.00    +0.034 C 
ATOM     15  C   UNL     1      -3.939   2.904  26.111  0.00  0.00    +0.034 C 
ATOM     17  C   UNL     1      -3.165   4.631  23.914  0.00  0.00    +0.082 C 
ATOM     18  C   UNL     1      -3.061   4.146  26.278  0.00  0.00    +0.082 C 
ATOM     29  H   UNL     1      -1.728   5.272  25.217  0.00  0.00    +0.122 HD
ENDBRANCH   4  10
ENDBRANCH  13   4
ENDBRANCH   7  13
BRANCH   9  16
ATOM     16  C   UNL     1      -1.553   0.992  22.899  0.00  0.00    +0.090 C 
BRANCH  16  19
ATOM      3  O   UNL     1       1.814   1.713  23.965  0.00  0.00    -0.354 OA
ATOM      6  N   UNL     1       0.465   2.028  23.854  0.00  0.00    -0.083 NA
ATOM     19  C   UNL     1      -0.079   0.996  23.203  0.00  0.00    +0.087 A 
ATOM     20  C   UNL     1       0.869   0.009  22.881  0.00  0.00    +0.076 A 
ATOM     21  C   UNL     1       2.042   0.508  23.383  0.00  0.00    +0.167 A 
BRANCH  21  22
ATOM     22  C   UNL     1       3.399   0.046  23.421  0.00  0.00    +0.020 A 
ATOM     23  C   UNL     1       3.677  -1.269  23.796  0.00  0.00    +0.011 A 
ATOM     24  C   UNL     1       4.440   0.910  23.083  0.00  0.00    +0.011 A 
ATOM     25  C   UNL     1       4.997  -1.718  23.834  0.00  0.00    +0.001 A 
ATOM     26  C   UNL     1       5.759   0.461  23.120  0.00  0.00    +0.001 A 
ATOM     27  C   UNL     1       6.039  -0.854  23.496  0.00  0.00    +0.000 A 
ENDBRANCH  21  22
ENDBRANCH  16  19
ENDBRANCH   9  16
TORSDOF 7
ENDMDL
MODEL 4
REMARK VINA RESULT:      -2.0      1.707      6.073
REMARK  Name = 75536314
REMARK  7 active torsions:
REMARK  status: ('A' for Active; 'I' for Inactive)
REMARK    1  A    between atoms: O_2  and  C_8
REMARK    2  A    between atoms: N_4  and  C_10
REMARK    3  A    between atoms: N_4  and  C_13
REMARK    4  A    between atoms: C_7  and  C_13
REMARK    5  A    between atoms: C_9  and  C_16
REMARK    6  A    between atoms: C_16  and  C_19
REMARK    7  A    between atoms: C_21  and  C_22
REMARK                            x       y       z     vdW  Elec       q    Type
REMARK                         _______ _______ _______ _____ _____    ______ ____
ROOT
ATOM      1  O   UNL     1       0.073   1.099  23.190  0.00  0.00    -0.369 OA
ATOM      7  C   UNL     1       0.194  -0.322  23.041  0.00  0.00    +0.161 C 
ATOM      8  C   UNL     1       1.504  -0.699  22.337  0.00  0.00    +0.145 C 
ATOM      9  C   UNL     1       1.160   1.735  23.866  0.00  0.00    +0.125 C 
ATOM     11  C   UNL     1       2.717  -0.016  22.963  0.00  0.00    +0.036 C 
ATOM     12  C   UNL     1       2.475   1.481  23.130  0.00  0.00    +0.034 C 
ENDROOT
BRANCH   8   2
ATOM      2  O   UNL     1       1.429  -0.288  20.970  0.00  0.00    -0.389 OA
ATOM     30  H   UNL     1       2.257  -0.556  20.536  0.00  0.00    +0.210 HD
ENDBRANCH   8   2
BRANCH   7  13
ATOM     13  C   UNL     1       0.009  -1.034  24.380  0.00  0.00    +0.115 C 
BRANCH  13   4
ATOM      4  N   UNL     1      -0.995  -0.362  25.190  0.00  0.00    -0.311 NA
ATOM     28  H   UNL     1      -0.662  -0.317  26.154  0.00  0.00    +0.122 HD
BRANCH   4  10
ATOM      5  N   UNL     1      -4.179  -2.762  23.706  0.00  0.00    -0.316 NA
ATOM     10  C   UNL     1      -2.263  -1.087  25.160  0.00  0.00    +0.056 C 
ATOM     14  C   UNL     1      -2.033  -2.586  24.937  0.00  0.00    +0.034 C 
ATOM     15  C   UNL     1      -3.169  -0.524  24.061  0.00  0.00    +0.034 C 
ATOM     17  C   UNL     1      -3.363  -3.324  24.786  0.00  0.00    +0.082 C 
ATOM     18  C   UNL     1      -4.456  -1.343  23.942  0.00  0.00    +0.082 C 
ATOM     29  H   UNL     1      -5.060  -3.272  23.651  0.00  0.00    +0.122 HD
ENDBRANCH   4  10
ENDBRANCH  13   4
ENDBRANCH   7  13
BRANCH   9  16
ATOM     16  C   UNL     1       0.852   3.226  23.929  0.00  0.00    +0.090 C 
BRANCH  16  19
ATOM      3  O   UNL     1      -2.152   4.542  25.423  0.00  0.00    -0.354 OA
ATOM      6  N   UNL     1      -0.806   4.626  25.090  0.00  0.00    -0.083 NA
ATOM     19  C   UNL     1      -0.537   3.487  24.446  0.00  0.00    +0.087 A 
ATOM     20  C   UNL     1      -1.664   2.653  24.344  0.00  0.00    +0.076 A 
ATOM     21  C   UNL     1      -2.652   3.363  24.973  0.00  0.00    +0.167 A 
BRANCH  21  22
ATOM     22  C   UNL     1      -4.042   3.133  25.243  0.00  0.00    +0.020 A 
ATOM     23  C   UNL     1      -4.887   4.210  25.510  0.00  0.00    +0.011 A 
ATOM     24  C   UNL     1      -4.548   1.833  25.239  0.00  0.00    +0.011 A 
ATOM     25  C   UNL     1      -6.239   3.987  25.774  0.00  0.00    +0.001 A 
ATOM     26  C   UNL     1      -5.898   1.610  25.502  0.00  0.00    +0.001 A 
ATOM     27  C   UNL     1      -6.745   2.687  25.770  0.00  0.00    +0.000 A 
ENDBRANCH  21  22
ENDBRANCH  16  19
ENDBRANCH   9  16
TORSDOF 7
ENDMDL
MODEL 5
REMARK VINA RESULT:      -1.4      1.588      2.167
REMARK  Name = 75536314
REMARK  7 active torsions:
REMARK  status: ('A' for Active; 'I' for Inactive)
REMARK    1  A    between atoms: O_2  and  C_8
REMARK    2  A    between atoms: N_4  and  C_10
REMARK    3  A    between atoms: N_4  and  C_13
REMARK    4  A    between atoms: C_7  and  C_13
REMARK    5  A    between atoms: C_9  and  C_16
REMARK    6  A    between atoms: C_16  and  C_19
REMARK    7  A    between atoms: C_21  and  C_22
REMARK                            x       y       z     vdW  Elec       q    Type
REMARK                         _______ _______ _______ _____ _____    ______ ____
ROOT
ATOM      1  O   UNL     1      -3.503   1.620  25.431  0.00  0.00    -0.369 OA
ATOM      7  C   UNL     1      -4.777   0.964  25.415  0.00  0.00    +0.161 C 
ATOM      8  C   UNL     1      -5.925   1.977  25.322  0.00  0.00    +0.145 C 
ATOM      9  C   UNL     1      -3.256   2.497  24.329  0.00  0.00    +0.125 C 
ATOM     11  C   UNL     1      -5.715   2.992  24.203  0.00  0.00    +0.036 C 
ATOM     12  C   UNL     1      -4.316   3.597  24.269  0.00  0.00    +0.034 C 
ENDROOT
BRANCH   8   2
ATOM      2  O   UNL     1      -6.006   2.697  26.555  0.00  0.00    -0.389 OA
ATOM     30  H   UNL     1      -5.110   3.010  26.772  0.00  0.00    +0.210 HD
ENDBRANCH   8   2
BRANCH   7  13
ATOM     13  C   UNL     1      -4.833  -0.103  24.324  0.00  0.00    +0.115 C 
BRANCH  13   4
ATOM      4  N   UNL     1      -4.194  -1.333  24.767  0.00  0.00    -0.311 NA
ATOM     28  H   UNL     1      -4.492  -1.530  25.723  0.00  0.00    +0.122 HD
BRANCH   4  10
ATOM      5  N   UNL     1      -0.113  -2.047  25.732  0.00  0.00    -0.316 NA
ATOM     10  C   UNL     1      -2.739  -1.206  24.740  0.00  0.00    +0.056 C 
ATOM     14  C   UNL     1      -2.081  -2.518  24.298  0.00  0.00    +0.034 C 
ATOM     15  C   UNL     1      -2.218  -0.793  26.120  0.00  0.00    +0.034 C 
ATOM     17  C   UNL     1      -0.558  -2.420  24.386  0.00  0.00    +0.082 C 
ATOM     18  C   UNL     1      -0.688  -0.763  26.138  0.00  0.00    +0.082 C 
ATOM     29  H   UNL     1       0.904  -1.978  25.742  0.00  0.00    +0.122 HD
ENDBRANCH   4  10
ENDBRANCH  13   4
ENDBRANCH   7  13
BRANCH   9  16
ATOM     16  C   UNL     1      -1.867   3.093  24.519  0.00  0.00    +0.090 C 
BRANCH  16  19
ATOM      3  O   UNL     1       0.102   0.546  22.899  0.00  0.00    -0.354 OA
ATOM      6  N   UNL     1      -1.101   1.190  23.160  0.00  0.00    -0.083 NA
ATOM     19  C   UNL     1      -0.791   2.172  24.010  0.00  0.00    +0.087 A 
ATOM     20  C   UNL     1       0.581   2.196  24.320  0.00  0.00    +0.076 A 
ATOM     21  C   UNL     1       1.096   1.154  23.595  0.00  0.00    +0.167 A 
BRANCH  21  22
ATOM     22  C   UNL     1       2.406   0.597  23.424  0.00  0.00    +0.020 A 
ATOM     23  C   UNL     1       2.640  -0.743  23.738  0.00  0.00    +0.011 A 
ATOM     24  C   UNL     1       3.446   1.393  22.946  0.00  0.00    +0.011 A 
ATOM     25  C   UNL     1       3.915  -1.285  23.572  0.00  0.00    +0.001 A 
ATOM     26  C   UNL     1       4.720   0.851  22.780  0.00  0.00    +0.001 A 
ATOM     27  C   UNL     1       4.955  -0.488  23.094  0.00  0.00    +0.000 A 
ENDBRANCH  21  22
ENDBRANCH  16  19
ENDBRANCH   9  16
TORSDOF 7
ENDMDL
MODEL 6
REMARK VINA RESULT:      -1.1     14.720     17.527
REMARK  Name = 75536314
REMARK  7 active torsions:
REMARK  status: ('A' for Active; 'I' for Inactive)
REMARK    1  A    between atoms: O_2  and  C_8
REMARK    2  A    between atoms: N_4  and  C_10
REMARK    3  A    between atoms: N_4  and  C_13
REMARK    4  A    between atoms: C_7  and  C_13
REMARK    5  A    between atoms: C_9  and  C_16
REMARK    6  A    between atoms: C_16  and  C_19
REMARK    7  A    between atoms: C_21  and  C_22
REMARK                            x       y       z     vdW  Elec       q    Type
REMARK                         _______ _______ _______ _____ _____    ______ ____
ROOT
ATOM      1  O   UNL     1      -3.973 -10.742  11.498  0.00  0.00    -0.369 OA
ATOM      7  C   UNL     1      -3.830 -10.229  10.167  0.00  0.00    +0.161 C 
ATOM      8  C   UNL     1      -5.152  -9.648   9.648  0.00  0.00    +0.145 C 
ATOM      9  C   UNL     1      -4.477  -9.810  12.459  0.00  0.00    +0.125 C 
ATOM     11  C   UNL     1      -5.791  -8.681  10.641  0.00  0.00    +0.036 C 
ATOM     12  C   UNL     1      -5.851  -9.292  12.038  0.00  0.00    +0.034 C 
ENDROOT
BRANCH   8   2
ATOM      2  O   UNL     1      -6.073 -10.720   9.429  0.00  0.00    -0.389 OA
ATOM     30  H   UNL     1      -6.558 -10.865  10.260  0.00  0.00    +0.210 HD
ENDBRANCH   8   2
BRANCH   7  13
ATOM     13  C   UNL     1      -2.669  -9.241  10.080  0.00  0.00    +0.115 C 
BRANCH  13   4
ATOM      4  N   UNL     1      -1.573  -9.651  10.945  0.00  0.00    -0.311 NA
ATOM     28  H   UNL     1      -1.946  -9.849  11.874  0.00  0.00    +0.122 HD
BRANCH   4  10
ATOM      5  N   UNL     1       1.841  -7.525  12.332  0.00  0.00    -0.316 NA
ATOM     10  C   UNL     1      -0.568  -8.596  11.052  0.00  0.00    +0.056 C 
ATOM     14  C   UNL     1       0.832  -9.136  10.739  0.00  0.00    +0.034 C 
ATOM     15  C   UNL     1      -0.595  -7.981  12.455  0.00  0.00    +0.034 C 
ATOM     17  C   UNL     1       1.894  -8.061  10.969  0.00  0.00    +0.082 C 
ATOM     18  C   UNL     1       0.524  -6.951  12.620  0.00  0.00    +0.082 C 
ATOM     29  H   UNL     1       2.553  -6.804  12.437  0.00  0.00    +0.122 HD
ENDBRANCH   4  10
ENDBRANCH  13   4
ENDBRANCH   7  13
BRANCH   9  16
ATOM     16  C   UNL     1      -4.556 -10.531  13.799  0.00  0.00    +0.090 C 
BRANCH  16  19
ATOM      3  O   UNL     1      -8.090 -10.590  14.506  0.00  0.00    -0.354 OA
ATOM      6  N   UNL     1      -7.001 -10.781  13.665  0.00  0.00    -0.083 NA
ATOM     19  C   UNL     1      -5.935 -10.446  14.396  0.00  0.00    +0.087 A 
ATOM     20  C   UNL     1      -6.287 -10.039  15.696  0.00  0.00    +0.076 A 
ATOM     21  C   UNL     1      -7.652 -10.148  15.712  0.00  0.00    +0.167 A 
BRANCH  21  22
ATOM     22  C   UNL     1      -8.670  -9.906  16.693  0.00  0.00    +0.020 A 
ATOM     23  C   UNL     1      -9.550  -8.835  16.534  0.00  0.00    +0.011 A 
ATOM     24  C   UNL     1      -8.780 -10.741  17.805  0.00  0.00    +0.011 A 
ATOM     25  C   UNL     1     -10.540  -8.600  17.488  0.00  0.00    +0.001 A 
ATOM     26  C   UNL     1      -9.769 -10.505  18.759  0.00  0.00    +0.001 A 
ATOM     27  C   UNL     1     -10.650  -9.434  18.601  0.00  0.00    +0.000 A 
ENDBRANCH  21  22
ENDBRANCH  16  19
ENDBRANCH   9  16
TORSDOF 7
ENDMDL
MODEL 7
REMARK VINA RESULT:      -0.7      2.545      3.701
REMARK  Name = 75536314
REMARK  7 active torsions:
REMARK  status: ('A' for Active; 'I' for Inactive)
REMARK    1  A    between atoms: O_2  and  C_8
REMARK    2  A    between atoms: N_4  and  C_10
REMARK    3  A    between atoms: N_4  and  C_13
REMARK    4  A    between atoms: C_7  and  C_13
REMARK    5  A    between atoms: C_9  and  C_16
REMARK    6  A    between atoms: C_16  and  C_19
REMARK    7  A    between atoms: C_21  and  C_22
REMARK                            x       y       z     vdW  Elec       q    Type
REMARK                         _______ _______ _______ _____ _____    ______ ____
ROOT
ATOM      1  O   UNL     1      -3.425   1.743  25.169  0.00  0.00    -0.369 OA
ATOM      7  C   UNL     1      -4.476   0.822  25.489  0.00  0.00    +0.161 C 
ATOM      8  C   UNL     1      -5.828   1.538  25.612  0.00  0.00    +0.145 C 
ATOM      9  C   UNL     1      -3.641   2.528  23.994  0.00  0.00    +0.125 C 
ATOM     11  C   UNL     1      -6.114   2.447  24.420  0.00  0.00    +0.036 C 
ATOM     12  C   UNL     1      -4.922   3.351  24.123  0.00  0.00    +0.034 C 
ENDROOT
BRANCH   8   2
ATOM      2  O   UNL     1      -5.813   2.353  26.788  0.00  0.00    -0.389 OA
ATOM     30  H   UNL     1      -6.706   2.331  27.171  0.00  0.00    +0.210 HD
ENDBRANCH   8   2
BRANCH   7  13
ATOM     13  C   UNL     1      -4.506  -0.343  24.502  0.00  0.00    +0.115 C 
BRANCH  13   4
ATOM      4  N   UNL     1      -4.030  -1.566  25.129  0.00  0.00    -0.311 NA
ATOM     28  H   UNL     1      -4.186  -1.501  26.136  0.00  0.00    +0.122 HD
BRANCH   4  10
ATOM      5  N   UNL     1       0.095  -0.634  24.662  0.00  0.00    -0.316 NA
ATOM     10  C   UNL     1      -2.602  -1.758  24.883  0.00  0.00    +0.056 C 
ATOM     14  C   UNL     1      -1.775  -1.371  26.114  0.00  0.00    +0.034 C 
ATOM     15  C   UNL     1      -2.159  -0.935  23.669  0.00  0.00    +0.034 C 
ATOM     17  C   UNL     1      -0.279  -1.457  25.814  0.00  0.00    +0.082 C 
ATOM     18  C   UNL     1      -0.646  -1.039  23.464  0.00  0.00    +0.082 C 
ATOM     29  H   UNL     1       1.095  -0.733  24.488  0.00  0.00    +0.122 HD
ENDBRANCH   4  10
ENDBRANCH  13   4
ENDBRANCH   7  13
BRANCH   9  16
ATOM     16  C   UNL     1      -2.429   3.435  23.819  0.00  0.00    +0.090 C 
BRANCH  16  19
ATOM      3  O   UNL     1       0.552   2.143  25.381  0.00  0.00    -0.354 OA
ATOM      6  N   UNL     1      -0.289   2.313  24.287  0.00  0.00    -0.083 NA
ATOM     19  C   UNL     1      -1.306   3.048  24.744  0.00  0.00    +0.087 A 
ATOM     20  C   UNL     1      -1.163   3.369  26.106  0.00  0.00    +0.076 A 
ATOM     21  C   UNL     1       0.021   2.777  26.457  0.00  0.00    +0.167 A 
BRANCH  21  22
ATOM     22  C   UNL     1       0.783   2.690  27.668  0.00  0.00    +0.020 A 
ATOM     23  C   UNL     1       2.159   2.923  27.644  0.00  0.00    +0.011 A 
ATOM     24  C   UNL     1       0.150   2.374  28.870  0.00  0.00    +0.011 A 
ATOM     25  C   UNL     1       2.901   2.838  28.822  0.00  0.00    +0.001 A 
ATOM     26  C   UNL     1       0.892   2.289  30.048  0.00  0.00    +0.001 A 
ATOM     27  C   UNL     1       2.268   2.521  30.024  0.00  0.00    +0.000 A 
ENDBRANCH  21  22
ENDBRANCH  16  19
ENDBRANCH   9  16
TORSDOF 7
ENDMDL
MODEL 8
REMARK VINA RESULT:       0.1      2.077      3.521
REMARK  Name = 75536314
REMARK  7 active torsions:
REMARK  status: ('A' for Active; 'I' for Inactive)
REMARK    1  A    between atoms: O_2  and  C_8
REMARK    2  A    between atoms: N_4  and  C_10
REMARK    3  A    between atoms: N_4  and  C_13
REMARK    4  A    between atoms: C_7  and  C_13
REMARK    5  A    between atoms: C_9  and  C_16
REMARK    6  A    between atoms: C_16  and  C_19
REMARK    7  A    between atoms: C_21  and  C_22
REMARK                            x       y       z     vdW  Elec       q    Type
REMARK                         _______ _______ _______ _____ _____    ______ ____
ROOT
ATOM      1  O   UNL     1      -0.903   2.670  24.481  0.00  0.00    -0.369 OA
ATOM      7  C   UNL     1      -1.182   3.062  25.831  0.00  0.00    +0.161 C 
ATOM      8  C   UNL     1      -2.446   3.929  25.911  0.00  0.00    +0.145 C 
ATOM      9  C   UNL     1      -1.970   1.995  23.810  0.00  0.00    +0.125 C 
ATOM     11  C   UNL     1      -3.625   3.307  25.169  0.00  0.00    +0.036 C 
ATOM     12  C   UNL     1      -3.219   2.874  23.763  0.00  0.00    +0.034 C 
ENDROOT
BRANCH   8   2
ATOM      2  O   UNL     1      -2.173   5.198  25.311  0.00  0.00    -0.389 OA
ATOM     30  H   UNL     1      -2.765   5.295  24.546  0.00  0.00    +0.210 HD
ENDBRANCH   8   2
BRANCH   7  13
ATOM     13  C   UNL     1      -1.232   1.848  26.757  0.00  0.00    +0.115 C 
BRANCH  13   4
ATOM      4  N   UNL     1      -0.418   0.762  26.233  0.00  0.00    -0.311 NA
ATOM     28  H   UNL     1      -0.084   1.022  25.304  0.00  0.00    +0.122 HD
BRANCH   4  10
ATOM      5  N   UNL     1      -2.905  -2.252  24.551  0.00  0.00    -0.316 NA
ATOM     10  C   UNL     1      -1.194  -0.471  26.129  0.00  0.00    +0.056 C 
ATOM     14  C   UNL     1      -0.632  -1.384  25.033  0.00  0.00    +0.034 C 
ATOM     15  C   UNL     1      -2.665  -0.149  25.845  0.00  0.00    +0.034 C 
ATOM     17  C   UNL     1      -1.516  -2.616  24.845  0.00  0.00    +0.082 C 
ATOM     18  C   UNL     1      -3.470  -1.431  25.625  0.00  0.00    +0.082 C 
ATOM     29  H   UNL     1      -3.460  -3.101  24.449  0.00  0.00    +0.122 HD
ENDBRANCH   4  10
ENDBRANCH  13   4
ENDBRANCH   7  13
BRANCH   9  16
ATOM     16  C   UNL     1      -1.489   1.661  22.403  0.00  0.00    +0.090 C 
BRANCH  16  19
ATOM      3  O   UNL     1       1.292  -0.580  21.918  0.00  0.00    -0.354 OA
ATOM      6  N   UNL     1      -0.007  -0.159  21.662  0.00  0.00    -0.083 NA
ATOM     19  C   UNL     1      -0.176   0.925  22.423  0.00  0.00    +0.087 A 
ATOM     20  C   UNL     1       0.972   1.233  23.176  0.00  0.00    +0.076 A 
ATOM     21  C   UNL     1       1.865   0.256  22.821  0.00  0.00    +0.167 A 
BRANCH  21  22
ATOM     22  C   UNL     1       3.216  -0.053  23.186  0.00  0.00    +0.020 A 
ATOM     23  C   UNL     1       3.538  -1.329  23.650  0.00  0.00    +0.011 A 
ATOM     24  C   UNL     1       4.209   0.921  23.078  0.00  0.00    +0.011 A 
ATOM     25  C   UNL     1       4.853  -1.630  24.005  0.00  0.00    +0.001 A 
ATOM     26  C   UNL     1       5.523   0.620  23.433  0.00  0.00    +0.001 A 
ATOM     27  C   UNL     1       5.846  -0.656  23.897  0.00  0.00    +0.000 A 
ENDBRANCH  21  22
ENDBRANCH  16  19
ENDBRANCH   9  16
TORSDOF 7
ENDMDL
