MODEL 1
REMARK VINA RESULT:      -4.1      0.000      0.000
REMARK  Name = 45361418
REMARK  14 active torsions:
REMARK  status: ('A' for Active; 'I' for Inactive)
REMARK    1  A    between atoms: O_1  and  C_10
REMARK    2  A    between atoms: N_5  and  C_14
REMARK    3  A    between atoms: N_6  and  C_25
REMARK    4  A    between atoms: C_7  and  C_17
REMARK    5  A    between atoms: C_9  and  C_19
REMARK    6  A    between atoms: C_13  and  C_18
REMARK    7  A    between atoms: C_18  and  C_20
REMARK    8  A    between atoms: C_18  and  C_21
REMARK    9  A    between atoms: C_22  and  C_23
REMARK   10  A    between atoms: C_23  and  C_24
REMARK   11  A    between atoms: C_24  and  C_26
REMARK   12  A    between atoms: C_24  and  C_27
REMARK   13  A    between atoms: C_24  and  C_28
REMARK   14  A    between atoms: C_25  and  C_29
REMARK                            x       y       z     vdW  Elec       q    Type
REMARK                         _______ _______ _______ _____ _____    ______ ____
ROOT
ATOM      7  C   UNL     1      -2.090  -0.932  25.020  0.00  0.00    -0.027 C 
ATOM      8  C   UNL     1      -2.099   0.336  24.103  0.00  0.00    +0.028 C 
ATOM      9  C   UNL     1      -0.656   0.946  23.978  0.00  0.00    +0.012 C 
ATOM     10  C   UNL     1      -3.211   1.335  24.533  0.00  0.00    +0.122 C 
ATOM     11  C   UNL     1      -3.499  -1.571  25.031  0.00  0.00    +0.007 C 
ATOM     12  C   UNL     1      -1.106  -1.971  24.435  0.00  0.00    +0.009 C 
ATOM     13  C   UNL     1      -4.601   0.666  24.644  0.00  0.00    +0.029 C 
ATOM     14  C   UNL     1       0.339  -0.130  23.459  0.00  0.00    +0.076 C 
ATOM     15  C   UNL     1      -4.584  -0.607  25.490  0.00  0.00    +0.007 C 
ATOM     16  C   UNL     1       0.306  -1.429  24.265  0.00  0.00    +0.023 C 
ATOM     17  C   UNL     1      -1.680  -0.607  26.479  0.00  0.00    +0.011 C 
ATOM     19  C   UNL     1      -0.587   2.181  23.065  0.00  0.00    +0.010 C 
ENDROOT
BRANCH  14   5
ATOM      3  O   UNL     1       2.250  -0.325  21.291  0.00  0.00    -0.276 OA
ATOM      5  N   UNL     1       1.701   0.363  23.441  0.00  0.00    -0.312 N 
ATOM     22  C   UNL     1       2.542   0.222  22.353  0.00  0.00    +0.214 C 
ATOM     33  H   UNL     1       2.054   0.800  24.288  0.00  0.00    +0.149 HD
BRANCH  22  23
ATOM     23  C   UNL     1       3.921   0.816  22.589  0.00  0.00    +0.102 C 
BRANCH  23  24
ATOM     24  C   UNL     1       4.901  -0.106  23.351  0.00  0.00    -0.029 C 
ATOM     26  C   UNL     1       4.223  -1.418  23.779  0.00  0.00    +0.011 C 
ATOM     27  C   UNL     1       6.139  -0.428  22.495  0.00  0.00    +0.011 C 
ATOM     28  C   UNL     1       5.367   0.637  24.619  0.00  0.00    +0.011 C 
ENDBRANCH  23  24
ENDBRANCH  22  23
ENDBRANCH  14   5
BRANCH  10   1
ATOM      1  O   UNL     1      -3.331   2.367  23.552  0.00  0.00    -0.391 OA
ATOM     34  H   UNL     1      -3.745   3.138  23.974  0.00  0.00    +0.210 HD
ENDBRANCH  10   1
BRANCH  13  18
ATOM     18  C   UNL     1      -5.657   1.634  25.193  0.00  0.00    +0.077 C 
ATOM     20  C   UNL     1      -6.861   1.681  24.258  0.00  0.00    +0.017 C 
BRANCH  18  21
ATOM      2  O   UNL     1      -5.309   3.968  24.648  0.00  0.00    -0.276 OA
ATOM      6  N   UNL     1      -4.170   3.070  26.458  0.00  0.00    -0.308 N 
ATOM     21  C   UNL     1      -5.044   3.018  25.381  0.00  0.00    +0.217 C 
ATOM     35  H   UNL     1      -3.988   2.227  26.995  0.00  0.00    +0.149 HD
BRANCH   6  25
ATOM     25  C   UNL     1      -3.466   4.274  26.835  0.00  0.00    +0.178 C 
BRANCH  25  29
ATOM      4  O   UNL     1      -1.238   3.530  26.211  0.00  0.00    -0.466 OA
ATOM     29  C   UNL     1      -2.209   4.464  26.036  0.00  0.00    +0.122 A 
ATOM     30  C   UNL     1      -1.808   5.415  25.127  0.00  0.00    +0.046 A 
ATOM     31  C   UNL     1      -0.506   5.040  24.717  0.00  0.00    +0.041 A 
ATOM     32  C   UNL     1      -0.205   3.888  25.405  0.00  0.00    +0.195 A 
ENDBRANCH  25  29
ENDBRANCH   6  25
ENDBRANCH  18  21
ENDBRANCH  13  18
TORSDOF 8
ENDMDL
