MODEL 1
REMARK VINA RESULT:       8.7      0.000      0.000
REMARK  Name = 26742294
REMARK  4 active torsions:
REMARK  status: ('A' for Active; 'I' for Inactive)
REMARK    1  A    between atoms: O_3  and  C_25
REMARK    2  A    between atoms: O_3  and  C_31
REMARK    3  A    between atoms: N_6  and  C_23
REMARK    4  A    between atoms: C_15  and  C_20
REMARK                            x       y       z     vdW  Elec       q    Type
REMARK                         _______ _______ _______ _____ _____    ______ ____
ROOT
ATOM      1  O   UNL     1      -3.571   3.852  21.330  0.00  0.00    -0.268 OA
ATOM      2  O   UNL     1       0.724   3.983  23.690  0.00  0.00    -0.252 OA
ATOM      4  N   UNL     1      -3.270   2.987  23.485  0.00  0.00    -0.311 N 
ATOM      5  N   UNL     1      -0.705   3.138  25.301  0.00  0.00    -0.284 N 
ATOM      6  N   UNL     1       0.514   1.685  23.898  0.00  0.00    -0.266 N 
ATOM      8  C   UNL     1      -2.767   4.514  25.480  0.00  0.00    +0.027 C 
ATOM      9  C   UNL     1      -2.887   2.077  25.802  0.00  0.00    +0.054 C 
ATOM     10  C   UNL     1      -3.429   3.416  26.302  0.00  0.00    +0.018 C 
ATOM     11  C   UNL     1      -3.208   4.352  24.025  0.00  0.00    +0.130 C 
ATOM     12  C   UNL     1      -1.236   4.461  25.633  0.00  0.00    +0.114 C 
ATOM     13  C   UNL     1      -1.358   2.035  26.025  0.00  0.00    +0.119 C 
ATOM     14  C   UNL     1      -3.210   1.852  24.320  0.00  0.00    +0.034 A 
ATOM     15  C   UNL     1      -3.397   0.614  23.790  0.00  0.00    +0.004 A 
ATOM     16  C   UNL     1      -3.496   2.895  22.101  0.00  0.00    +0.252 A 
ATOM     17  C   UNL     1       0.223   3.003  24.245  0.00  0.00    +0.307 C 
ATOM     18  C   UNL     1      -3.630   0.481  22.365  0.00  0.00    +0.015 A 
ATOM     19  C   UNL     1      -3.668   1.534  21.547  0.00  0.00    +0.071 A 
ATOM     32  H   UNL     1      -0.211   0.987  24.016  0.00  0.00    +0.156 HD
ENDROOT
BRANCH  15  20
ATOM      7  N   UNL     1      -3.560  -3.011  24.778  0.00  0.00    -0.263 NA
ATOM     20  C   UNL     1      -3.340  -0.608  24.622  0.00  0.00    +0.002 A 
ATOM     21  C   UNL     1      -3.030  -0.540  25.976  0.00  0.00    +0.011 A 
ATOM     22  C   UNL     1      -3.594  -1.856  24.076  0.00  0.00    +0.119 A 
ATOM     24  C   UNL     1      -2.984  -1.707  26.731  0.00  0.00    +0.020 A 
ATOM     27  C   UNL     1      -3.255  -2.905  26.091  0.00  0.00    +0.111 A 
ENDBRANCH  15  20
BRANCH   6  23
ATOM     23  C   UNL     1       1.730   1.192  23.367  0.00  0.00    +0.077 A 
ATOM     25  C   UNL     1       1.813  -0.110  22.871  0.00  0.00    +0.141 A 
ATOM     26  C   UNL     1       2.852   2.021  23.340  0.00  0.00    +0.027 A 
ATOM     28  C   UNL     1       3.018  -0.581  22.350  0.00  0.00    +0.047 A 
ATOM     29  C   UNL     1       4.056   1.550  22.819  0.00  0.00    +0.002 A 
ATOM     30  C   UNL     1       4.140   0.248  22.324  0.00  0.00    +0.004 A 
BRANCH  25   3
ATOM      3  O   UNL     1       0.730  -0.936  22.887  0.00  0.00    -0.493 OA
ATOM     31  C   UNL     1       0.085  -1.131  24.145  0.00  0.00    +0.277 C 
ENDBRANCH  25   3
ENDBRANCH   6  23
TORSDOF 3
ENDMDL
MODEL 2
REMARK VINA RESULT:       8.9      1.984      5.713
REMARK  Name = 26742294
REMARK  4 active torsions:
REMARK  status: ('A' for Active; 'I' for Inactive)
REMARK    1  A    between atoms: O_3  and  C_25
REMARK    2  A    between atoms: O_3  and  C_31
REMARK    3  A    between atoms: N_6  and  C_23
REMARK    4  A    between atoms: C_15  and  C_20
REMARK                            x       y       z     vdW  Elec       q    Type
REMARK                         _______ _______ _______ _____ _____    ______ ____
ROOT
ATOM      1  O   UNL     1      -1.887   3.494  27.894  0.00  0.00    -0.268 OA
ATOM      2  O   UNL     1      -4.849   1.290  24.668  0.00  0.00    -0.252 OA
ATOM      4  N   UNL     1      -1.414   3.367  25.604  0.00  0.00    -0.311 N 
ATOM      5  N   UNL     1      -3.228   2.220  23.303  0.00  0.00    -0.284 N 
ATOM      6  N   UNL     1      -3.013   0.004  24.082  0.00  0.00    -0.266 N 
ATOM      8  C   UNL     1      -2.839   4.608  23.874  0.00  0.00    +0.027 C 
ATOM      9  C   UNL     1      -0.960   3.202  23.133  0.00  0.00    +0.054 C 
ATOM     10  C   UNL     1      -1.568   4.602  23.036  0.00  0.00    +0.018 C 
ATOM     11  C   UNL     1      -2.450   4.374  25.333  0.00  0.00    +0.130 C 
ATOM     12  C   UNL     1      -3.835   3.551  23.362  0.00  0.00    +0.114 C 
ATOM     13  C   UNL     1      -1.961   2.175  22.556  0.00  0.00    +0.119 C 
ATOM     14  C   UNL     1      -0.604   2.837  24.579  0.00  0.00    +0.034 A 
ATOM     15  C   UNL     1       0.423   2.003  24.892  0.00  0.00    +0.004 A 
ATOM     16  C   UNL     1      -1.220   3.050  26.959  0.00  0.00    +0.252 A 
ATOM     17  C   UNL     1      -3.778   1.169  24.069  0.00  0.00    +0.307 C 
ATOM     18  C   UNL     1       0.651   1.651  26.281  0.00  0.00    +0.015 A 
ATOM     19  C   UNL     1      -0.113   2.118  27.269  0.00  0.00    +0.071 A 
ATOM     32  H   UNL     1      -2.007   0.091  24.005  0.00  0.00    +0.156 HD
ENDROOT
BRANCH  15  20
ATOM      7  N   UNL     1       1.611  -0.218  22.100  0.00  0.00    -0.263 NA
ATOM     20  C   UNL     1       1.298   1.417  23.854  0.00  0.00    +0.002 A 
ATOM     21  C   UNL     1       2.582   1.905  23.638  0.00  0.00    +0.011 A 
ATOM     22  C   UNL     1       0.864   0.364  23.065  0.00  0.00    +0.119 A 
ATOM     24  C   UNL     1       3.381   1.334  22.654  0.00  0.00    +0.020 A 
ATOM     27  C   UNL     1       2.853   0.284  21.920  0.00  0.00    +0.111 A 
ENDBRANCH  15  20
BRANCH   6  23
ATOM     23  C   UNL     1      -3.485  -1.325  24.212  0.00  0.00    +0.077 A 
ATOM     25  C   UNL     1      -2.917  -2.192  25.145  0.00  0.00    +0.141 A 
ATOM     26  C   UNL     1      -4.529  -1.763  23.397  0.00  0.00    +0.027 A 
ATOM     28  C   UNL     1      -3.392  -3.499  25.262  0.00  0.00    +0.047 A 
ATOM     29  C   UNL     1      -5.004  -3.069  23.515  0.00  0.00    +0.002 A 
ATOM     30  C   UNL     1      -4.436  -3.937  24.447  0.00  0.00    +0.004 A 
BRANCH  25   3
ATOM      3  O   UNL     1      -1.896  -1.784  25.951  0.00  0.00    -0.493 OA
ATOM     31  C   UNL     1      -0.588  -1.775  25.382  0.00  0.00    +0.277 C 
ENDBRANCH  25   3
ENDBRANCH   6  23
TORSDOF 3
ENDMDL
MODEL 3
REMARK VINA RESULT:      10.8      2.171      3.569
REMARK  Name = 26742294
REMARK  4 active torsions:
REMARK  status: ('A' for Active; 'I' for Inactive)
REMARK    1  A    between atoms: O_3  and  C_25
REMARK    2  A    between atoms: O_3  and  C_31
REMARK    3  A    between atoms: N_6  and  C_23
REMARK    4  A    between atoms: C_15  and  C_20
REMARK                            x       y       z     vdW  Elec       q    Type
REMARK                         _______ _______ _______ _____ _____    ______ ____
ROOT
ATOM      1  O   UNL     1      -3.251   4.184  21.770  0.00  0.00    -0.268 OA
ATOM      2  O   UNL     1      -2.566   4.651  26.602  0.00  0.00    -0.252 OA
ATOM      4  N   UNL     1      -4.139   2.688  23.337  0.00  0.00    -0.311 N 
ATOM      5  N   UNL     1      -4.042   2.874  26.476  0.00  0.00    -0.284 N 
ATOM      6  N   UNL     1      -1.714   2.497  26.541  0.00  0.00    -0.266 N 
ATOM      8  C   UNL     1      -5.961   3.406  24.989  0.00  0.00    +0.027 C 
ATOM      9  C   UNL     1      -5.069   1.114  25.068  0.00  0.00    +0.054 C 
ATOM     10  C   UNL     1      -6.355   1.936  24.970  0.00  0.00    +0.018 C 
ATOM     11  C   UNL     1      -5.132   3.694  23.737  0.00  0.00    +0.130 C 
ATOM     12  C   UNL     1      -5.198   3.750  26.282  0.00  0.00    +0.114 C 
ATOM     13  C   UNL     1      -4.362   1.439  26.403  0.00  0.00    +0.119 C 
ATOM     14  C   UNL     1      -4.128   1.391  23.891  0.00  0.00    +0.034 A 
ATOM     15  C   UNL     1      -3.272   0.455  23.401  0.00  0.00    +0.004 A 
ATOM     16  C   UNL     1      -3.274   3.073  22.298  0.00  0.00    +0.252 A 
ATOM     17  C   UNL     1      -2.746   3.433  26.544  0.00  0.00    +0.307 C 
ATOM     18  C   UNL     1      -2.363   0.818  22.330  0.00  0.00    +0.015 A 
ATOM     19  C   UNL     1      -2.334   2.042  21.803  0.00  0.00    +0.071 A 
ATOM     32  H   UNL     1      -1.856   1.628  26.040  0.00  0.00    +0.156 HD
ENDROOT
BRANCH  15  20
ATOM      7  N   UNL     1      -2.055  -2.560  25.289  0.00  0.00    -0.263 NA
ATOM     20  C   UNL     1      -3.218  -0.917  23.950  0.00  0.00    +0.002 A 
ATOM     21  C   UNL     1      -4.219  -1.841  23.672  0.00  0.00    +0.011 A 
ATOM     22  C   UNL     1      -2.166  -1.323  24.756  0.00  0.00    +0.119 A 
ATOM     24  C   UNL     1      -4.141  -3.123  24.203  0.00  0.00    +0.020 A 
ATOM     27  C   UNL     1      -3.048  -3.430  24.998  0.00  0.00    +0.111 A 
ENDBRANCH  15  20
BRANCH   6  23
ATOM     23  C   UNL     1      -0.445   2.625  27.157  0.00  0.00    +0.077 A 
ATOM     25  C   UNL     1       0.705   2.796  26.386  0.00  0.00    +0.141 A 
ATOM     26  C   UNL     1      -0.352   2.581  28.548  0.00  0.00    +0.027 A 
ATOM     28  C   UNL     1       1.948   2.920  27.007  0.00  0.00    +0.047 A 
ATOM     29  C   UNL     1       0.890   2.707  29.168  0.00  0.00    +0.002 A 
ATOM     30  C   UNL     1       2.041   2.876  28.398  0.00  0.00    +0.004 A 
BRANCH  25   3
ATOM      3  O   UNL     1       0.636   2.841  25.026  0.00  0.00    -0.493 OA
ATOM     31  C   UNL     1       0.569   1.592  24.340  0.00  0.00    +0.277 C 
ENDBRANCH  25   3
ENDBRANCH   6  23
TORSDOF 3
ENDMDL
MODEL 4
REMARK VINA RESULT:      12.6      2.554      6.661
REMARK  Name = 26742294
REMARK  4 active torsions:
REMARK  status: ('A' for Active; 'I' for Inactive)
REMARK    1  A    between atoms: O_3  and  C_25
REMARK    2  A    between atoms: O_3  and  C_31
REMARK    3  A    between atoms: N_6  and  C_23
REMARK    4  A    between atoms: C_15  and  C_20
REMARK                            x       y       z     vdW  Elec       q    Type
REMARK                         _______ _______ _______ _____ _____    ______ ____
ROOT
ATOM      1  O   UNL     1      -0.052   0.482  21.702  0.00  0.00    -0.268 OA
ATOM      2  O   UNL     1      -4.376   0.035  23.969  0.00  0.00    -0.252 OA
ATOM      4  N   UNL     1      -0.255  -0.053  23.973  0.00  0.00    -0.311 N 
ATOM      5  N   UNL     1      -2.882  -0.617  25.611  0.00  0.00    -0.284 N 
ATOM      6  N   UNL     1      -3.594   1.627  25.460  0.00  0.00    -0.266 N 
ATOM      8  C   UNL     1      -1.259  -2.284  24.735  0.00  0.00    +0.027 C 
ATOM      9  C   UNL     1      -0.536  -0.630  26.408  0.00  0.00    +0.054 C 
ATOM     10  C   UNL     1      -0.390  -2.087  25.970  0.00  0.00    +0.018 C 
ATOM     11  C   UNL     1      -0.701  -1.407  23.614  0.00  0.00    +0.130 C 
ATOM     12  C   UNL     1      -2.732  -1.960  25.048  0.00  0.00    +0.114 C 
ATOM     13  C   UNL     1      -2.013  -0.356  26.771  0.00  0.00    +0.119 C 
ATOM     14  C   UNL     1      -0.073   0.340  25.315  0.00  0.00    +0.034 A 
ATOM     15  C   UNL     1       0.460   1.559  25.594  0.00  0.00    +0.004 A 
ATOM     16  C   UNL     1       0.073   0.781  22.890  0.00  0.00    +0.252 A 
ATOM     17  C   UNL     1      -3.675   0.338  24.937  0.00  0.00    +0.307 C 
ATOM     18  C   UNL     1       0.808   2.448  24.502  0.00  0.00    +0.015 A 
ATOM     19  C   UNL     1       0.626   2.112  23.224  0.00  0.00    +0.071 A 
ATOM     32  H   UNL     1      -2.723   1.916  25.888  0.00  0.00    +0.156 HD
ENDROOT
BRANCH  15  20
ATOM      7  N   UNL     1       2.203   2.614  28.755  0.00  0.00    -0.263 NA
ATOM     20  C   UNL     1       0.667   2.021  26.984  0.00  0.00    +0.002 A 
ATOM     21  C   UNL     1      -0.412   2.290  27.818  0.00  0.00    +0.011 A 
ATOM     22  C   UNL     1       1.943   2.196  27.496  0.00  0.00    +0.119 A 
ATOM     24  C   UNL     1      -0.185   2.723  29.120  0.00  0.00    +0.020 A 
ATOM     27  C   UNL     1       1.128   2.867  29.536  0.00  0.00    +0.111 A 
ENDBRANCH  15  20
BRANCH   6  23
ATOM     23  C   UNL     1      -4.606   2.617  25.448  0.00  0.00    +0.077 A 
ATOM     25  C   UNL     1      -4.336   3.903  24.980  0.00  0.00    +0.141 A 
ATOM     26  C   UNL     1      -5.883   2.296  25.908  0.00  0.00    +0.027 A 
ATOM     28  C   UNL     1      -5.344   4.868  24.974  0.00  0.00    +0.047 A 
ATOM     29  C   UNL     1      -6.890   3.261  25.902  0.00  0.00    +0.002 A 
ATOM     30  C   UNL     1      -6.621   4.547  25.434  0.00  0.00    +0.004 A 
BRANCH  25   3
ATOM      3  O   UNL     1      -3.096   4.238  24.525  0.00  0.00    -0.493 OA
ATOM     31  C   UNL     1      -2.138   4.643  25.502  0.00  0.00    +0.277 C 
ENDBRANCH  25   3
ENDBRANCH   6  23
TORSDOF 3
ENDMDL
