MODEL 1
REMARK VINA RESULT:      10.9      0.000      0.000
REMARK  Name = 75368505
REMARK  4 active torsions:
REMARK  status: ('A' for Active; 'I' for Inactive)
REMARK    1  A    between atoms: O_4  and  C_24
REMARK    2  A    between atoms: O_4  and  C_27
REMARK    3  A    between atoms: N_5  and  C_11
REMARK    4  A    between atoms: N_8  and  C_21
REMARK                            x       y       z     vdW  Elec       q    Type
REMARK                         _______ _______ _______ _____ _____    ______ ____
ROOT
ATOM      2  O   UNL     1      -4.108   2.347  22.699  0.00  0.00    -0.252 OA
ATOM      3  O   UNL     1       2.133  -0.244  21.250  0.00  0.00    -0.252 OA
ATOM      5  N   UNL     1      -2.955   2.629  24.737  0.00  0.00    -0.280 N 
ATOM      6  N   UNL     1      -1.841   1.794  22.972  0.00  0.00    -0.278 N 
ATOM      7  N   UNL     1       0.485   0.285  22.781  0.00  0.00    -0.282 N 
ATOM      8  N   UNL     1       2.759   0.389  23.392  0.00  0.00    -0.269 N 
ATOM      9  C   UNL     1      -0.830   1.949  24.006  0.00  0.00    +0.112 C 
ATOM     10  C   UNL     1      -1.637   2.302  25.252  0.00  0.00    +0.133 C 
ATOM     12  C   UNL     1       0.000   0.675  24.121  0.00  0.00    +0.133 C 
ATOM     13  C   UNL     1      -1.468   1.292  21.661  0.00  0.00    +0.128 C 
ATOM     14  C   UNL     1      -3.095   2.270  23.381  0.00  0.00    +0.305 C 
ATOM     15  C   UNL     1      -0.591   0.047  21.805  0.00  0.00    +0.128 C 
ATOM     20  C   UNL     1       1.830   0.108  22.393  0.00  0.00    +0.307 C 
ATOM     28  H   UNL     1       2.509   1.072  24.099  0.00  0.00    +0.156 HD
ENDROOT
BRANCH   5  11
ATOM      1  O   UNL     1      -6.762   3.886  25.922  0.00  0.00    -0.380 OA
ATOM     11  C   UNL     1      -4.006   3.126  25.589  0.00  0.00    +0.082 C 
ATOM     16  C   UNL     1      -5.128   2.098  25.728  0.00  0.00    +0.050 C 
ATOM     17  C   UNL     1      -4.561   4.452  25.064  0.00  0.00    +0.050 C 
ATOM     18  C   UNL     1      -6.293   2.678  26.520  0.00  0.00    +0.161 C 
ATOM     19  C   UNL     1      -5.756   4.899  25.895  0.00  0.00    +0.161 C 
ENDBRANCH   5  11
BRANCH   8  21
ATOM     21  C   UNL     1       4.037  -0.199  23.567  0.00  0.00    +0.038 A 
ATOM     22  C   UNL     1       5.185   0.586  23.457  0.00  0.00    +0.069 A 
ATOM     23  C   UNL     1       4.147  -1.560  23.848  0.00  0.00    +0.023 A 
ATOM     24  C   UNL     1       6.443   0.007  23.628  0.00  0.00    +0.122 A 
ATOM     25  C   UNL     1       5.405  -2.139  24.019  0.00  0.00    +0.005 A 
ATOM     26  C   UNL     1       6.553  -1.355  23.910  0.00  0.00    +0.046 A 
BRANCH  24   4
ATOM      4  O   UNL     1       7.564   0.773  23.519  0.00  0.00    -0.495 OA
ATOM     27  C   UNL     1       8.777   0.102  23.181  0.00  0.00    +0.277 C 
ENDBRANCH  24   4
ENDBRANCH   8  21
TORSDOF 3
ENDMDL
MODEL 2
REMARK VINA RESULT:      12.4      1.910      2.524
REMARK  Name = 75368505
REMARK  4 active torsions:
REMARK  status: ('A' for Active; 'I' for Inactive)
REMARK    1  A    between atoms: O_4  and  C_24
REMARK    2  A    between atoms: O_4  and  C_27
REMARK    3  A    between atoms: N_5  and  C_11
REMARK    4  A    between atoms: N_8  and  C_21
REMARK                            x       y       z     vdW  Elec       q    Type
REMARK                         _______ _______ _______ _____ _____    ______ ____
ROOT
ATOM      2  O   UNL     1      -5.427  -0.079  24.895  0.00  0.00    -0.252 OA
ATOM      3  O   UNL     1       1.068  -2.189  23.829  0.00  0.00    -0.252 OA
ATOM      5  N   UNL     1      -4.306   1.942  24.425  0.00  0.00    -0.280 N 
ATOM      6  N   UNL     1      -3.155   0.015  24.306  0.00  0.00    -0.278 N 
ATOM      7  N   UNL     1      -0.434  -0.540  24.433  0.00  0.00    -0.282 N 
ATOM      8  N   UNL     1       1.575   0.019  23.333  0.00  0.00    -0.269 N 
ATOM      9  C   UNL     1      -2.220   1.032  23.849  0.00  0.00    +0.112 C 
ATOM     10  C   UNL     1      -2.940   2.345  24.145  0.00  0.00    +0.133 C 
ATOM     12  C   UNL     1      -0.879   0.864  24.555  0.00  0.00    +0.133 C 
ATOM     13  C   UNL     1      -2.751  -1.380  24.339  0.00  0.00    +0.128 C 
ATOM     14  C   UNL     1      -4.424   0.546  24.578  0.00  0.00    +0.305 C 
ATOM     15  C   UNL     1      -1.380  -1.515  25.001  0.00  0.00    +0.128 C 
ATOM     20  C   UNL     1       0.775  -0.991  23.864  0.00  0.00    +0.307 C 
ATOM     28  H   UNL     1       1.118   0.857  22.986  0.00  0.00    +0.156 HD
ENDROOT
BRANCH   5  11
ATOM      1  O   UNL     1      -6.370   5.142  26.150  0.00  0.00    -0.380 OA
ATOM     11  C   UNL     1      -5.355   2.905  24.651  0.00  0.00    +0.082 C 
ATOM     16  C   UNL     1      -4.841   4.330  24.447  0.00  0.00    +0.050 C 
ATOM     17  C   UNL     1      -5.952   2.752  26.052  0.00  0.00    +0.050 C 
ATOM     18  C   UNL     1      -5.915   5.347  24.813  0.00  0.00    +0.161 C 
ATOM     19  C   UNL     1      -6.964   3.856  26.327  0.00  0.00    +0.161 C 
ENDBRANCH   5  11
BRANCH   8  21
ATOM     21  C   UNL     1       2.989   0.037  23.241  0.00  0.00    +0.038 A 
ATOM     22  C   UNL     1       3.734  -1.026  23.751  0.00  0.00    +0.069 A 
ATOM     23  C   UNL     1       3.635   1.117  22.640  0.00  0.00    +0.023 A 
ATOM     24  C   UNL     1       5.126  -1.008  23.660  0.00  0.00    +0.122 A 
ATOM     25  C   UNL     1       5.027   1.135  22.550  0.00  0.00    +0.005 A 
ATOM     26  C   UNL     1       5.772   0.073  23.060  0.00  0.00    +0.046 A 
BRANCH  24   4
ATOM      4  O   UNL     1       5.853  -2.045  24.160  0.00  0.00    -0.495 OA
ATOM     27  C   UNL     1       6.818  -1.735  25.165  0.00  0.00    +0.277 C 
ENDBRANCH  24   4
ENDBRANCH   8  21
TORSDOF 3
ENDMDL
