MODEL 1
REMARK VINA RESULT:      -7.0      0.000      0.000
REMARK  Name = 75536117
REMARK  7 active torsions:
REMARK  status: ('A' for Active; 'I' for Inactive)
REMARK    1  A    between atoms: O_1  and  C_9
REMARK    2  A    between atoms: O_2  and  C_11
REMARK    3  A    between atoms: N_3  and  C_7
REMARK    4  A    between atoms: N_3  and  C_13
REMARK    5  A    between atoms: N_5  and  C_21
REMARK    6  A    between atoms: C_8  and  C_12
REMARK    7  A    between atoms: C_13  and  C_16
REMARK                            x       y       z     vdW  Elec       q    Type
REMARK                         _______ _______ _______ _____ _____    ______ ____
ROOT
ATOM      7  C   UNL     1      -3.533   2.375  25.156  0.00  0.00    +0.093 C 
ATOM      8  C   UNL     1      -4.390   1.397  24.320  0.00  0.00    +0.042 C 
ATOM      9  C   UNL     1      -4.441   3.597  25.299  0.00  0.00    +0.160 C 
ATOM     10  C   UNL     1      -5.865   1.792  24.602  0.00  0.00    +0.043 C 
ATOM     11  C   UNL     1      -5.804   2.970  25.577  0.00  0.00    +0.145 C 
ENDROOT
BRANCH   8  12
ATOM      4  N   UNL     1      -3.333  -1.751  26.153  0.00  0.00    -0.263 NA
ATOM     12  C   UNL     1      -4.075  -0.058  24.596  0.00  0.00    -0.025 A 
ATOM     14  C   UNL     1      -4.221  -1.023  23.605  0.00  0.00    +0.007 A 
ATOM     15  C   UNL     1      -3.632  -0.470  25.842  0.00  0.00    +0.114 A 
ATOM     17  C   UNL     1      -3.923  -2.351  23.887  0.00  0.00    +0.020 A 
ATOM     19  C   UNL     1      -3.487  -2.661  25.165  0.00  0.00    +0.111 A 
ENDBRANCH   8  12
BRANCH   9   1
ATOM      1  O   UNL     1      -4.018   4.439  26.355  0.00  0.00    -0.388 OA
ATOM     23  H   UNL     1      -3.085   4.234  26.535  0.00  0.00    +0.210 HD
ENDBRANCH   9   1
BRANCH  11   2
ATOM      2  O   UNL     1      -5.859   2.484  26.915  0.00  0.00    -0.389 OA
ATOM     24  H   UNL     1      -6.304   1.619  26.892  0.00  0.00    +0.210 HD
ENDBRANCH  11   2
BRANCH   7   3
ATOM      3  N   UNL     1      -2.277   2.708  24.494  0.00  0.00    -0.306 NA
ATOM     22  H   UNL     1      -2.254   2.260  23.578  0.00  0.00    +0.123 HD
BRANCH   3  13
ATOM     13  C   UNL     1      -1.140   2.239  25.273  0.00  0.00    +0.119 C 
BRANCH  13  16
ATOM      5  N   UNL     1       1.296   0.368  23.286  0.00  0.00    -0.274 N 
ATOM      6  N   UNL     1       0.448  -0.650  23.514  0.00  0.00    -0.180 NA
ATOM     16  C   UNL     1      -0.282   1.280  24.491  0.00  0.00    +0.004 A 
ATOM     18  C   UNL     1       0.903   1.547  23.850  0.00  0.00    +0.112 A 
ATOM     20  C   UNL     1      -0.513  -0.087  24.250  0.00  0.00    +0.139 A 
ATOM     21  C   UNL     1       2.489   0.149  22.505  0.00  0.00    +0.172 C 
ENDBRANCH  13  16
ENDBRANCH   3  13
ENDBRANCH   7   3
TORSDOF 6
ENDMDL
MODEL 2
REMARK VINA RESULT:      -5.5      2.719      4.647
REMARK  Name = 75536117
REMARK  7 active torsions:
REMARK  status: ('A' for Active; 'I' for Inactive)
REMARK    1  A    between atoms: O_1  and  C_9
REMARK    2  A    between atoms: O_2  and  C_11
REMARK    3  A    between atoms: N_3  and  C_7
REMARK    4  A    between atoms: N_3  and  C_13
REMARK    5  A    between atoms: N_5  and  C_21
REMARK    6  A    between atoms: C_8  and  C_12
REMARK    7  A    between atoms: C_13  and  C_16
REMARK                            x       y       z     vdW  Elec       q    Type
REMARK                         _______ _______ _______ _____ _____    ______ ____
ROOT
ATOM      7  C   UNL     1      -1.774  -0.899  24.447  0.00  0.00    +0.093 C 
ATOM      8  C   UNL     1      -2.808  -0.217  25.372  0.00  0.00    +0.042 C 
ATOM      9  C   UNL     1      -2.013  -2.388  24.696  0.00  0.00    +0.160 C 
ATOM     10  C   UNL     1      -3.950  -1.253  25.552  0.00  0.00    +0.043 C 
ATOM     11  C   UNL     1      -3.536  -2.479  24.735  0.00  0.00    +0.145 C 
ENDROOT
BRANCH   8  12
ATOM      4  N   UNL     1      -3.973   3.393  25.340  0.00  0.00    -0.263 NA
ATOM     12  C   UNL     1      -3.269   1.131  24.859  0.00  0.00    -0.025 A 
ATOM     14  C   UNL     1      -3.418   1.367  23.496  0.00  0.00    +0.007 A 
ATOM     15  C   UNL     1      -3.557   2.168  25.731  0.00  0.00    +0.114 A 
ATOM     17  C   UNL     1      -3.844   2.614  23.054  0.00  0.00    +0.020 A 
ATOM     19  C   UNL     1      -4.106   3.585  24.008  0.00  0.00    +0.111 A 
ENDBRANCH   8  12
BRANCH   9   1
ATOM      1  O   UNL     1      -1.459  -3.184  23.667  0.00  0.00    -0.388 OA
ATOM     23  H   UNL     1      -1.465  -4.107  23.977  0.00  0.00    +0.210 HD
ENDBRANCH   9   1
BRANCH  11   2
ATOM      2  O   UNL     1      -4.069  -2.377  23.418  0.00  0.00    -0.389 OA
ATOM     24  H   UNL     1      -4.825  -2.988  23.363  0.00  0.00    +0.210 HD
ENDBRANCH  11   2
BRANCH   7   3
ATOM      3  N   UNL     1      -0.406  -0.508  24.772  0.00  0.00    -0.306 NA
ATOM     22  H   UNL     1      -0.372  -0.183  25.738  0.00  0.00    +0.123 HD
BRANCH   3  13
ATOM     13  C   UNL     1       0.047   0.567  23.901  0.00  0.00    +0.119 C 
BRANCH  13  16
ATOM      5  N   UNL     1      -0.505   4.037  24.917  0.00  0.00    -0.274 N 
ATOM      6  N   UNL     1      -0.213   3.551  26.136  0.00  0.00    -0.180 NA
ATOM     16  C   UNL     1      -0.130   1.918  24.541  0.00  0.00    +0.004 A 
ATOM     18  C   UNL     1      -0.468   3.099  23.927  0.00  0.00    +0.112 A 
ATOM     20  C   UNL     1       0.015   2.257  25.900  0.00  0.00    +0.139 A 
ATOM     21  C   UNL     1      -0.815   5.437  24.758  0.00  0.00    +0.172 C 
ENDBRANCH  13  16
ENDBRANCH   3  13
ENDBRANCH   7   3
TORSDOF 6
ENDMDL
MODEL 3
REMARK VINA RESULT:      -5.2      1.472      1.999
REMARK  Name = 75536117
REMARK  7 active torsions:
REMARK  status: ('A' for Active; 'I' for Inactive)
REMARK    1  A    between atoms: O_1  and  C_9
REMARK    2  A    between atoms: O_2  and  C_11
REMARK    3  A    between atoms: N_3  and  C_7
REMARK    4  A    between atoms: N_3  and  C_13
REMARK    5  A    between atoms: N_5  and  C_21
REMARK    6  A    between atoms: C_8  and  C_12
REMARK    7  A    between atoms: C_13  and  C_16
REMARK                            x       y       z     vdW  Elec       q    Type
REMARK                         _______ _______ _______ _____ _____    ______ ____
ROOT
ATOM      7  C   UNL     1      -3.592   2.305  24.031  0.00  0.00    +0.093 C 
ATOM      8  C   UNL     1      -4.746   1.277  24.091  0.00  0.00    +0.042 C 
ATOM      9  C   UNL     1      -4.297   3.635  24.298  0.00  0.00    +0.160 C 
ATOM     10  C   UNL     1      -5.828   1.920  25.000  0.00  0.00    +0.043 C 
ATOM     11  C   UNL     1      -5.265   3.279  25.423  0.00  0.00    +0.145 C 
ENDROOT
BRANCH   8  12
ATOM      4  N   UNL     1      -3.836  -2.404  23.982  0.00  0.00    -0.263 NA
ATOM     12  C   UNL     1      -4.297  -0.097  24.540  0.00  0.00    -0.025 A 
ATOM     14  C   UNL     1      -3.942  -0.339  25.863  0.00  0.00    +0.007 A 
ATOM     15  C   UNL     1      -4.227  -1.154  23.647  0.00  0.00    +0.114 A 
ATOM     17  C   UNL     1      -3.535  -1.612  26.246  0.00  0.00    +0.020 A 
ATOM     19  C   UNL     1      -3.499  -2.601  25.277  0.00  0.00    +0.111 A 
ENDBRANCH   8  12
BRANCH   9   1
ATOM      1  O   UNL     1      -3.381   4.642  24.683  0.00  0.00    -0.388 OA
ATOM     23  H   UNL     1      -2.800   4.812  23.922  0.00  0.00    +0.210 HD
ENDBRANCH   9   1
BRANCH  11   2
ATOM      2  O   UNL     1      -4.559   3.141  26.653  0.00  0.00    -0.389 OA
ATOM     24  H   UNL     1      -4.339   2.199  26.757  0.00  0.00    +0.210 HD
ENDBRANCH  11   2
BRANCH   7   3
ATOM      3  N   UNL     1      -2.920   2.299  22.736  0.00  0.00    -0.306 NA
ATOM     22  H   UNL     1      -3.215   1.476  22.210  0.00  0.00    +0.123 HD
BRANCH   3  13
ATOM     13  C   UNL     1      -1.474   2.252  22.903  0.00  0.00    +0.119 C 
BRANCH  13  16
ATOM      5  N   UNL     1      -0.435  -0.576  24.977  0.00  0.00    -0.274 N 
ATOM      6  N   UNL     1      -0.542   0.326  25.967  0.00  0.00    -0.180 NA
ATOM     16  C   UNL     1      -1.062   1.242  23.940  0.00  0.00    +0.004 A 
ATOM     18  C   UNL     1      -0.735  -0.077  23.743  0.00  0.00    +0.112 A 
ATOM     20  C   UNL     1      -0.926   1.434  25.328  0.00  0.00    +0.139 A 
ATOM     21  C   UNL     1      -0.033  -1.928  25.278  0.00  0.00    +0.172 C 
ENDBRANCH  13  16
ENDBRANCH   3  13
ENDBRANCH   7   3
TORSDOF 6
ENDMDL
MODEL 4
REMARK VINA RESULT:      -5.1      1.579      4.590
REMARK  Name = 75536117
REMARK  7 active torsions:
REMARK  status: ('A' for Active; 'I' for Inactive)
REMARK    1  A    between atoms: O_1  and  C_9
REMARK    2  A    between atoms: O_2  and  C_11
REMARK    3  A    between atoms: N_3  and  C_7
REMARK    4  A    between atoms: N_3  and  C_13
REMARK    5  A    between atoms: N_5  and  C_21
REMARK    6  A    between atoms: C_8  and  C_12
REMARK    7  A    between atoms: C_13  and  C_16
REMARK                            x       y       z     vdW  Elec       q    Type
REMARK                         _______ _______ _______ _____ _____    ______ ____
ROOT
ATOM      7  C   UNL     1      -2.671   2.701  24.149  0.00  0.00    +0.093 C 
ATOM      8  C   UNL     1      -1.690   1.992  25.110  0.00  0.00    +0.042 C 
ATOM      9  C   UNL     1      -3.245   3.828  25.008  0.00  0.00    +0.160 C 
ATOM     10  C   UNL     1      -1.267   3.071  26.144  0.00  0.00    +0.043 C 
ATOM     11  C   UNL     1      -2.013   4.346  25.745  0.00  0.00    +0.145 C 
ENDROOT
BRANCH   8  12
ATOM      4  N   UNL     1       1.728   1.478  23.546  0.00  0.00    -0.263 NA
ATOM     12  C   UNL     1      -0.530   1.330  24.397  0.00  0.00    -0.025 A 
ATOM     14  C   UNL     1      -0.623   0.018  23.943  0.00  0.00    +0.007 A 
ATOM     15  C   UNL     1       0.657   2.010  24.176  0.00  0.00    +0.114 A 
ATOM     17  C   UNL     1       0.458  -0.564  23.290  0.00  0.00    +0.020 A 
ATOM     19  C   UNL     1       1.601   0.201  23.118  0.00  0.00    +0.111 A 
ENDBRANCH   8  12
BRANCH   9   1
ATOM      1  O   UNL     1      -3.850   4.831  24.215  0.00  0.00    -0.388 OA
ATOM     23  H   UNL     1      -3.147   5.249  23.688  0.00  0.00    +0.210 HD
ENDBRANCH   9   1
BRANCH  11   2
ATOM      2  O   UNL     1      -1.201   5.118  24.865  0.00  0.00    -0.389 OA
ATOM     24  H   UNL     1      -1.314   4.753  23.970  0.00  0.00    +0.210 HD
ENDBRANCH  11   2
BRANCH   7   3
ATOM      3  N   UNL     1      -3.714   1.802  23.668  0.00  0.00    -0.306 NA
ATOM     22  H   UNL     1      -4.394   2.339  23.129  0.00  0.00    +0.123 HD
BRANCH   3  13
ATOM     13  C   UNL     1      -4.401   1.162  24.780  0.00  0.00    +0.119 C 
BRANCH  13  16
ATOM      5  N   UNL     1      -3.771  -2.428  24.477  0.00  0.00    -0.274 N 
ATOM      6  N   UNL     1      -3.338  -2.289  25.742  0.00  0.00    -0.180 NA
ATOM     16  C   UNL     1      -4.062  -0.301  24.882  0.00  0.00    +0.004 A 
ATOM     18  C   UNL     1      -4.214  -1.266  23.916  0.00  0.00    +0.112 A 
ATOM     20  C   UNL     1      -3.519  -0.988  25.983  0.00  0.00    +0.139 A 
ATOM     21  C   UNL     1      -3.735  -3.724  23.844  0.00  0.00    +0.172 C 
ENDBRANCH  13  16
ENDBRANCH   3  13
ENDBRANCH   7   3
TORSDOF 6
ENDMDL
MODEL 5
REMARK VINA RESULT:      -5.1      2.688      4.918
REMARK  Name = 75536117
REMARK  7 active torsions:
REMARK  status: ('A' for Active; 'I' for Inactive)
REMARK    1  A    between atoms: O_1  and  C_9
REMARK    2  A    between atoms: O_2  and  C_11
REMARK    3  A    between atoms: N_3  and  C_7
REMARK    4  A    between atoms: N_3  and  C_13
REMARK    5  A    between atoms: N_5  and  C_21
REMARK    6  A    between atoms: C_8  and  C_12
REMARK    7  A    between atoms: C_13  and  C_16
REMARK                            x       y       z     vdW  Elec       q    Type
REMARK                         _______ _______ _______ _____ _____    ______ ____
ROOT
ATOM      7  C   UNL     1      -1.665   1.806  23.584  0.00  0.00    +0.093 C 
ATOM      8  C   UNL     1      -2.127   1.097  24.877  0.00  0.00    +0.042 C 
ATOM      9  C   UNL     1      -0.895   3.018  24.107  0.00  0.00    +0.160 C 
ATOM     10  C   UNL     1      -1.100   1.510  25.966  0.00  0.00    +0.043 C 
ATOM     11  C   UNL     1      -0.097   2.431  25.268  0.00  0.00    +0.145 C 
ENDROOT
BRANCH   8  12
ATOM      4  N   UNL     1      -1.265  -2.587  24.601  0.00  0.00    -0.263 NA
ATOM     12  C   UNL     1      -2.288  -0.399  24.713  0.00  0.00    -0.025 A 
ATOM     14  C   UNL     1      -3.544  -0.969  24.528  0.00  0.00    +0.007 A 
ATOM     15  C   UNL     1      -1.191  -1.245  24.742  0.00  0.00    +0.114 A 
ATOM     17  C   UNL     1      -3.661  -2.346  24.379  0.00  0.00    +0.020 A 
ATOM     19  C   UNL     1      -2.502  -3.105  24.423  0.00  0.00    +0.111 A 
ENDBRANCH   8  12
BRANCH   9   1
ATOM      1  O   UNL     1      -0.056   3.572  23.112  0.00  0.00    -0.388 OA
ATOM     23  H   UNL     1       0.609   2.900  22.885  0.00  0.00    +0.210 HD
ENDBRANCH   9   1
BRANCH  11   2
ATOM      2  O   UNL     1       0.995   1.660  24.775  0.00  0.00    -0.389 OA
ATOM     24  H   UNL     1       1.184   0.970  25.434  0.00  0.00    +0.210 HD
ENDBRANCH  11   2
BRANCH   7   3
ATOM      3  N   UNL     1      -2.789   2.200  22.742  0.00  0.00    -0.306 NA
ATOM     22  H   UNL     1      -2.456   2.354  21.790  0.00  0.00    +0.123 HD
BRANCH   3  13
ATOM     13  C   UNL     1      -3.395   3.432  23.229  0.00  0.00    +0.119 C 
BRANCH  13  16
ATOM      5  N   UNL     1      -5.675   2.414  25.902  0.00  0.00    -0.274 N 
ATOM      6  N   UNL     1      -5.112   3.449  26.548  0.00  0.00    -0.180 NA
ATOM     16  C   UNL     1      -4.238   3.196  24.453  0.00  0.00    +0.004 A 
ATOM     18  C   UNL     1      -5.186   2.220  24.643  0.00  0.00    +0.112 A 
ATOM     20  C   UNL     1      -4.236   3.922  25.659  0.00  0.00    +0.139 A 
ATOM     21  C   UNL     1      -6.697   1.631  26.553  0.00  0.00    +0.172 C 
ENDBRANCH  13  16
ENDBRANCH   3  13
ENDBRANCH   7   3
TORSDOF 6
ENDMDL
MODEL 6
REMARK VINA RESULT:      -5.0      2.648      4.629
REMARK  Name = 75536117
REMARK  7 active torsions:
REMARK  status: ('A' for Active; 'I' for Inactive)
REMARK    1  A    between atoms: O_1  and  C_9
REMARK    2  A    between atoms: O_2  and  C_11
REMARK    3  A    between atoms: N_3  and  C_7
REMARK    4  A    between atoms: N_3  and  C_13
REMARK    5  A    between atoms: N_5  and  C_21
REMARK    6  A    between atoms: C_8  and  C_12
REMARK    7  A    between atoms: C_13  and  C_16
REMARK                            x       y       z     vdW  Elec       q    Type
REMARK                         _______ _______ _______ _____ _____    ______ ____
ROOT
ATOM      7  C   UNL     1      -1.373  -0.875  24.351  0.00  0.00    +0.093 C 
ATOM      8  C   UNL     1      -2.093  -0.082  25.466  0.00  0.00    +0.042 C 
ATOM      9  C   UNL     1      -1.741  -2.325  24.662  0.00  0.00    +0.160 C 
ATOM     10  C   UNL     1      -3.294  -0.968  25.895  0.00  0.00    +0.043 C 
ATOM     11  C   UNL     1      -3.220  -2.224  25.024  0.00  0.00    +0.145 C 
ENDROOT
BRANCH   8  12
ATOM      4  N   UNL     1      -1.934   3.675  24.968  0.00  0.00    -0.263 NA
ATOM     12  C   UNL     1      -2.478   1.321  25.047  0.00  0.00    -0.025 A 
ATOM     14  C   UNL     1      -3.675   1.568  24.383  0.00  0.00    +0.007 A 
ATOM     15  C   UNL     1      -1.650   2.399  25.314  0.00  0.00    +0.114 A 
ATOM     17  C   UNL     1      -4.002   2.867  24.011  0.00  0.00    +0.020 A 
ATOM     19  C   UNL     1      -3.105   3.877  24.324  0.00  0.00    +0.111 A 
ENDBRANCH   8  12
BRANCH   9   1
ATOM      1  O   UNL     1      -1.523  -3.169  23.548  0.00  0.00    -0.388 OA
ATOM     23  H   UNL     1      -2.313  -3.729  23.448  0.00  0.00    +0.210 HD
ENDBRANCH   9   1
BRANCH  11   2
ATOM      2  O   UNL     1      -4.003  -2.035  23.848  0.00  0.00    -0.389 OA
ATOM     24  H   UNL     1      -4.936  -2.002  24.123  0.00  0.00    +0.210 HD
ENDBRANCH  11   2
BRANCH   7   3
ATOM      3  N   UNL     1       0.071  -0.666  24.374  0.00  0.00    -0.306 NA
ATOM     22  H   UNL     1       0.294   0.040  25.075  0.00  0.00    +0.123 HD
BRANCH   3  13
ATOM     13  C   UNL     1       0.549  -0.205  23.078  0.00  0.00    +0.119 C 
BRANCH  13  16
ATOM      5  N   UNL     1       4.195  -0.002  23.288  0.00  0.00    -0.274 N 
ATOM      6  N   UNL     1       3.975   1.280  22.949  0.00  0.00    -0.180 NA
ATOM     16  C   UNL     1       2.021   0.110  23.104  0.00  0.00    +0.004 A 
ATOM     18  C   UNL     1       3.056  -0.746  23.394  0.00  0.00    +0.112 A 
ATOM     20  C   UNL     1       2.646   1.342  22.838  0.00  0.00    +0.139 A 
ATOM     21  C   UNL     1       5.543  -0.467  23.503  0.00  0.00    +0.172 C 
ENDBRANCH  13  16
ENDBRANCH   3  13
ENDBRANCH   7   3
TORSDOF 6
ENDMDL
MODEL 7
REMARK VINA RESULT:      -4.5      2.432      4.635
REMARK  Name = 75536117
REMARK  7 active torsions:
REMARK  status: ('A' for Active; 'I' for Inactive)
REMARK    1  A    between atoms: O_1  and  C_9
REMARK    2  A    between atoms: O_2  and  C_11
REMARK    3  A    between atoms: N_3  and  C_7
REMARK    4  A    between atoms: N_3  and  C_13
REMARK    5  A    between atoms: N_5  and  C_21
REMARK    6  A    between atoms: C_8  and  C_12
REMARK    7  A    between atoms: C_13  and  C_16
REMARK                            x       y       z     vdW  Elec       q    Type
REMARK                         _______ _______ _______ _____ _____    ______ ____
ROOT
ATOM      7  C   UNL     1      -1.284   1.801  25.703  0.00  0.00    +0.093 C 
ATOM      8  C   UNL     1      -2.234   2.012  24.502  0.00  0.00    +0.042 C 
ATOM      9  C   UNL     1       0.069   2.261  25.161  0.00  0.00    +0.160 C 
ATOM     10  C   UNL     1      -1.582   3.134  23.649  0.00  0.00    +0.043 C 
ATOM     11  C   UNL     1      -0.295   3.521  24.381  0.00  0.00    +0.145 C 
ENDROOT
BRANCH   8  12
ATOM      4  N   UNL     1      -5.273   3.840  25.850  0.00  0.00    -0.263 NA
ATOM     12  C   UNL     1      -3.662   2.299  24.914  0.00  0.00    -0.025 A 
ATOM     14  C   UNL     1      -4.659   1.341  24.757  0.00  0.00    +0.007 A 
ATOM     15  C   UNL     1      -4.018   3.521  25.460  0.00  0.00    +0.114 A 
ATOM     17  C   UNL     1      -5.962   1.632  25.145  0.00  0.00    +0.020 A 
ATOM     19  C   UNL     1      -6.215   2.885  25.681  0.00  0.00    +0.111 A 
ENDBRANCH   8  12
BRANCH   9   1
ATOM      1  O   UNL     1       0.985   2.529  26.205  0.00  0.00    -0.388 OA
ATOM     23  H   UNL     1       1.562   3.254  25.907  0.00  0.00    +0.210 HD
ENDBRANCH   9   1
BRANCH  11   2
ATOM      2  O   UNL     1      -0.562   4.596  25.277  0.00  0.00    -0.389 OA
ATOM     24  H   UNL     1      -0.915   5.334  24.750  0.00  0.00    +0.210 HD
ENDBRANCH  11   2
BRANCH   7   3
ATOM      3  N   UNL     1      -1.248   0.408  26.136  0.00  0.00    -0.306 NA
ATOM     22  H   UNL     1      -0.612   0.322  26.929  0.00  0.00    +0.123 HD
BRANCH   3  13
ATOM     13  C   UNL     1      -0.778  -0.457  25.064  0.00  0.00    +0.119 C 
BRANCH  13  16
ATOM      5  N   UNL     1      -3.646  -2.460  23.995  0.00  0.00    -0.274 N 
ATOM      6  N   UNL     1      -2.813  -3.484  24.251  0.00  0.00    -0.180 NA
ATOM     16  C   UNL     1      -1.817  -1.471  24.666  0.00  0.00    +0.004 A 
ATOM     18  C   UNL     1      -3.097  -1.233  24.227  0.00  0.00    +0.112 A 
ATOM     20  C   UNL     1      -1.698  -2.873  24.660  0.00  0.00    +0.139 A 
ATOM     21  C   UNL     1      -4.982  -2.724  23.520  0.00  0.00    +0.172 C 
ENDBRANCH  13  16
ENDBRANCH   3  13
ENDBRANCH   7   3
TORSDOF 6
ENDMDL
MODEL 8
REMARK VINA RESULT:      -4.5      2.892      6.164
REMARK  Name = 75536117
REMARK  7 active torsions:
REMARK  status: ('A' for Active; 'I' for Inactive)
REMARK    1  A    between atoms: O_1  and  C_9
REMARK    2  A    between atoms: O_2  and  C_11
REMARK    3  A    between atoms: N_3  and  C_7
REMARK    4  A    between atoms: N_3  and  C_13
REMARK    5  A    between atoms: N_5  and  C_21
REMARK    6  A    between atoms: C_8  and  C_12
REMARK    7  A    between atoms: C_13  and  C_16
REMARK                            x       y       z     vdW  Elec       q    Type
REMARK                         _______ _______ _______ _____ _____    ______ ____
ROOT
ATOM      7  C   UNL     1      -2.417  -0.093  24.359  0.00  0.00    +0.093 C 
ATOM      8  C   UNL     1      -1.264   0.772  23.801  0.00  0.00    +0.042 C 
ATOM      9  C   UNL     1      -1.850  -1.511  24.295  0.00  0.00    +0.160 C 
ATOM     10  C   UNL     1       0.034  -0.034  24.081  0.00  0.00    +0.043 C 
ATOM     11  C   UNL     1      -0.416  -1.320  24.780  0.00  0.00    +0.145 C 
ENDROOT
BRANCH   8  12
ATOM      4  N   UNL     1      -0.432   4.450  24.217  0.00  0.00    -0.263 NA
ATOM     12  C   UNL     1      -1.250   2.180  24.358  0.00  0.00    -0.025 A 
ATOM     14  C   UNL     1      -2.002   2.514  25.480  0.00  0.00    +0.007 A 
ATOM     15  C   UNL     1      -0.489   3.176  23.769  0.00  0.00    +0.114 A 
ATOM     17  C   UNL     1      -1.970   3.814  25.970  0.00  0.00    +0.020 A 
ATOM     19  C   UNL     1      -1.176   4.737  25.308  0.00  0.00    +0.111 A 
ENDBRANCH   8  12
BRANCH   9   1
ATOM      1  O   UNL     1      -2.576  -2.401  25.121  0.00  0.00    -0.388 OA
ATOM     23  H   UNL     1      -2.613  -3.258  24.663  0.00  0.00    +0.210 HD
ENDBRANCH   9   1
BRANCH  11   2
ATOM      2  O   UNL     1      -0.395  -1.126  26.192  0.00  0.00    -0.389 OA
ATOM     24  H   UNL     1      -1.232  -1.476  26.545  0.00  0.00    +0.210 HD
ENDBRANCH  11   2
BRANCH   7   3
ATOM      3  N   UNL     1      -3.635   0.039  23.567  0.00  0.00    -0.306 NA
ATOM     22  H   UNL     1      -3.662   0.970  23.150  0.00  0.00    +0.123 HD
BRANCH   3  13
ATOM     13  C   UNL     1      -4.816  -0.134  24.400  0.00  0.00    +0.119 C 
BRANCH  13  16
ATOM      5  N   UNL     1      -5.612   3.267  25.487  0.00  0.00    -0.274 N 
ATOM      6  N   UNL     1      -6.176   2.624  26.524  0.00  0.00    -0.180 NA
ATOM     16  C   UNL     1      -5.248   1.160  25.037  0.00  0.00    +0.004 A 
ATOM     18  C   UNL     1      -5.042   2.435  24.568  0.00  0.00    +0.112 A 
ATOM     20  C   UNL     1      -5.950   1.338  26.243  0.00  0.00    +0.139 A 
ATOM     21  C   UNL     1      -5.649   4.708  25.429  0.00  0.00    +0.172 C 
ENDBRANCH  13  16
ENDBRANCH   3  13
ENDBRANCH   7   3
TORSDOF 6
ENDMDL
MODEL 9
REMARK VINA RESULT:      -4.5     14.392     18.502
REMARK  Name = 75536117
REMARK  7 active torsions:
REMARK  status: ('A' for Active; 'I' for Inactive)
REMARK    1  A    between atoms: O_1  and  C_9
REMARK    2  A    between atoms: O_2  and  C_11
REMARK    3  A    between atoms: N_3  and  C_7
REMARK    4  A    between atoms: N_3  and  C_13
REMARK    5  A    between atoms: N_5  and  C_21
REMARK    6  A    between atoms: C_8  and  C_12
REMARK    7  A    between atoms: C_13  and  C_16
REMARK                            x       y       z     vdW  Elec       q    Type
REMARK                         _______ _______ _______ _____ _____    ______ ____
ROOT
ATOM      7  C   UNL     1      12.914   8.455  19.585  0.00  0.00    +0.093 C 
ATOM      8  C   UNL     1      14.233   8.815  18.864  0.00  0.00    +0.042 C 
ATOM      9  C   UNL     1      11.841   8.961  18.620  0.00  0.00    +0.160 C 
ATOM     10  C   UNL     1      13.880   8.865  17.352  0.00  0.00    +0.043 C 
ATOM     11  C   UNL     1      12.388   8.537  17.260  0.00  0.00    +0.145 C 
ENDROOT
BRANCH   8  12
ATOM      4  N   UNL     1      16.488   5.765  18.839  0.00  0.00    -0.263 NA
ATOM     12  C   UNL     1      15.373   7.879  19.203  0.00  0.00    -0.025 A 
ATOM     14  C   UNL     1      16.330   8.229  20.150  0.00  0.00    +0.007 A 
ATOM     15  C   UNL     1      15.496   6.647  18.582  0.00  0.00    +0.114 A 
ATOM     17  C   UNL     1      17.366   7.348  20.441  0.00  0.00    +0.020 A 
ATOM     19  C   UNL     1      17.400   6.139  19.764  0.00  0.00    +0.111 A 
ENDBRANCH   8  12
BRANCH   9   1
ATOM      1  O   UNL     1      10.580   8.379  18.891  0.00  0.00    -0.388 OA
ATOM     23  H   UNL     1      10.742   7.501  19.276  0.00  0.00    +0.210 HD
ENDBRANCH   9   1
BRANCH  11   2
ATOM      2  O   UNL     1      12.219   7.134  17.077  0.00  0.00    -0.389 OA
ATOM     24  H   UNL     1      11.653   7.009  16.296  0.00  0.00    +0.210 HD
ENDBRANCH  11   2
BRANCH   7   3
ATOM      3  N   UNL     1      12.811   9.093  20.892  0.00  0.00    -0.306 NA
ATOM     22  H   UNL     1      13.566   9.772  20.993  0.00  0.00    +0.123 HD
BRANCH   3  13
ATOM     13  C   UNL     1      12.923   8.109  21.960  0.00  0.00    +0.119 C 
BRANCH  13  16
ATOM      5  N   UNL     1      10.712   5.218  21.592  0.00  0.00    -0.274 N 
ATOM      6  N   UNL     1       9.775   6.096  21.990  0.00  0.00    -0.180 NA
ATOM     16  C   UNL     1      11.839   7.068  21.880  0.00  0.00    +0.004 A 
ATOM     18  C   UNL     1      11.965   5.752  21.509  0.00  0.00    +0.112 A 
ATOM     20  C   UNL     1      10.469   7.223  22.164  0.00  0.00    +0.139 A 
ATOM     21  C   UNL     1      10.341   3.856  21.297  0.00  0.00    +0.172 C 
ENDBRANCH  13  16
ENDBRANCH   3  13
ENDBRANCH   7   3
TORSDOF 6
ENDMDL
MODEL 10
REMARK VINA RESULT:      -3.4      2.213      3.529
REMARK  Name = 75536117
REMARK  7 active torsions:
REMARK  status: ('A' for Active; 'I' for Inactive)
REMARK    1  A    between atoms: O_1  and  C_9
REMARK    2  A    between atoms: O_2  and  C_11
REMARK    3  A    between atoms: N_3  and  C_7
REMARK    4  A    between atoms: N_3  and  C_13
REMARK    5  A    between atoms: N_5  and  C_21
REMARK    6  A    between atoms: C_8  and  C_12
REMARK    7  A    between atoms: C_13  and  C_16
REMARK                            x       y       z     vdW  Elec       q    Type
REMARK                         _______ _______ _______ _____ _____    ______ ____
ROOT
ATOM      7  C   UNL     1      -1.028   1.510  25.415  0.00  0.00    +0.093 C 
ATOM      8  C   UNL     1      -1.952   1.845  24.222  0.00  0.00    +0.042 C 
ATOM      9  C   UNL     1       0.183   2.414  25.182  0.00  0.00    +0.160 C 
ATOM     10  C   UNL     1      -1.575   3.291  23.799  0.00  0.00    +0.043 C 
ATOM     11  C   UNL     1      -0.460   3.729  24.752  0.00  0.00    +0.145 C 
ENDROOT
BRANCH   8  12
ATOM      4  N   UNL     1      -5.522   2.609  25.252  0.00  0.00    -0.263 NA
ATOM     12  C   UNL     1      -3.421   1.654  24.533  0.00  0.00    -0.025 A 
ATOM     14  C   UNL     1      -4.025   0.407  24.403  0.00  0.00    +0.007 A 
ATOM     15  C   UNL     1      -4.207   2.713  24.958  0.00  0.00    +0.114 A 
ATOM     17  C   UNL     1      -5.376   0.261  24.696  0.00  0.00    +0.020 A 
ATOM     19  C   UNL     1      -6.074   1.383  25.114  0.00  0.00    +0.111 A 
ENDBRANCH   8  12
BRANCH   9   1
ATOM      1  O   UNL     1       0.958   2.561  26.357  0.00  0.00    -0.388 OA
ATOM     23  H   UNL     1       0.715   3.412  26.761  0.00  0.00    +0.210 HD
ENDBRANCH   9   1
BRANCH  11   2
ATOM      2  O   UNL     1      -1.029   4.391  25.879  0.00  0.00    -0.389 OA
ATOM     24  H   UNL     1      -0.297   4.781  26.387  0.00  0.00    +0.210 HD
ENDBRANCH  11   2
BRANCH   7   3
ATOM      3  N   UNL     1      -0.654   0.100  25.440  0.00  0.00    -0.306 NA
ATOM     22  H   UNL     1       0.311   0.017  25.760  0.00  0.00    +0.123 HD
BRANCH   3  13
ATOM     13  C   UNL     1      -0.759  -0.488  24.113  0.00  0.00    +0.119 C 
BRANCH  13  16
ATOM      5  N   UNL     1       2.517   0.225  22.651  0.00  0.00    -0.274 N 
ATOM      6  N   UNL     1       1.940  -0.261  21.538  0.00  0.00    -0.180 NA
ATOM     16  C   UNL     1       0.495  -0.280  23.307  0.00  0.00    +0.004 A 
ATOM     18  C   UNL     1       1.694   0.235  23.738  0.00  0.00    +0.112 A 
ATOM     20  C   UNL     1       0.706  -0.567  21.945  0.00  0.00    +0.139 A 
ATOM     21  C   UNL     1       3.887   0.675  22.611  0.00  0.00    +0.172 C 
ENDBRANCH  13  16
ENDBRANCH   3  13
ENDBRANCH   7   3
TORSDOF 6
ENDMDL
