MODEL 1
REMARK VINA RESULT:      -5.1      0.000      0.000
REMARK  Name = 71693987
REMARK  8 active torsions:
REMARK  status: ('A' for Active; 'I' for Inactive)
REMARK    1  A    between atoms: O_4  and  C_12
REMARK    2  A    between atoms: O_5  and  C_14
REMARK    3  A    between atoms: O_7  and  C_20
REMARK    4  A    between atoms: O_7  and  C_23
REMARK    5  A    between atoms: N_8  and  C_11
REMARK    6  A    between atoms: C_10  and  C_15
REMARK    7  A    between atoms: C_18  and  C_20
REMARK    8  A    between atoms: C_21  and  C_22
REMARK                            x       y       z     vdW  Elec       q    Type
REMARK                         _______ _______ _______ _____ _____    ______ ____
ROOT
ATOM     10  C   UNL     1      -1.682   1.953  25.709  0.00  0.00    +0.046 C 
ATOM     11  C   UNL     1      -3.004   2.119  24.924  0.00  0.00    +0.111 C 
ATOM     12  C   UNL     1      -3.686   3.295  25.621  0.00  0.00    +0.164 C 
ATOM     13  C   UNL     1      -1.407   3.330  26.369  0.00  0.00    +0.044 C 
ATOM     14  C   UNL     1      -2.531   4.251  25.899  0.00  0.00    +0.145 C 
ENDROOT
BRANCH  10  15
ATOM      9  N   UNL     1       1.524   1.866  23.685  0.00  0.00    -0.251 NA
ATOM     15  C   UNL     1      -0.546   1.432  24.854  0.00  0.00    -0.024 A 
ATOM     16  C   UNL     1      -0.505   0.102  24.453  0.00  0.00    +0.007 A 
ATOM     17  C   UNL     1       0.483   2.266  24.448  0.00  0.00    +0.115 A 
ATOM     19  C   UNL     1       0.552  -0.349  23.667  0.00  0.00    +0.032 A 
ATOM     21  C   UNL     1       1.532   0.565  23.313  0.00  0.00    +0.144 A 
BRANCH  21  22
ATOM      1  F   UNL     1       3.650   1.067  22.321  0.00  0.00    -0.164 F 
ATOM      2  F   UNL     1       3.327  -0.978  22.967  0.00  0.00    -0.164 F 
ATOM      3  F   UNL     1       2.300  -0.222  21.206  0.00  0.00    -0.164 F 
ATOM     22  C   UNL     1       2.680   0.118  22.471  0.00  0.00    +0.434 C 
ENDBRANCH  21  22
ENDBRANCH  10  15
BRANCH  11   8
ATOM      6  O   UNL     1      -3.330   0.155  22.826  0.00  0.00    -0.273 OA
ATOM      8  N   UNL     1      -3.811   0.926  24.967  0.00  0.00    -0.307 N 
ATOM     18  C   UNL     1      -3.906   0.038  23.904  0.00  0.00    +0.239 C 
ATOM     24  H   UNL     1      -4.289   0.702  25.835  0.00  0.00    +0.149 HD
BRANCH  18  20
ATOM     20  C   UNL     1      -4.820  -1.126  24.223  0.00  0.00    +0.255 C 
BRANCH  20   7
ATOM      7  O   UNL     1      -4.206  -2.350  23.878  0.00  0.00    -0.374 OA
ATOM     23  C   UNL     1      -3.259  -2.764  24.858  0.00  0.00    +0.194 C 
ENDBRANCH  20   7
ENDBRANCH  18  20
ENDBRANCH  11   8
BRANCH  12   4
ATOM      4  O   UNL     1      -4.669   3.905  24.806  0.00  0.00    -0.387 OA
ATOM     25  H   UNL     1      -4.210   4.318  24.055  0.00  0.00    +0.210 HD
ENDBRANCH  12   4
BRANCH  14   5
ATOM      5  O   UNL     1      -2.115   4.908  24.706  0.00  0.00    -0.389 OA
ATOM     26  H   UNL     1      -2.911   5.086  24.178  0.00  0.00    +0.210 HD
ENDBRANCH  14   5
TORSDOF 7
ENDMDL
MODEL 2
REMARK VINA RESULT:      -4.4      3.625      6.025
REMARK  Name = 71693987
REMARK  8 active torsions:
REMARK  status: ('A' for Active; 'I' for Inactive)
REMARK    1  A    between atoms: O_4  and  C_12
REMARK    2  A    between atoms: O_5  and  C_14
REMARK    3  A    between atoms: O_7  and  C_20
REMARK    4  A    between atoms: O_7  and  C_23
REMARK    5  A    between atoms: N_8  and  C_11
REMARK    6  A    between atoms: C_10  and  C_15
REMARK    7  A    between atoms: C_18  and  C_20
REMARK    8  A    between atoms: C_21  and  C_22
REMARK                            x       y       z     vdW  Elec       q    Type
REMARK                         _______ _______ _______ _____ _____    ______ ____
ROOT
ATOM     10  C   UNL     1      -1.377  -0.462  25.678  0.00  0.00    +0.046 C 
ATOM     11  C   UNL     1      -1.096  -1.179  24.338  0.00  0.00    +0.111 C 
ATOM     12  C   UNL     1      -1.686  -2.573  24.550  0.00  0.00    +0.164 C 
ATOM     13  C   UNL     1      -2.572  -1.216  26.318  0.00  0.00    +0.044 C 
ATOM     14  C   UNL     1      -2.976  -2.291  25.311  0.00  0.00    +0.145 C 
ENDROOT
BRANCH  10  15
ATOM      9  N   UNL     1      -0.738   3.275  25.771  0.00  0.00    -0.251 NA
ATOM     15  C   UNL     1      -1.591   1.028  25.519  0.00  0.00    -0.024 A 
ATOM     16  C   UNL     1      -2.781   1.529  25.002  0.00  0.00    +0.007 A 
ATOM     17  C   UNL     1      -0.610   1.935  25.886  0.00  0.00    +0.115 A 
ATOM     19  C   UNL     1      -2.950   2.904  24.867  0.00  0.00    +0.032 A 
ATOM     21  C   UNL     1      -1.908   3.726  25.263  0.00  0.00    +0.144 A 
BRANCH  21  22
ATOM      1  F   UNL     1      -0.863   5.865  25.028  0.00  0.00    -0.164 F 
ATOM      2  F   UNL     1      -2.773   5.590  24.038  0.00  0.00    -0.164 F 
ATOM      3  F   UNL     1      -2.689   5.765  26.204  0.00  0.00    -0.164 F 
ATOM     22  C   UNL     1      -2.054   5.206  25.134  0.00  0.00    +0.434 C 
ENDBRANCH  21  22
ENDBRANCH  10  15
BRANCH  11   8
ATOM      6  O   UNL     1       0.421   0.701  22.748  0.00  0.00    -0.273 OA
ATOM      8  N   UNL     1       0.312  -1.231  24.037  0.00  0.00    -0.307 N 
ATOM     18  C   UNL     1       0.957  -0.277  23.261  0.00  0.00    +0.239 C 
ATOM     24  H   UNL     1       0.865  -1.973  24.458  0.00  0.00    +0.149 HD
BRANCH  18  20
ATOM     20  C   UNL     1       2.432  -0.578  23.109  0.00  0.00    +0.255 C 
BRANCH  20   7
ATOM      7  O   UNL     1       3.133   0.571  22.682  0.00  0.00    -0.374 OA
ATOM     23  C   UNL     1       4.513   0.511  23.031  0.00  0.00    +0.194 C 
ENDBRANCH  20   7
ENDBRANCH  18  20
ENDBRANCH  11   8
BRANCH  12   4
ATOM      4  O   UNL     1      -1.949  -3.235  23.327  0.00  0.00    -0.387 OA
ATOM     25  H   UNL     1      -1.649  -2.653  22.609  0.00  0.00    +0.210 HD
ENDBRANCH  12   4
BRANCH  14   5
ATOM      5  O   UNL     1      -3.972  -1.754  24.446  0.00  0.00    -0.389 OA
ATOM     26  H   UNL     1      -4.839  -2.000  24.811  0.00  0.00    +0.210 HD
ENDBRANCH  14   5
TORSDOF 7
ENDMDL
MODEL 3
REMARK VINA RESULT:      -4.4      3.636      6.104
REMARK  Name = 71693987
REMARK  8 active torsions:
REMARK  status: ('A' for Active; 'I' for Inactive)
REMARK    1  A    between atoms: O_4  and  C_12
REMARK    2  A    between atoms: O_5  and  C_14
REMARK    3  A    between atoms: O_7  and  C_20
REMARK    4  A    between atoms: O_7  and  C_23
REMARK    5  A    between atoms: N_8  and  C_11
REMARK    6  A    between atoms: C_10  and  C_15
REMARK    7  A    between atoms: C_18  and  C_20
REMARK    8  A    between atoms: C_21  and  C_22
REMARK                            x       y       z     vdW  Elec       q    Type
REMARK                         _______ _______ _______ _____ _____    ______ ____
ROOT
ATOM     10  C   UNL     1      -1.349  -0.513  25.710  0.00  0.00    +0.046 C 
ATOM     11  C   UNL     1      -1.098  -1.194  24.345  0.00  0.00    +0.111 C 
ATOM     12  C   UNL     1      -1.678  -2.595  24.535  0.00  0.00    +0.164 C 
ATOM     13  C   UNL     1      -2.526  -1.288  26.358  0.00  0.00    +0.044 C 
ATOM     14  C   UNL     1      -2.950  -2.338  25.334  0.00  0.00    +0.145 C 
ENDROOT
BRANCH  10  15
ATOM      9  N   UNL     1      -3.041   2.808  25.008  0.00  0.00    -0.251 NA
ATOM     15  C   UNL     1      -1.573   0.980  25.595  0.00  0.00    -0.024 A 
ATOM     16  C   UNL     1      -0.577   1.883  25.948  0.00  0.00    +0.007 A 
ATOM     17  C   UNL     1      -2.777   1.489  25.135  0.00  0.00    +0.115 A 
ATOM     19  C   UNL     1      -0.811   3.250  25.832  0.00  0.00    +0.032 A 
ATOM     21  C   UNL     1      -2.049   3.657  25.361  0.00  0.00    +0.144 A 
BRANCH  21  22
ATOM      1  F   UNL     1      -3.008   5.643  26.288  0.00  0.00    -0.164 F 
ATOM      2  F   UNL     1      -1.214   5.883  25.092  0.00  0.00    -0.164 F 
ATOM      3  F   UNL     1      -3.103   5.396  24.130  0.00  0.00    -0.164 F 
ATOM     22  C   UNL     1      -2.336   5.115  25.223  0.00  0.00    +0.434 C 
ENDBRANCH  21  22
ENDBRANCH  10  15
BRANCH  11   8
ATOM      6  O   UNL     1       0.376   0.739  22.777  0.00  0.00    -0.273 OA
ATOM      8  N   UNL     1       0.303  -1.232  24.010  0.00  0.00    -0.307 N 
ATOM     18  C   UNL     1       0.926  -0.252  23.248  0.00  0.00    +0.239 C 
ATOM     24  H   UNL     1       0.867  -1.984  24.395  0.00  0.00    +0.149 HD
BRANCH  18  20
ATOM     20  C   UNL     1       2.398  -0.543  23.052  0.00  0.00    +0.255 C 
BRANCH  20   7
ATOM      7  O   UNL     1       3.085   0.619  22.641  0.00  0.00    -0.374 OA
ATOM     23  C   UNL     1       4.463   0.577  23.000  0.00  0.00    +0.194 C 
ENDBRANCH  20   7
ENDBRANCH  18  20
ENDBRANCH  11   8
BRANCH  12   4
ATOM      4  O   UNL     1      -1.967  -3.227  23.302  0.00  0.00    -0.387 OA
ATOM     25  H   UNL     1      -2.236  -4.141  23.498  0.00  0.00    +0.210 HD
ENDBRANCH  12   4
BRANCH  14   5
ATOM      5  O   UNL     1      -3.969  -1.784  24.507  0.00  0.00    -0.389 OA
ATOM     26  H   UNL     1      -4.760  -2.339  24.607  0.00  0.00    +0.210 HD
ENDBRANCH  14   5
TORSDOF 7
ENDMDL
MODEL 4
REMARK VINA RESULT:      -3.9      3.499      4.806
REMARK  Name = 71693987
REMARK  8 active torsions:
REMARK  status: ('A' for Active; 'I' for Inactive)
REMARK    1  A    between atoms: O_4  and  C_12
REMARK    2  A    between atoms: O_5  and  C_14
REMARK    3  A    between atoms: O_7  and  C_20
REMARK    4  A    between atoms: O_7  and  C_23
REMARK    5  A    between atoms: N_8  and  C_11
REMARK    6  A    between atoms: C_10  and  C_15
REMARK    7  A    between atoms: C_18  and  C_20
REMARK    8  A    between atoms: C_21  and  C_22
REMARK                            x       y       z     vdW  Elec       q    Type
REMARK                         _______ _______ _______ _____ _____    ______ ____
ROOT
ATOM     10  C   UNL     1      -1.449   1.964  25.943  0.00  0.00    +0.046 C 
ATOM     11  C   UNL     1      -1.941   3.127  25.052  0.00  0.00    +0.111 C 
ATOM     12  C   UNL     1      -0.818   4.159  25.163  0.00  0.00    +0.164 C 
ATOM     13  C   UNL     1       0.093   2.112  26.018  0.00  0.00    +0.044 C 
ATOM     14  C   UNL     1       0.443   3.304  25.129  0.00  0.00    +0.145 C 
ENDROOT
BRANCH  10  15
ATOM      9  N   UNL     1      -3.762  -0.843  24.869  0.00  0.00    -0.251 NA
ATOM     15  C   UNL     1      -1.924   0.608  25.464  0.00  0.00    -0.024 A 
ATOM     16  C   UNL     1      -1.019  -0.408  25.182  0.00  0.00    +0.007 A 
ATOM     17  C   UNL     1      -3.273   0.343  25.293  0.00  0.00    +0.115 A 
ATOM     19  C   UNL     1      -1.484  -1.644  24.743  0.00  0.00    +0.032 A 
ATOM     21  C   UNL     1      -2.853  -1.809  24.605  0.00  0.00    +0.144 A 
BRANCH  21  22
ATOM      1  F   UNL     1      -4.501  -3.008  23.352  0.00  0.00    -0.164 F 
ATOM      2  F   UNL     1      -2.498  -3.840  23.391  0.00  0.00    -0.164 F 
ATOM      3  F   UNL     1      -3.748  -3.938  25.167  0.00  0.00    -0.164 F 
ATOM     22  C   UNL     1      -3.389  -3.121  24.136  0.00  0.00    +0.434 C 
ENDBRANCH  21  22
ENDBRANCH  10  15
BRANCH  11   8
ATOM      6  O   UNL     1      -4.431   3.189  23.582  0.00  0.00    -0.273 OA
ATOM      8  N   UNL     1      -3.204   3.656  25.501  0.00  0.00    -0.307 N 
ATOM     18  C   UNL     1      -4.352   3.641  24.720  0.00  0.00    +0.239 C 
ATOM     24  H   UNL     1      -3.264   4.007  26.453  0.00  0.00    +0.149 HD
BRANCH  18  20
ATOM     20  C   UNL     1      -5.531   4.258  25.441  0.00  0.00    +0.255 C 
BRANCH  20   7
ATOM      7  O   UNL     1      -6.013   3.388  26.442  0.00  0.00    -0.374 OA
ATOM     23  C   UNL     1      -6.302   2.092  25.926  0.00  0.00    +0.194 C 
ENDBRANCH  20   7
ENDBRANCH  18  20
ENDBRANCH  11   8
BRANCH  12   4
ATOM      4  O   UNL     1      -0.835   5.086  24.094  0.00  0.00    -0.387 OA
ATOM     25  H   UNL     1      -0.058   4.906  23.539  0.00  0.00    +0.210 HD
ENDBRANCH  12   4
BRANCH  14   5
ATOM      5  O   UNL     1       0.703   2.829  23.811  0.00  0.00    -0.389 OA
ATOM     26  H   UNL     1      -0.148   2.562  23.424  0.00  0.00    +0.210 HD
ENDBRANCH  14   5
TORSDOF 7
ENDMDL
MODEL 5
REMARK VINA RESULT:      -3.2     16.993     18.931
REMARK  Name = 71693987
REMARK  8 active torsions:
REMARK  status: ('A' for Active; 'I' for Inactive)
REMARK    1  A    between atoms: O_4  and  C_12
REMARK    2  A    between atoms: O_5  and  C_14
REMARK    3  A    between atoms: O_7  and  C_20
REMARK    4  A    between atoms: O_7  and  C_23
REMARK    5  A    between atoms: N_8  and  C_11
REMARK    6  A    between atoms: C_10  and  C_15
REMARK    7  A    between atoms: C_18  and  C_20
REMARK    8  A    between atoms: C_21  and  C_22
REMARK                            x       y       z     vdW  Elec       q    Type
REMARK                         _______ _______ _______ _____ _____    ______ ____
ROOT
ATOM     10  C   UNL     1      15.941  -6.760  30.818  0.00  0.00    +0.046 C 
ATOM     11  C   UNL     1      14.718  -5.896  31.202  0.00  0.00    +0.111 C 
ATOM     12  C   UNL     1      15.322  -4.787  32.063  0.00  0.00    +0.164 C 
ATOM     13  C   UNL     1      17.174  -5.828  30.949  0.00  0.00    +0.044 C 
ATOM     14  C   UNL     1      16.623  -4.458  31.340  0.00  0.00    +0.145 C 
ENDROOT
BRANCH  10  15
ATOM      9  N   UNL     1      15.707  -9.449  28.153  0.00  0.00    -0.251 NA
ATOM     15  C   UNL     1      15.799  -7.419  29.462  0.00  0.00    -0.024 A 
ATOM     16  C   UNL     1      15.635  -6.659  28.310  0.00  0.00    +0.007 A 
ATOM     17  C   UNL     1      15.828  -8.798  29.331  0.00  0.00    +0.115 A 
ATOM     19  C   UNL     1      15.507  -7.293  27.078  0.00  0.00    +0.032 A 
ATOM     21  C   UNL     1      15.550  -8.677  27.054  0.00  0.00    +0.144 A 
BRANCH  21  22
ATOM      1  F   UNL     1      15.330 -10.748  25.877  0.00  0.00    -0.164 F 
ATOM      2  F   UNL     1      14.306  -9.028  25.040  0.00  0.00    -0.164 F 
ATOM      3  F   UNL     1      16.473  -9.166  24.919  0.00  0.00    -0.164 F 
ATOM     22  C   UNL     1      15.415  -9.391  25.750  0.00  0.00    +0.434 C 
ENDBRANCH  21  22
ENDBRANCH  10  15
BRANCH  11   8
ATOM      6  O   UNL     1      12.069  -6.613  30.289  0.00  0.00    -0.273 OA
ATOM      8  N   UNL     1      13.726  -6.655  31.921  0.00  0.00    -0.307 N 
ATOM     18  C   UNL     1      12.474  -6.951  31.397  0.00  0.00    +0.239 C 
ATOM     24  H   UNL     1      13.977  -7.032  32.830  0.00  0.00    +0.149 HD
BRANCH  18  20
ATOM     20  C   UNL     1      11.637  -7.760  32.365  0.00  0.00    +0.255 C 
BRANCH  20   7
ATOM      7  O   UNL     1      10.374  -8.053  31.806  0.00  0.00    -0.374 OA
ATOM     23  C   UNL     1       9.346  -8.066  32.792  0.00  0.00    +0.194 C 
ENDBRANCH  20   7
ENDBRANCH  18  20
ENDBRANCH  11   8
BRANCH  12   4
ATOM      4  O   UNL     1      14.481  -3.652  32.143  0.00  0.00    -0.387 OA
ATOM     25  H   UNL     1      14.188  -3.570  33.066  0.00  0.00    +0.210 HD
ENDBRANCH  12   4
BRANCH  14   5
ATOM      5  O   UNL     1      16.373  -3.711  30.154  0.00  0.00    -0.389 OA
ATOM     26  H   UNL     1      15.489  -3.316  30.238  0.00  0.00    +0.210 HD
ENDBRANCH  14   5
TORSDOF 7
ENDMDL
MODEL 6
REMARK VINA RESULT:      -2.7      1.374      3.950
REMARK  Name = 71693987
REMARK  8 active torsions:
REMARK  status: ('A' for Active; 'I' for Inactive)
REMARK    1  A    between atoms: O_4  and  C_12
REMARK    2  A    between atoms: O_5  and  C_14
REMARK    3  A    between atoms: O_7  and  C_20
REMARK    4  A    between atoms: O_7  and  C_23
REMARK    5  A    between atoms: N_8  and  C_11
REMARK    6  A    between atoms: C_10  and  C_15
REMARK    7  A    between atoms: C_18  and  C_20
REMARK    8  A    between atoms: C_21  and  C_22
REMARK                            x       y       z     vdW  Elec       q    Type
REMARK                         _______ _______ _______ _____ _____    ______ ____
ROOT
ATOM     10  C   UNL     1      -2.037   1.015  23.551  0.00  0.00    +0.046 C 
ATOM     11  C   UNL     1      -2.479   0.911  25.029  0.00  0.00    +0.111 C 
ATOM     12  C   UNL     1      -3.903   0.366  24.936  0.00  0.00    +0.164 C 
ATOM     13  C   UNL     1      -2.933   0.017  22.771  0.00  0.00    +0.044 C 
ATOM     14  C   UNL     1      -3.808  -0.667  23.820  0.00  0.00    +0.145 C 
ENDROOT
BRANCH  10  15
ATOM      9  N   UNL     1       1.713   1.526  23.797  0.00  0.00    -0.251 NA
ATOM     15  C   UNL     1      -0.550   0.801  23.360  0.00  0.00    -0.024 A 
ATOM     16  C   UNL     1      -0.072  -0.266  22.607  0.00  0.00    +0.007 A 
ATOM     17  C   UNL     1       0.375   1.660  23.928  0.00  0.00    +0.115 A 
ATOM     19  C   UNL     1       1.300  -0.439  22.449  0.00  0.00    +0.032 A 
ATOM     21  C   UNL     1       2.142   0.478  23.058  0.00  0.00    +0.144 A 
BRANCH  21  22
ATOM      1  F   UNL     1       4.338   1.220  23.649  0.00  0.00    -0.164 F 
ATOM      2  F   UNL     1       4.082  -0.904  23.288  0.00  0.00    -0.164 F 
ATOM      3  F   UNL     1       4.036   0.493  21.622  0.00  0.00    -0.164 F 
ATOM     22  C   UNL     1       3.619   0.325  22.910  0.00  0.00    +0.434 C 
ENDBRANCH  21  22
ENDBRANCH  10  15
BRANCH  11   8
ATOM      6  O   UNL     1      -3.775   3.362  24.207  0.00  0.00    -0.273 OA
ATOM      8  N   UNL     1      -2.432   2.186  25.698  0.00  0.00    -0.307 N 
ATOM     18  C   UNL     1      -3.091   3.313  25.224  0.00  0.00    +0.239 C 
ATOM     24  H   UNL     1      -1.936   2.245  26.582  0.00  0.00    +0.149 HD
BRANCH  18  20
ATOM     20  C   UNL     1      -2.872   4.512  26.123  0.00  0.00    +0.255 C 
BRANCH  20   7
ATOM      7  O   UNL     1      -2.099   5.493  25.465  0.00  0.00    -0.374 OA
ATOM     23  C   UNL     1      -0.860   4.968  24.998  0.00  0.00    +0.194 C 
ENDBRANCH  20   7
ENDBRANCH  18  20
ENDBRANCH  11   8
BRANCH  12   4
ATOM      4  O   UNL     1      -4.329  -0.229  26.147  0.00  0.00    -0.387 OA
ATOM     25  H   UNL     1      -5.302  -0.244  26.139  0.00  0.00    +0.210 HD
ENDBRANCH  12   4
BRANCH  14   5
ATOM      5  O   UNL     1      -3.146  -1.845  24.269  0.00  0.00    -0.389 OA
ATOM     26  H   UNL     1      -2.320  -1.569  24.701  0.00  0.00    +0.210 HD
ENDBRANCH  14   5
TORSDOF 7
ENDMDL
MODEL 7
REMARK VINA RESULT:      -2.5      4.438      6.747
REMARK  Name = 71693987
REMARK  8 active torsions:
REMARK  status: ('A' for Active; 'I' for Inactive)
REMARK    1  A    between atoms: O_4  and  C_12
REMARK    2  A    between atoms: O_5  and  C_14
REMARK    3  A    between atoms: O_7  and  C_20
REMARK    4  A    between atoms: O_7  and  C_23
REMARK    5  A    between atoms: N_8  and  C_11
REMARK    6  A    between atoms: C_10  and  C_15
REMARK    7  A    between atoms: C_18  and  C_20
REMARK    8  A    between atoms: C_21  and  C_22
REMARK                            x       y       z     vdW  Elec       q    Type
REMARK                         _______ _______ _______ _____ _____    ______ ____
ROOT
ATOM     10  C   UNL     1      -0.726  -0.059  24.827  0.00  0.00    +0.046 C 
ATOM     11  C   UNL     1       0.283   1.082  24.560  0.00  0.00    +0.111 C 
ATOM     12  C   UNL     1       1.362   0.410  23.712  0.00  0.00    +0.164 C 
ATOM     13  C   UNL     1      -0.509  -1.090  23.689  0.00  0.00    +0.044 C 
ATOM     14  C   UNL     1       0.561  -0.489  22.779  0.00  0.00    +0.145 C 
ENDROOT
BRANCH  10  15
ATOM      9  N   UNL     1      -3.742   2.241  24.760  0.00  0.00    -0.251 NA
ATOM     15  C   UNL     1      -2.153   0.431  24.962  0.00  0.00    -0.024 A 
ATOM     16  C   UNL     1      -3.164  -0.420  25.393  0.00  0.00    +0.007 A 
ATOM     17  C   UNL     1      -2.490   1.740  24.661  0.00  0.00    +0.115 A 
ATOM     19  C   UNL     1      -4.466   0.058  25.507  0.00  0.00    +0.032 A 
ATOM     21  C   UNL     1      -4.700   1.385  25.182  0.00  0.00    +0.144 A 
BRANCH  21  22
ATOM      1  F   UNL     1      -6.927   1.487  24.316  0.00  0.00    -0.164 F 
ATOM      2  F   UNL     1      -6.702   1.620  26.470  0.00  0.00    -0.164 F 
ATOM      3  F   UNL     1      -6.115   3.294  25.212  0.00  0.00    -0.164 F 
ATOM     22  C   UNL     1      -6.084   1.933  25.293  0.00  0.00    +0.434 C 
ENDBRANCH  21  22
ENDBRANCH  10  15
BRANCH  11   8
ATOM      6  O   UNL     1      -0.682   3.389  26.014  0.00  0.00    -0.273 OA
ATOM      8  N   UNL     1       0.818   1.626  25.781  0.00  0.00    -0.307 N 
ATOM     18  C   UNL     1       0.285   2.744  26.410  0.00  0.00    +0.239 C 
ATOM     24  H   UNL     1       1.589   1.136  26.227  0.00  0.00    +0.149 HD
BRANCH  18  20
ATOM     20  C   UNL     1       1.042   3.094  27.673  0.00  0.00    +0.255 C 
BRANCH  20   7
ATOM      7  O   UNL     1       0.647   2.257  28.739  0.00  0.00    -0.374 OA
ATOM     23  C   UNL     1       1.572   2.301  29.821  0.00  0.00    +0.194 C 
ENDBRANCH  20   7
ENDBRANCH  18  20
ENDBRANCH  11   8
BRANCH  12   4
ATOM      4  O   UNL     1       2.132   1.347  22.983  0.00  0.00    -0.387 OA
ATOM     25  H   UNL     1       2.960   1.489  23.473  0.00  0.00    +0.210 HD
ENDBRANCH  12   4
BRANCH  14   5
ATOM      5  O   UNL     1      -0.080   0.274  21.761  0.00  0.00    -0.389 OA
ATOM     26  H   UNL     1      -0.276  -0.329  21.024  0.00  0.00    +0.210 HD
ENDBRANCH  14   5
TORSDOF 7
ENDMDL
MODEL 8
REMARK VINA RESULT:      -1.4     16.901     18.717
REMARK  Name = 71693987
REMARK  8 active torsions:
REMARK  status: ('A' for Active; 'I' for Inactive)
REMARK    1  A    between atoms: O_4  and  C_12
REMARK    2  A    between atoms: O_5  and  C_14
REMARK    3  A    between atoms: O_7  and  C_20
REMARK    4  A    between atoms: O_7  and  C_23
REMARK    5  A    between atoms: N_8  and  C_11
REMARK    6  A    between atoms: C_10  and  C_15
REMARK    7  A    between atoms: C_18  and  C_20
REMARK    8  A    between atoms: C_21  and  C_22
REMARK                            x       y       z     vdW  Elec       q    Type
REMARK                         _______ _______ _______ _____ _____    ______ ____
ROOT
ATOM     10  C   UNL     1      14.532  -6.672  32.274  0.00  0.00    +0.046 C 
ATOM     11  C   UNL     1      13.092  -6.143  32.076  0.00  0.00    +0.111 C 
ATOM     12  C   UNL     1      13.090  -4.822  32.843  0.00  0.00    +0.164 C 
ATOM     13  C   UNL     1      15.398  -5.426  32.596  0.00  0.00    +0.044 C 
ATOM     14  C   UNL     1      14.455  -4.227  32.514  0.00  0.00    +0.145 C 
ENDROOT
BRANCH  10  15
ATOM      9  N   UNL     1      16.354  -9.343  30.292  0.00  0.00    -0.251 NA
ATOM     15  C   UNL     1      15.029  -7.491  31.102  0.00  0.00    -0.024 A 
ATOM     16  C   UNL     1      14.650  -7.182  29.801  0.00  0.00    +0.007 A 
ATOM     17  C   UNL     1      15.874  -8.572  31.293  0.00  0.00    +0.115 A 
ATOM     19  C   UNL     1      15.122  -7.954  28.743  0.00  0.00    +0.032 A 
ATOM     21  C   UNL     1      15.964  -9.013  29.040  0.00  0.00    +0.144 A 
BRANCH  21  22
ATOM      1  F   UNL     1      15.524 -10.579  27.286  0.00  0.00    -0.164 F 
ATOM      2  F   UNL     1      17.122  -9.151  26.951  0.00  0.00    -0.164 F 
ATOM      3  F   UNL     1      17.402 -10.781  28.363  0.00  0.00    -0.164 F 
ATOM     22  C   UNL     1      16.491  -9.862  27.931  0.00  0.00    +0.434 C 
ENDBRANCH  21  22
ENDBRANCH  10  15
BRANCH  11   8
ATOM      6  O   UNL     1      11.304  -7.813  30.534  0.00  0.00    -0.273 OA
ATOM      8  N   UNL     1      12.105  -7.062  32.584  0.00  0.00    -0.307 N 
ATOM     18  C   UNL     1      11.288  -7.826  31.762  0.00  0.00    +0.239 C 
ATOM     24  H   UNL     1      12.045  -7.192  33.590  0.00  0.00    +0.149 HD
BRANCH  18  20
ATOM     20  C   UNL     1      10.347  -8.703  32.560  0.00  0.00    +0.255 C 
BRANCH  20   7
ATOM      7  O   UNL     1       9.366  -9.274  31.722  0.00  0.00    -0.374 OA
ATOM     23  C   UNL     1       8.119  -8.593  31.823  0.00  0.00    +0.194 C 
ENDBRANCH  20   7
ENDBRANCH  18  20
ENDBRANCH  11   8
BRANCH  12   4
ATOM      4  O   UNL     1      12.045  -3.963  32.428  0.00  0.00    -0.387 OA
ATOM     25  H   UNL     1      11.385  -4.507  31.967  0.00  0.00    +0.210 HD
ENDBRANCH  12   4
BRANCH  14   5
ATOM      5  O   UNL     1      14.481  -3.716  31.185  0.00  0.00    -0.389 OA
ATOM     26  H   UNL     1      13.737  -4.116  30.704  0.00  0.00    +0.210 HD
ENDBRANCH  14   5
TORSDOF 7
ENDMDL
