MODEL 1
REMARK VINA RESULT:       5.5      0.000      0.000
REMARK  Name = 11882599
REMARK  13 active torsions:
REMARK  status: ('A' for Active; 'I' for Inactive)
REMARK    1  A    between atoms: S_1  and  N_12
REMARK    2  A    between atoms: S_1  and  C_32
REMARK    3  A    between atoms: N_11  and  C_27
REMARK    4  A    between atoms: N_12  and  C_17
REMARK    5  A    between atoms: N_13  and  C_31
REMARK    6  A    between atoms: N_13  and  C_36
REMARK    7  A    between atoms: C_15  and  C_21
REMARK    8  A    between atoms: C_16  and  C_28
REMARK    9  A    between atoms: C_21  and  C_27
REMARK   10  A    between atoms: C_27  and  C_30
REMARK   11  A    between atoms: C_29  and  C_31
REMARK   12  A    between atoms: C_31  and  C_33
REMARK   13  A    between atoms: C_37  and  C_40
REMARK                            x       y       z     vdW  Elec       q    Type
REMARK                         _______ _______ _______ _____ _____    ______ ____
ROOT
ATOM      6  O   UNL     1       3.528  -1.435  23.963  0.00  0.00    -0.274 OA
ATOM     10  N   UNL     1       1.414  -0.478  23.776  0.00  0.00    -0.289 N 
ATOM     16  C   UNL     1       0.538   0.590  23.265  0.00  0.00    +0.163 C 
ATOM     17  C   UNL     1      -1.469  -0.749  24.099  0.00  0.00    +0.080 C 
ATOM     20  C   UNL     1      -0.889   0.114  22.978  0.00  0.00    +0.052 C 
ATOM     22  C   UNL     1      -0.514  -1.886  24.450  0.00  0.00    +0.039 C 
ATOM     25  C   UNL     1       0.857  -1.340  24.825  0.00  0.00    +0.110 C 
ATOM     29  C   UNL     1       2.763  -0.623  23.435  0.00  0.00    +0.233 C 
ENDROOT
BRANCH  16  28
ATOM      5  O   UNL     1       1.454   2.553  24.273  0.00  0.00    -0.274 OA
ATOM     11  N   UNL     1      -0.475   1.615  25.179  0.00  0.00    -0.302 N 
ATOM     28  C   UNL     1       0.570   1.699  24.275  0.00  0.00    +0.234 C 
ATOM     41  H   UNL     1      -1.128   0.840  25.125  0.00  0.00    +0.150 HD
BRANCH  11  27
ATOM     27  C   UNL     1      -0.658   2.551  26.265  0.00  0.00    +0.159 C 
BRANCH  27  30
ATOM      7  O   UNL     1      -1.084   4.505  24.886  0.00  0.00    -0.274 OA
ATOM     14  N   UNL     1      -2.684   3.867  26.405  0.00  0.00    -0.328 N 
ATOM     30  C   UNL     1      -1.474   3.733  25.758  0.00  0.00    +0.231 C 
ATOM     44  H   UNL     1      -3.320   4.621  26.166  0.00  0.00    +0.145 HD
ATOM     45  H   UNL     1      -2.987   3.234  27.137  0.00  0.00    +0.145 HD
ENDBRANCH  27  30
BRANCH  27  21
ATOM     21  C   UNL     1       0.672   2.974  26.895  0.00  0.00    +0.035 C 
BRANCH  21  15
ATOM     15  C   UNL     1       0.973   2.302  28.234  0.00  0.00    -0.009 C 
ATOM     18  C   UNL     1       0.125   2.921  29.353  0.00  0.00    +0.003 C 
ATOM     19  C   UNL     1       2.469   2.400  28.565  0.00  0.00    +0.003 C 
ATOM     23  C   UNL     1       0.446   2.303  30.712  0.00  0.00    +0.000 C 
ATOM     24  C   UNL     1       2.786   1.782  29.925  0.00  0.00    +0.000 C 
ATOM     26  C   UNL     1       1.934   2.393  31.034  0.00  0.00    +0.000 C 
ENDBRANCH  21  15
ENDBRANCH  27  21
ENDBRANCH  11  27
ENDBRANCH  16  28
BRANCH  17  12
ATOM     12  N   UNL     1      -2.768  -1.315  23.658  0.00  0.00    -0.187 NA
ATOM     42  H   UNL     1      -2.913  -1.444  22.650  0.00  0.00    +0.148 HD
BRANCH  12   1
ATOM      1  S   UNL     1      -4.082  -1.350  24.733  0.00  0.00    +0.059 S 
ATOM      8  O   UNL     1      -3.612  -1.708  26.058  0.00  0.00    -0.153 OA
ATOM      9  O   UNL     1      -5.167  -2.089  24.119  0.00  0.00    -0.153 OA
BRANCH   1  32
ATOM     32  C   UNL     1      -4.570   0.349  24.770  0.00  0.00    +0.106 A 
ATOM     34  C   UNL     1      -3.989   1.261  23.889  0.00  0.00    +0.041 A 
ATOM     35  C   UNL     1      -5.537   0.777  25.678  0.00  0.00    +0.028 A 
ATOM     37  C   UNL     1      -4.374   2.601  23.918  0.00  0.00    +0.057 A 
ATOM     38  C   UNL     1      -5.924   2.117  25.707  0.00  0.00    +0.002 A 
ATOM     39  C   UNL     1      -5.342   3.029  24.827  0.00  0.00    +0.012 A 
BRANCH  37  40
ATOM      2  F   UNL     1      -4.392   3.656  21.771  0.00  0.00    -0.166 F 
ATOM      3  F   UNL     1      -3.729   4.856  23.452  0.00  0.00    -0.166 F 
ATOM      4  F   UNL     1      -2.456   3.270  22.683  0.00  0.00    -0.166 F 
ATOM     40  C   UNL     1      -3.753   3.576  22.976  0.00  0.00    +0.417 C 
ENDBRANCH  37  40
ENDBRANCH   1  32
ENDBRANCH  12   1
ENDBRANCH  17  12
BRANCH  29  31
ATOM     31  C   UNL     1       3.290   0.275  22.343  0.00  0.00    +0.137 C 
ATOM     33  C   UNL     1       2.698  -0.131  21.009  0.00  0.00    +0.034 C 
BRANCH  31  13
ATOM     13  N   UNL     1       4.736   0.131  22.339  0.00  0.00    -0.309 NA
ATOM     36  C   UNL     1       5.322   0.686  23.553  0.00  0.00    +0.101 C 
ATOM     43  H   UNL     1       4.979  -0.859  22.307  0.00  0.00    +0.122 HD
ENDBRANCH  31  13
ENDBRANCH  29  31
TORSDOF 11
ENDMDL
MODEL 2
REMARK VINA RESULT:       6.1      2.544      5.705
REMARK  Name = 11882599
REMARK  13 active torsions:
REMARK  status: ('A' for Active; 'I' for Inactive)
REMARK    1  A    between atoms: S_1  and  N_12
REMARK    2  A    between atoms: S_1  and  C_32
REMARK    3  A    between atoms: N_11  and  C_27
REMARK    4  A    between atoms: N_12  and  C_17
REMARK    5  A    between atoms: N_13  and  C_31
REMARK    6  A    between atoms: N_13  and  C_36
REMARK    7  A    between atoms: C_15  and  C_21
REMARK    8  A    between atoms: C_16  and  C_28
REMARK    9  A    between atoms: C_21  and  C_27
REMARK   10  A    between atoms: C_27  and  C_30
REMARK   11  A    between atoms: C_29  and  C_31
REMARK   12  A    between atoms: C_31  and  C_33
REMARK   13  A    between atoms: C_37  and  C_40
REMARK                            x       y       z     vdW  Elec       q    Type
REMARK                         _______ _______ _______ _____ _____    ______ ____
ROOT
ATOM      6  O   UNL     1       2.510   2.856  27.488  0.00  0.00    -0.274 OA
ATOM     10  N   UNL     1       0.386   2.643  26.560  0.00  0.00    -0.289 N 
ATOM     16  C   UNL     1      -0.980   2.094  26.612  0.00  0.00    +0.163 C 
ATOM     17  C   UNL     1      -1.581   3.579  24.624  0.00  0.00    +0.080 C 
ATOM     20  C   UNL     1      -2.024   3.015  25.974  0.00  0.00    +0.052 C 
ATOM     22  C   UNL     1      -0.202   4.221  24.738  0.00  0.00    +0.039 C 
ATOM     25  C   UNL     1       0.812   3.223  25.280  0.00  0.00    +0.110 C 
ATOM     29  C   UNL     1       1.329   2.513  27.585  0.00  0.00    +0.233 C 
ENDROOT
BRANCH  16  28
ATOM      5  O   UNL     1      -1.353  -0.263  26.505  0.00  0.00    -0.274 OA
ATOM     11  N   UNL     1      -0.359   0.804  24.690  0.00  0.00    -0.302 N 
ATOM     28  C   UNL     1      -0.934   0.748  25.949  0.00  0.00    +0.234 C 
ATOM     41  H   UNL     1       0.001   1.685  24.339  0.00  0.00    +0.150 HD
BRANCH  11  27
ATOM     27  C   UNL     1      -0.177  -0.359  23.853  0.00  0.00    +0.159 C 
BRANCH  27  30
ATOM      7  O   UNL     1       1.029  -1.737  25.451  0.00  0.00    -0.274 OA
ATOM     14  N   UNL     1      -0.990  -2.493  24.658  0.00  0.00    -0.328 N 
ATOM     30  C   UNL     1       0.036  -1.575  24.747  0.00  0.00    +0.231 C 
ATOM     44  H   UNL     1      -0.966  -3.352  25.198  0.00  0.00    +0.145 HD
ATOM     45  H   UNL     1      -1.796  -2.356  24.059  0.00  0.00    +0.145 HD
ENDBRANCH  27  30
BRANCH  27  21
ATOM     21  C   UNL     1       0.949  -0.169  22.833  0.00  0.00    +0.035 C 
BRANCH  21  15
ATOM     15  C   UNL     1       2.340  -0.039  23.452  0.00  0.00    -0.009 C 
ATOM     18  C   UNL     1       3.132   1.086  22.772  0.00  0.00    +0.003 C 
ATOM     19  C   UNL     1       3.098  -1.370  23.365  0.00  0.00    +0.003 C 
ATOM     23  C   UNL     1       4.546   1.202  23.337  0.00  0.00    +0.000 C 
ATOM     24  C   UNL     1       4.513  -1.250  23.930  0.00  0.00    +0.000 C 
ATOM     26  C   UNL     1       5.294  -0.125  23.259  0.00  0.00    +0.000 C 
ENDBRANCH  21  15
ENDBRANCH  27  21
ENDBRANCH  11  27
ENDBRANCH  16  28
BRANCH  17  12
ATOM     12  N   UNL     1      -2.563   4.596  24.173  0.00  0.00    -0.187 NA
ATOM     42  H   UNL     1      -2.518   5.525  24.606  0.00  0.00    +0.148 HD
BRANCH  12   1
ATOM      1  S   UNL     1      -3.936   4.114  23.298  0.00  0.00    +0.059 S 
ATOM      8  O   UNL     1      -3.526   3.565  22.019  0.00  0.00    -0.153 OA
ATOM      9  O   UNL     1      -4.921   5.175  23.354  0.00  0.00    -0.153 OA
BRANCH   1  32
ATOM     32  C   UNL     1      -4.552   2.785  24.288  0.00  0.00    +0.106 A 
ATOM     34  C   UNL     1      -4.142   1.477  24.034  0.00  0.00    +0.041 A 
ATOM     35  C   UNL     1      -5.449   3.046  25.324  0.00  0.00    +0.028 A 
ATOM     37  C   UNL     1      -4.628   0.429  24.815  0.00  0.00    +0.057 A 
ATOM     38  C   UNL     1      -5.935   1.998  26.106  0.00  0.00    +0.002 A 
ATOM     39  C   UNL     1      -5.525   0.689  25.851  0.00  0.00    +0.012 A 
BRANCH  37  40
ATOM      2  F   UNL     1      -3.852  -1.667  25.669  0.00  0.00    -0.166 F 
ATOM      3  F   UNL     1      -5.140  -1.732  23.926  0.00  0.00    -0.166 F 
ATOM      4  F   UNL     1      -3.092  -1.029  23.734  0.00  0.00    -0.166 F 
ATOM     40  C   UNL     1      -4.189  -0.970  24.543  0.00  0.00    +0.417 C 
ENDBRANCH  37  40
ENDBRANCH   1  32
ENDBRANCH  12   1
ENDBRANCH  17  12
BRANCH  29  31
ATOM     31  C   UNL     1       0.843   1.922  28.886  0.00  0.00    +0.137 C 
ATOM     33  C   UNL     1       0.113   2.977  29.692  0.00  0.00    +0.034 C 
BRANCH  31  13
ATOM     13  N   UNL     1       2.016   1.440  29.594  0.00  0.00    -0.309 NA
ATOM     36  C   UNL     1       2.007   1.880  30.984  0.00  0.00    +0.101 C 
ATOM     43  H   UNL     1       2.019   0.420  29.595  0.00  0.00    +0.122 HD
ENDBRANCH  31  13
ENDBRANCH  29  31
TORSDOF 11
ENDMDL
MODEL 3
REMARK VINA RESULT:       7.6      1.875      3.399
REMARK  Name = 11882599
REMARK  13 active torsions:
REMARK  status: ('A' for Active; 'I' for Inactive)
REMARK    1  A    between atoms: S_1  and  N_12
REMARK    2  A    between atoms: S_1  and  C_32
REMARK    3  A    between atoms: N_11  and  C_27
REMARK    4  A    between atoms: N_12  and  C_17
REMARK    5  A    between atoms: N_13  and  C_31
REMARK    6  A    between atoms: N_13  and  C_36
REMARK    7  A    between atoms: C_15  and  C_21
REMARK    8  A    between atoms: C_16  and  C_28
REMARK    9  A    between atoms: C_21  and  C_27
REMARK   10  A    between atoms: C_27  and  C_30
REMARK   11  A    between atoms: C_29  and  C_31
REMARK   12  A    between atoms: C_31  and  C_33
REMARK   13  A    between atoms: C_37  and  C_40
REMARK                            x       y       z     vdW  Elec       q    Type
REMARK                         _______ _______ _______ _____ _____    ______ ____
ROOT
ATOM      6  O   UNL     1       4.064  -1.414  24.132  0.00  0.00    -0.274 OA
ATOM     10  N   UNL     1       1.852  -0.743  23.857  0.00  0.00    -0.289 N 
ATOM     16  C   UNL     1       0.862   0.180  23.276  0.00  0.00    +0.163 C 
ATOM     17  C   UNL     1      -0.982  -1.360  24.142  0.00  0.00    +0.080 C 
ATOM     20  C   UNL     1      -0.486  -0.486  22.988  0.00  0.00    +0.052 C 
ATOM     22  C   UNL     1       0.100  -2.348  24.567  0.00  0.00    +0.039 C 
ATOM     25  C   UNL     1       1.381  -1.615  24.939  0.00  0.00    +0.110 C 
ATOM     29  C   UNL     1       3.217  -0.732  23.549  0.00  0.00    +0.233 C 
ENDROOT
BRANCH  16  28
ATOM      5  O   UNL     1       1.257   2.420  24.006  0.00  0.00    -0.274 OA
ATOM     11  N   UNL     1      -0.016   1.004  25.348  0.00  0.00    -0.302 N 
ATOM     28  C   UNL     1       0.730   1.333  24.228  0.00  0.00    +0.234 C 
ATOM     41  H   UNL     1      -0.368   0.060  25.459  0.00  0.00    +0.150 HD
BRANCH  11  27
ATOM     27  C   UNL     1      -0.271   1.932  26.426  0.00  0.00    +0.159 C 
BRANCH  27  30
ATOM      7  O   UNL     1      -0.138   0.109  28.028  0.00  0.00    -0.274 OA
ATOM     14  N   UNL     1       0.793   2.132  28.591  0.00  0.00    -0.328 N 
ATOM     30  C   UNL     1       0.128   1.273  27.740  0.00  0.00    +0.231 C 
ATOM     44  H   UNL     1       1.107   1.819  29.504  0.00  0.00    +0.145 HD
ATOM     45  H   UNL     1       0.991   3.097  28.349  0.00  0.00    +0.145 HD
ENDBRANCH  27  30
BRANCH  27  21
ATOM     21  C   UNL     1      -1.718   2.432  26.429  0.00  0.00    +0.035 C 
BRANCH  21  15
ATOM     15  C   UNL     1      -1.966   3.639  25.526  0.00  0.00    -0.009 C 
ATOM     18  C   UNL     1      -0.644   4.345  25.192  0.00  0.00    +0.003 C 
ATOM     19  C   UNL     1      -2.954   4.613  26.181  0.00  0.00    +0.003 C 
ATOM     23  C   UNL     1      -0.869   5.587  24.333  0.00  0.00    +0.000 C 
ATOM     24  C   UNL     1      -3.176   5.855  25.320  0.00  0.00    +0.000 C 
ATOM     26  C   UNL     1      -1.860   6.549  24.982  0.00  0.00    +0.000 C 
ENDBRANCH  21  15
ENDBRANCH  27  21
ENDBRANCH  11  27
ENDBRANCH  16  28
BRANCH  17  12
ATOM     12  N   UNL     1      -2.188  -2.106  23.707  0.00  0.00    -0.187 NA
ATOM     42  H   UNL     1      -2.151  -2.583  22.799  0.00  0.00    +0.148 HD
BRANCH  12   1
ATOM      1  S   UNL     1      -3.674  -1.831  24.481  0.00  0.00    +0.059 S 
ATOM      8  O   UNL     1      -3.520  -2.033  25.909  0.00  0.00    -0.153 OA
ATOM      9  O   UNL     1      -4.715  -2.531  23.754  0.00  0.00    -0.153 OA
BRANCH   1  32
ATOM     32  C   UNL     1      -3.920  -0.104  24.198  0.00  0.00    +0.106 A 
ATOM     34  C   UNL     1      -4.850   0.603  24.960  0.00  0.00    +0.041 A 
ATOM     35  C   UNL     1      -3.183   0.553  23.213  0.00  0.00    +0.028 A 
ATOM     37  C   UNL     1      -5.044   1.965  24.737  0.00  0.00    +0.057 A 
ATOM     38  C   UNL     1      -3.376   1.916  22.990  0.00  0.00    +0.002 A 
ATOM     39  C   UNL     1      -4.307   2.623  23.752  0.00  0.00    +0.012 A 
BRANCH  37  40
ATOM      2  F   UNL     1      -5.964   4.075  25.388  0.00  0.00    -0.166 F 
ATOM      3  F   UNL     1      -7.336   2.399  25.268  0.00  0.00    -0.166 F 
ATOM      4  F   UNL     1      -5.893   2.505  26.891  0.00  0.00    -0.166 F 
ATOM     40  C   UNL     1      -6.039   2.721  25.552  0.00  0.00    +0.417 C 
ENDBRANCH  37  40
ENDBRANCH   1  32
ENDBRANCH  12   1
ENDBRANCH  17  12
BRANCH  29  31
ATOM     31  C   UNL     1       3.654   0.171  22.421  0.00  0.00    +0.137 C 
ATOM     33  C   UNL     1       2.941  -0.218  21.142  0.00  0.00    +0.034 C 
BRANCH  31  13
ATOM     13  N   UNL     1       5.092   0.014  22.288  0.00  0.00    -0.309 NA
ATOM     36  C   UNL     1       5.779   0.429  23.505  0.00  0.00    +0.101 C 
ATOM     43  H   UNL     1       5.314  -0.969  22.130  0.00  0.00    +0.122 HD
ENDBRANCH  31  13
ENDBRANCH  29  31
TORSDOF 11
ENDMDL
MODEL 4
REMARK VINA RESULT:       7.7      3.141      5.289
REMARK  Name = 11882599
REMARK  13 active torsions:
REMARK  status: ('A' for Active; 'I' for Inactive)
REMARK    1  A    between atoms: S_1  and  N_12
REMARK    2  A    between atoms: S_1  and  C_32
REMARK    3  A    between atoms: N_11  and  C_27
REMARK    4  A    between atoms: N_12  and  C_17
REMARK    5  A    between atoms: N_13  and  C_31
REMARK    6  A    between atoms: N_13  and  C_36
REMARK    7  A    between atoms: C_15  and  C_21
REMARK    8  A    between atoms: C_16  and  C_28
REMARK    9  A    between atoms: C_21  and  C_27
REMARK   10  A    between atoms: C_27  and  C_30
REMARK   11  A    between atoms: C_29  and  C_31
REMARK   12  A    between atoms: C_31  and  C_33
REMARK   13  A    between atoms: C_37  and  C_40
REMARK                            x       y       z     vdW  Elec       q    Type
REMARK                         _______ _______ _______ _____ _____    ______ ____
ROOT
ATOM      6  O   UNL     1       1.736  -0.688  21.689  0.00  0.00    -0.274 OA
ATOM     10  N   UNL     1       0.510   0.860  22.923  0.00  0.00    -0.289 N 
ATOM     16  C   UNL     1       0.420   1.817  24.039  0.00  0.00    +0.163 C 
ATOM     17  C   UNL     1      -1.853   2.551  23.135  0.00  0.00    +0.080 C 
ATOM     20  C   UNL     1      -0.524   2.989  23.752  0.00  0.00    +0.052 C 
ATOM     22  C   UNL     1      -1.612   1.660  21.921  0.00  0.00    +0.039 C 
ATOM     25  C   UNL     1      -0.755   0.460  22.296  0.00  0.00    +0.110 C 
ATOM     29  C   UNL     1       1.687   0.211  22.534  0.00  0.00    +0.233 C 
ENDROOT
BRANCH  16  28
ATOM      5  O   UNL     1      -0.173   1.575  26.341  0.00  0.00    -0.274 OA
ATOM     11  N   UNL     1      -0.143  -0.314  24.979  0.00  0.00    -0.302 N 
ATOM     28  C   UNL     1      -0.003   1.037  25.249  0.00  0.00    +0.234 C 
ATOM     41  H   UNL     1       0.070  -0.667  24.052  0.00  0.00    +0.150 HD
BRANCH  11  27
ATOM     27  C   UNL     1      -0.520  -1.285  25.980  0.00  0.00    +0.159 C 
BRANCH  27  30
ATOM      7  O   UNL     1      -0.231  -3.698  25.927  0.00  0.00    -0.274 OA
ATOM     14  N   UNL     1      -0.909  -2.634  24.008  0.00  0.00    -0.328 N 
ATOM     30  C   UNL     1      -0.540  -2.666  25.337  0.00  0.00    +0.231 C 
ATOM     44  H   UNL     1      -0.954  -3.487  23.461  0.00  0.00    +0.145 HD
ATOM     45  H   UNL     1      -1.144  -1.773  23.526  0.00  0.00    +0.145 HD
ENDBRANCH  27  30
BRANCH  27  21
ATOM     21  C   UNL     1      -1.844  -0.930  26.663  0.00  0.00    +0.035 C 
BRANCH  21  15
ATOM     15  C   UNL     1      -3.075  -1.119  25.779  0.00  0.00    -0.009 C 
ATOM     18  C   UNL     1      -3.184  -2.576  25.306  0.00  0.00    +0.003 C 
ATOM     19  C   UNL     1      -3.036  -0.159  24.583  0.00  0.00    +0.003 C 
ATOM     23  C   UNL     1      -4.378  -2.780  24.377  0.00  0.00    +0.000 C 
ATOM     24  C   UNL     1      -4.231  -0.367  23.654  0.00  0.00    +0.000 C 
ATOM     26  C   UNL     1      -4.341  -1.817  23.194  0.00  0.00    +0.000 C 
ENDBRANCH  21  15
ENDBRANCH  27  21
ENDBRANCH  11  27
ENDBRANCH  16  28
BRANCH  17  12
ATOM     12  N   UNL     1      -2.619   3.753  22.722  0.00  0.00    -0.187 NA
ATOM     42  H   UNL     1      -2.795   3.883  21.719  0.00  0.00    +0.148 HD
BRANCH  12   1
ATOM      1  S   UNL     1      -2.825   5.039  23.811  0.00  0.00    +0.059 S 
ATOM      8  O   UNL     1      -3.795   5.975  23.276  0.00  0.00    -0.153 OA
ATOM      9  O   UNL     1      -1.519   5.505  24.235  0.00  0.00    -0.153 OA
BRANCH   1  32
ATOM     32  C   UNL     1      -3.558   4.228  25.200  0.00  0.00    +0.106 A 
ATOM     34  C   UNL     1      -4.581   3.300  25.007  0.00  0.00    +0.041 A 
ATOM     35  C   UNL     1      -3.113   4.515  26.490  0.00  0.00    +0.028 A 
ATOM     37  C   UNL     1      -5.160   2.660  26.103  0.00  0.00    +0.057 A 
ATOM     38  C   UNL     1      -3.691   3.875  27.587  0.00  0.00    +0.002 A 
ATOM     39  C   UNL     1      -4.715   2.948  27.393  0.00  0.00    +0.012 A 
BRANCH  37  40
ATOM      2  F   UNL     1      -7.219   1.709  26.862  0.00  0.00    -0.166 F 
ATOM      3  F   UNL     1      -6.924   1.832  24.717  0.00  0.00    -0.166 F 
ATOM      4  F   UNL     1      -5.801   0.381  25.884  0.00  0.00    -0.166 F 
ATOM     40  C   UNL     1      -6.254   1.668  25.895  0.00  0.00    +0.417 C 
ENDBRANCH  37  40
ENDBRANCH   1  32
ENDBRANCH  12   1
ENDBRANCH  17  12
BRANCH  29  31
ATOM     31  C   UNL     1       2.965   0.662  23.197  0.00  0.00    +0.137 C 
ATOM     33  C   UNL     1       3.713   1.613  22.284  0.00  0.00    +0.034 C 
BRANCH  31  13
ATOM     13  N   UNL     1       3.748  -0.533  23.463  0.00  0.00    -0.309 NA
ATOM     36  C   UNL     1       5.169  -0.221  23.549  0.00  0.00    +0.101 C 
ATOM     43  H   UNL     1       3.466  -0.931  24.359  0.00  0.00    +0.122 HD
ENDBRANCH  31  13
ENDBRANCH  29  31
TORSDOF 11
ENDMDL
MODEL 5
REMARK VINA RESULT:       8.0      3.393      6.564
REMARK  Name = 11882599
REMARK  13 active torsions:
REMARK  status: ('A' for Active; 'I' for Inactive)
REMARK    1  A    between atoms: S_1  and  N_12
REMARK    2  A    between atoms: S_1  and  C_32
REMARK    3  A    between atoms: N_11  and  C_27
REMARK    4  A    between atoms: N_12  and  C_17
REMARK    5  A    between atoms: N_13  and  C_31
REMARK    6  A    between atoms: N_13  and  C_36
REMARK    7  A    between atoms: C_15  and  C_21
REMARK    8  A    between atoms: C_16  and  C_28
REMARK    9  A    between atoms: C_21  and  C_27
REMARK   10  A    between atoms: C_27  and  C_30
REMARK   11  A    between atoms: C_29  and  C_31
REMARK   12  A    between atoms: C_31  and  C_33
REMARK   13  A    between atoms: C_37  and  C_40
REMARK                            x       y       z     vdW  Elec       q    Type
REMARK                         _______ _______ _______ _____ _____    ______ ____
ROOT
ATOM      6  O   UNL     1      -6.731   1.904  24.186  0.00  0.00    -0.274 OA
ATOM     10  N   UNL     1      -4.588   1.224  24.790  0.00  0.00    -0.289 N 
ATOM     16  C   UNL     1      -3.468   1.235  25.746  0.00  0.00    +0.163 C 
ATOM     17  C   UNL     1      -2.331  -0.563  24.335  0.00  0.00    +0.080 C 
ATOM     20  C   UNL     1      -2.659  -0.065  25.743  0.00  0.00    +0.052 C 
ATOM     22  C   UNL     1      -3.596  -0.638  23.485  0.00  0.00    +0.039 C 
ATOM     25  C   UNL     1      -4.298   0.712  23.445  0.00  0.00    +0.110 C 
ATOM     29  C   UNL     1      -5.840   1.797  25.034  0.00  0.00    +0.233 C 
ENDROOT
BRANCH  16  28
ATOM      5  O   UNL     1      -3.027   3.327  24.679  0.00  0.00    -0.274 OA
ATOM     11  N   UNL     1      -1.368   2.362  25.997  0.00  0.00    -0.302 N 
ATOM     28  C   UNL     1      -2.620   2.428  25.411  0.00  0.00    +0.234 C 
ATOM     41  H   UNL     1      -1.111   1.549  26.547  0.00  0.00    +0.150 HD
BRANCH  11  27
ATOM     27  C   UNL     1      -0.355   3.376  25.812  0.00  0.00    +0.159 C 
BRANCH  27  30
ATOM      7  O   UNL     1      -0.142   3.117  23.405  0.00  0.00    -0.274 OA
ATOM     14  N   UNL     1      -0.706   5.182  24.238  0.00  0.00    -0.328 N 
ATOM     30  C   UNL     1      -0.393   3.844  24.363  0.00  0.00    +0.231 C 
ATOM     44  H   UNL     1      -0.756   5.620  23.325  0.00  0.00    +0.145 HD
ATOM     45  H   UNL     1      -0.893   5.776  25.039  0.00  0.00    +0.145 HD
ENDBRANCH  27  30
BRANCH  27  21
ATOM     21  C   UNL     1       1.033   2.894  26.244  0.00  0.00    +0.035 C 
BRANCH  21  15
ATOM     15  C   UNL     1       1.334   3.100  27.727  0.00  0.00    -0.009 C 
ATOM     18  C   UNL     1       2.798   2.756  28.036  0.00  0.00    +0.003 C 
ATOM     19  C   UNL     1       0.383   2.264  28.594  0.00  0.00    +0.003 C 
ATOM     23  C   UNL     1       3.111   2.903  29.523  0.00  0.00    +0.000 C 
ATOM     24  C   UNL     1       0.700   2.411  30.081  0.00  0.00    +0.000 C 
ATOM     26  C   UNL     1       2.158   2.078  30.382  0.00  0.00    +0.000 C 
ENDBRANCH  21  15
ENDBRANCH  27  21
ENDBRANCH  11  27
ENDBRANCH  16  28
BRANCH  17  12
ATOM     12  N   UNL     1      -1.716  -1.910  24.424  0.00  0.00    -0.187 NA
ATOM     42  H   UNL     1      -2.320  -2.722  24.246  0.00  0.00    +0.148 HD
BRANCH  12   1
ATOM      1  S   UNL     1      -0.209  -2.101  25.182  0.00  0.00    +0.059 S 
ATOM      8  O   UNL     1       0.161  -3.504  25.176  0.00  0.00    -0.153 OA
ATOM      9  O   UNL     1      -0.214  -1.353  26.425  0.00  0.00    -0.153 OA
BRANCH   1  32
ATOM     32  C   UNL     1       0.870  -1.249  24.072  0.00  0.00    +0.106 A 
ATOM     34  C   UNL     1       2.246  -1.248  24.298  0.00  0.00    +0.041 A 
ATOM     35  C   UNL     1       0.345  -0.577  22.968  0.00  0.00    +0.028 A 
ATOM     37  C   UNL     1       3.097  -0.576  23.422  0.00  0.00    +0.057 A 
ATOM     38  C   UNL     1       1.196   0.095  22.091  0.00  0.00    +0.002 A 
ATOM     39  C   UNL     1       2.573   0.096  22.318  0.00  0.00    +0.012 A 
BRANCH  37  40
ATOM      2  F   UNL     1       5.297  -0.099  22.611  0.00  0.00    -0.166 F 
ATOM      3  F   UNL     1       4.947   0.190  24.732  0.00  0.00    -0.166 F 
ATOM      4  F   UNL     1       5.061  -1.822  23.917  0.00  0.00    -0.166 F 
ATOM     40  C   UNL     1       4.569  -0.575  23.665  0.00  0.00    +0.417 C 
ENDBRANCH  37  40
ENDBRANCH   1  32
ENDBRANCH  12   1
ENDBRANCH  17  12
BRANCH  29  31
ATOM     31  C   UNL     1      -6.098   2.299  26.434  0.00  0.00    +0.137 C 
ATOM     33  C   UNL     1      -7.033   1.352  27.158  0.00  0.00    +0.034 C 
BRANCH  31  13
ATOM     13  N   UNL     1      -6.688   3.621  26.305  0.00  0.00    -0.309 NA
ATOM     36  C   UNL     1      -5.769   4.544  25.651  0.00  0.00    +0.101 C 
ATOM     43  H   UNL     1      -7.528   3.564  25.729  0.00  0.00    +0.122 HD
ENDBRANCH  31  13
ENDBRANCH  29  31
TORSDOF 11
ENDMDL
MODEL 6
REMARK VINA RESULT:       8.1      1.554      2.997
REMARK  Name = 11882599
REMARK  13 active torsions:
REMARK  status: ('A' for Active; 'I' for Inactive)
REMARK    1  A    between atoms: S_1  and  N_12
REMARK    2  A    between atoms: S_1  and  C_32
REMARK    3  A    between atoms: N_11  and  C_27
REMARK    4  A    between atoms: N_12  and  C_17
REMARK    5  A    between atoms: N_13  and  C_31
REMARK    6  A    between atoms: N_13  and  C_36
REMARK    7  A    between atoms: C_15  and  C_21
REMARK    8  A    between atoms: C_16  and  C_28
REMARK    9  A    between atoms: C_21  and  C_27
REMARK   10  A    between atoms: C_27  and  C_30
REMARK   11  A    between atoms: C_29  and  C_31
REMARK   12  A    between atoms: C_31  and  C_33
REMARK   13  A    between atoms: C_37  and  C_40
REMARK                            x       y       z     vdW  Elec       q    Type
REMARK                         _______ _______ _______ _____ _____    ______ ____
ROOT
ATOM      6  O   UNL     1       3.993  -1.439  24.110  0.00  0.00    -0.274 OA
ATOM     10  N   UNL     1       1.781  -0.749  23.882  0.00  0.00    -0.289 N 
ATOM     16  C   UNL     1       0.786   0.177  23.314  0.00  0.00    +0.163 C 
ATOM     17  C   UNL     1      -1.050  -1.334  24.245  0.00  0.00    +0.080 C 
ATOM     20  C   UNL     1      -0.575  -0.479  23.069  0.00  0.00    +0.052 C 
ATOM     22  C   UNL     1       0.032  -2.328  24.655  0.00  0.00    +0.039 C 
ATOM     25  C   UNL     1       1.330  -1.603  24.986  0.00  0.00    +0.110 C 
ATOM     29  C   UNL     1       3.138  -0.755  23.540  0.00  0.00    +0.233 C 
ENDROOT
BRANCH  16  28
ATOM      5  O   UNL     1       1.297   2.391  24.054  0.00  0.00    -0.274 OA
ATOM     11  N   UNL     1      -0.125   1.072  25.342  0.00  0.00    -0.302 N 
ATOM     28  C   UNL     1       0.689   1.342  24.255  0.00  0.00    +0.234 C 
ATOM     41  H   UNL     1      -0.544   0.153  25.442  0.00  0.00    +0.150 HD
BRANCH  11  27
ATOM     27  C   UNL     1      -0.366   2.021  26.405  0.00  0.00    +0.159 C 
BRANCH  27  30
ATOM      7  O   UNL     1       0.716   2.067  28.580  0.00  0.00    -0.274 OA
ATOM     14  N   UNL     1      -0.120   0.069  27.815  0.00  0.00    -0.328 N 
ATOM     30  C   UNL     1       0.129   1.422  27.715  0.00  0.00    +0.231 C 
ATOM     44  H   UNL     1       0.167  -0.452  28.637  0.00  0.00    +0.145 HD
ATOM     45  H   UNL     1      -0.590  -0.456  27.085  0.00  0.00    +0.145 HD
ENDBRANCH  27  30
BRANCH  27  21
ATOM     21  C   UNL     1      -1.832   2.459  26.469  0.00  0.00    +0.035 C 
BRANCH  21  15
ATOM     15  C   UNL     1      -2.060   3.934  26.142  0.00  0.00    -0.009 C 
ATOM     18  C   UNL     1      -3.466   4.150  25.565  0.00  0.00    +0.003 C 
ATOM     19  C   UNL     1      -0.987   4.446  25.172  0.00  0.00    +0.003 C 
ATOM     23  C   UNL     1      -3.700   5.609  25.180  0.00  0.00    +0.000 C 
ATOM     24  C   UNL     1      -1.225   5.905  24.788  0.00  0.00    +0.000 C 
ATOM     26  C   UNL     1      -2.627   6.118  24.223  0.00  0.00    +0.000 C 
ENDBRANCH  21  15
ENDBRANCH  27  21
ENDBRANCH  11  27
ENDBRANCH  16  28
BRANCH  17  12
ATOM     12  N   UNL     1      -2.275  -2.073  23.849  0.00  0.00    -0.187 NA
ATOM     42  H   UNL     1      -2.312  -2.455  22.897  0.00  0.00    +0.148 HD
BRANCH  12   1
ATOM      1  S   UNL     1      -3.686  -1.927  24.781  0.00  0.00    +0.059 S 
ATOM      8  O   UNL     1      -3.355  -2.078  26.186  0.00  0.00    -0.153 OA
ATOM      9  O   UNL     1      -4.725  -2.743  24.185  0.00  0.00    -0.153 OA
BRANCH   1  32
ATOM     32  C   UNL     1      -4.133  -0.239  24.505  0.00  0.00    +0.106 A 
ATOM     34  C   UNL     1      -3.423   0.530  23.584  0.00  0.00    +0.041 A 
ATOM     35  C   UNL     1      -5.198   0.324  25.209  0.00  0.00    +0.028 A 
ATOM     37  C   UNL     1      -3.776   1.861  23.366  0.00  0.00    +0.057 A 
ATOM     38  C   UNL     1      -5.552   1.655  24.991  0.00  0.00    +0.002 A 
ATOM     39  C   UNL     1      -4.841   2.424  24.070  0.00  0.00    +0.012 A 
BRANCH  37  40
ATOM      2  F   UNL     1      -2.690   2.006  21.240  0.00  0.00    -0.166 F 
ATOM      3  F   UNL     1      -3.692   3.791  21.956  0.00  0.00    -0.166 F 
ATOM      4  F   UNL     1      -1.834   3.146  22.884  0.00  0.00    -0.166 F 
ATOM     40  C   UNL     1      -3.016   2.683  22.381  0.00  0.00    +0.417 C 
ENDBRANCH  37  40
ENDBRANCH   1  32
ENDBRANCH  12   1
ENDBRANCH  17  12
BRANCH  29  31
ATOM     31  C   UNL     1       3.555   0.130  22.391  0.00  0.00    +0.137 C 
ATOM     33  C   UNL     1       2.890  -0.336  21.112  0.00  0.00    +0.034 C 
BRANCH  31  13
ATOM     13  N   UNL     1       5.002   0.039  22.292  0.00  0.00    -0.309 NA
ATOM     36  C   UNL     1       5.644   0.579  23.484  0.00  0.00    +0.101 C 
ATOM     43  H   UNL     1       5.276  -0.940  22.213  0.00  0.00    +0.122 HD
ENDBRANCH  31  13
ENDBRANCH  29  31
TORSDOF 11
ENDMDL
MODEL 7
REMARK VINA RESULT:       8.2      2.799      5.737
REMARK  Name = 11882599
REMARK  13 active torsions:
REMARK  status: ('A' for Active; 'I' for Inactive)
REMARK    1  A    between atoms: S_1  and  N_12
REMARK    2  A    between atoms: S_1  and  C_32
REMARK    3  A    between atoms: N_11  and  C_27
REMARK    4  A    between atoms: N_12  and  C_17
REMARK    5  A    between atoms: N_13  and  C_31
REMARK    6  A    between atoms: N_13  and  C_36
REMARK    7  A    between atoms: C_15  and  C_21
REMARK    8  A    between atoms: C_16  and  C_28
REMARK    9  A    between atoms: C_21  and  C_27
REMARK   10  A    between atoms: C_27  and  C_30
REMARK   11  A    between atoms: C_29  and  C_31
REMARK   12  A    between atoms: C_31  and  C_33
REMARK   13  A    between atoms: C_37  and  C_40
REMARK                            x       y       z     vdW  Elec       q    Type
REMARK                         _______ _______ _______ _____ _____    ______ ____
ROOT
ATOM      6  O   UNL     1       2.054   4.552  26.897  0.00  0.00    -0.274 OA
ATOM     10  N   UNL     1       0.046   3.579  26.235  0.00  0.00    -0.289 N 
ATOM     16  C   UNL     1      -0.825   2.396  26.130  0.00  0.00    +0.163 C 
ATOM     17  C   UNL     1      -2.702   3.931  25.329  0.00  0.00    +0.080 C 
ATOM     20  C   UNL     1      -2.316   2.737  26.202  0.00  0.00    +0.052 C 
ATOM     22  C   UNL     1      -1.796   5.123  25.621  0.00  0.00    +0.039 C 
ATOM     25  C   UNL     1      -0.333   4.747  25.430  0.00  0.00    +0.110 C 
ATOM     29  C   UNL     1       1.264   3.604  26.921  0.00  0.00    +0.233 C 
ENDROOT
BRANCH  16  28
ATOM      5  O   UNL     1      -0.156   2.330  23.837  0.00  0.00    -0.274 OA
ATOM     11  N   UNL     1      -0.552   0.326  24.954  0.00  0.00    -0.302 N 
ATOM     28  C   UNL     1      -0.466   1.704  24.847  0.00  0.00    +0.234 C 
ATOM     41  H   UNL     1      -0.867  -0.094  25.823  0.00  0.00    +0.150 HD
BRANCH  11  27
ATOM     27  C   UNL     1      -0.279  -0.570  23.854  0.00  0.00    +0.159 C 
BRANCH  27  30
ATOM      7  O   UNL     1      -0.198  -2.999  23.804  0.00  0.00    -0.274 OA
ATOM     14  N   UNL     1       0.521  -1.918  25.698  0.00  0.00    -0.328 N 
ATOM     30  C   UNL     1       0.017  -1.956  24.415  0.00  0.00    +0.231 C 
ATOM     44  H   UNL     1       0.753  -2.775  26.190  0.00  0.00    +0.145 HD
ATOM     45  H   UNL     1       0.677  -1.050  26.200  0.00  0.00    +0.145 HD
ENDBRANCH  27  30
BRANCH  27  21
ATOM     21  C   UNL     1       0.836  -0.048  22.944  0.00  0.00    +0.035 C 
BRANCH  21  15
ATOM     15  C   UNL     1       2.230  -0.103  23.568  0.00  0.00    -0.009 C 
ATOM     18  C   UNL     1       3.112   1.029  23.021  0.00  0.00    +0.003 C 
ATOM     19  C   UNL     1       2.881  -1.470  23.320  0.00  0.00    +0.003 C 
ATOM     23  C   UNL     1       4.528   0.965  23.589  0.00  0.00    +0.000 C 
ATOM     24  C   UNL     1       4.298  -1.529  23.888  0.00  0.00    +0.000 C 
ATOM     26  C   UNL     1       5.169  -0.398  23.351  0.00  0.00    +0.000 C 
ENDBRANCH  21  15
ENDBRANCH  27  21
ENDBRANCH  11  27
ENDBRANCH  16  28
BRANCH  17  12
ATOM     12  N   UNL     1      -4.112   4.302  25.603  0.00  0.00    -0.187 NA
ATOM     42  H   UNL     1      -4.281   5.163  26.136  0.00  0.00    +0.148 HD
BRANCH  12   1
ATOM      1  S   UNL     1      -5.342   3.150  25.403  0.00  0.00    +0.059 S 
ATOM      8  O   UNL     1      -6.422   3.725  24.625  0.00  0.00    -0.153 OA
ATOM      9  O   UNL     1      -5.616   2.533  26.687  0.00  0.00    -0.153 OA
BRANCH   1  32
ATOM     32  C   UNL     1      -4.542   1.930  24.406  0.00  0.00    +0.106 A 
ATOM     34  C   UNL     1      -4.592   0.585  24.773  0.00  0.00    +0.041 A 
ATOM     35  C   UNL     1      -3.861   2.311  23.250  0.00  0.00    +0.028 A 
ATOM     37  C   UNL     1      -3.961  -0.378  23.986  0.00  0.00    +0.057 A 
ATOM     38  C   UNL     1      -3.230   1.348  22.462  0.00  0.00    +0.002 A 
ATOM     39  C   UNL     1      -3.280   0.004  22.830  0.00  0.00    +0.012 A 
BRANCH  37  40
ATOM      2  F   UNL     1      -5.144  -2.456  23.957  0.00  0.00    -0.166 F 
ATOM      3  F   UNL     1      -2.979  -2.556  23.886  0.00  0.00    -0.166 F 
ATOM      4  F   UNL     1      -3.977  -1.991  25.733  0.00  0.00    -0.166 F 
ATOM     40  C   UNL     1      -4.014  -1.815  24.380  0.00  0.00    +0.417 C 
ENDBRANCH  37  40
ENDBRANCH   1  32
ENDBRANCH  12   1
ENDBRANCH  17  12
BRANCH  29  31
ATOM     31  C   UNL     1       1.608   2.387  27.744  0.00  0.00    +0.137 C 
ATOM     33  C   UNL     1       0.476   2.075  28.702  0.00  0.00    +0.034 C 
BRANCH  31  13
ATOM     13  N   UNL     1       2.832   2.695  28.463  0.00  0.00    -0.309 NA
ATOM     36  C   UNL     1       2.704   2.373  29.879  0.00  0.00    +0.101 C 
ATOM     43  H   UNL     1       3.597   2.134  28.089  0.00  0.00    +0.122 HD
ENDBRANCH  31  13
ENDBRANCH  29  31
TORSDOF 11
ENDMDL
MODEL 8
REMARK VINA RESULT:       8.9      3.037      5.234
REMARK  Name = 11882599
REMARK  13 active torsions:
REMARK  status: ('A' for Active; 'I' for Inactive)
REMARK    1  A    between atoms: S_1  and  N_12
REMARK    2  A    between atoms: S_1  and  C_32
REMARK    3  A    between atoms: N_11  and  C_27
REMARK    4  A    between atoms: N_12  and  C_17
REMARK    5  A    between atoms: N_13  and  C_31
REMARK    6  A    between atoms: N_13  and  C_36
REMARK    7  A    between atoms: C_15  and  C_21
REMARK    8  A    between atoms: C_16  and  C_28
REMARK    9  A    between atoms: C_21  and  C_27
REMARK   10  A    between atoms: C_27  and  C_30
REMARK   11  A    between atoms: C_29  and  C_31
REMARK   12  A    between atoms: C_31  and  C_33
REMARK   13  A    between atoms: C_37  and  C_40
REMARK                            x       y       z     vdW  Elec       q    Type
REMARK                         _______ _______ _______ _____ _____    ______ ____
ROOT
ATOM      6  O   UNL     1       3.297   2.008  22.437  0.00  0.00    -0.274 OA
ATOM     10  N   UNL     1       1.451   1.694  23.821  0.00  0.00    -0.289 N 
ATOM     16  C   UNL     1       0.635   0.819  24.680  0.00  0.00    +0.163 C 
ATOM     17  C   UNL     1      -0.713   2.873  25.376  0.00  0.00    +0.080 C 
ATOM     20  C   UNL     1      -0.051   1.570  25.825  0.00  0.00    +0.052 C 
ATOM     22  C   UNL     1       0.276   3.735  24.597  0.00  0.00    +0.039 C 
ATOM     25  C   UNL     1       0.843   2.966  23.412  0.00  0.00    +0.110 C 
ATOM     29  C   UNL     1       2.680   1.327  23.261  0.00  0.00    +0.233 C 
ENDROOT
BRANCH  16  28
ATOM      5  O   UNL     1      -0.212  -1.044  23.448  0.00  0.00    -0.274 OA
ATOM     11  N   UNL     1      -1.383   0.968  23.397  0.00  0.00    -0.302 N 
ATOM     28  C   UNL     1      -0.353   0.129  23.786  0.00  0.00    +0.234 C 
ATOM     41  H   UNL     1      -1.381   1.939  23.693  0.00  0.00    +0.150 HD
BRANCH  11  27
ATOM     27  C   UNL     1      -2.452   0.552  22.518  0.00  0.00    +0.159 C 
BRANCH  27  30
ATOM      7  O   UNL     1      -2.800   2.609  21.271  0.00  0.00    -0.274 OA
ATOM     14  N   UNL     1      -1.996   0.773  20.150  0.00  0.00    -0.328 N 
ATOM     30  C   UNL     1      -2.434   1.437  21.277  0.00  0.00    +0.231 C 
ATOM     44  H   UNL     1      -1.945   1.247  19.255  0.00  0.00    +0.145 HD
ATOM     45  H   UNL     1      -1.714  -0.202  20.164  0.00  0.00    +0.145 HD
ENDBRANCH  27  30
BRANCH  27  21
ATOM     21  C   UNL     1      -3.812   0.544  23.221  0.00  0.00    +0.035 C 
BRANCH  21  15
ATOM     15  C   UNL     1      -4.015  -0.630  24.177  0.00  0.00    -0.009 C 
ATOM     18  C   UNL     1      -3.152  -0.461  25.435  0.00  0.00    +0.003 C 
ATOM     19  C   UNL     1      -3.703  -1.959  23.476  0.00  0.00    +0.003 C 
ATOM     23  C   UNL     1      -3.297  -1.648  26.383  0.00  0.00    +0.000 C 
ATOM     24  C   UNL     1      -3.847  -3.145  24.428  0.00  0.00    +0.000 C 
ATOM     26  C   UNL     1      -2.996  -2.969  25.681  0.00  0.00    +0.000 C 
ENDBRANCH  21  15
ENDBRANCH  27  21
ENDBRANCH  11  27
ENDBRANCH  16  28
BRANCH  17  12
ATOM     12  N   UNL     1      -1.186   3.618  26.568  0.00  0.00    -0.187 NA
ATOM     42  H   UNL     1      -0.977   3.220  27.491  0.00  0.00    +0.148 HD
BRANCH  12   1
ATOM      1  S   UNL     1      -2.358   4.833  26.394  0.00  0.00    +0.059 S 
ATOM      8  O   UNL     1      -1.796   5.945  25.651  0.00  0.00    -0.153 OA
ATOM      9  O   UNL     1      -2.990   5.060  27.680  0.00  0.00    -0.153 OA
BRANCH   1  32
ATOM     32  C   UNL     1      -3.556   4.040  25.365  0.00  0.00    +0.106 A 
ATOM     34  C   UNL     1      -4.486   3.163  25.924  0.00  0.00    +0.041 A 
ATOM     35  C   UNL     1      -3.573   4.291  23.993  0.00  0.00    +0.028 A 
ATOM     37  C   UNL     1      -5.432   2.538  25.111  0.00  0.00    +0.057 A 
ATOM     38  C   UNL     1      -4.518   3.666  23.180  0.00  0.00    +0.002 A 
ATOM     39  C   UNL     1      -5.448   2.789  23.740  0.00  0.00    +0.012 A 
BRANCH  37  40
ATOM      2  F   UNL     1      -5.876   0.430  26.151  0.00  0.00    -0.166 F 
ATOM      3  F   UNL     1      -7.082   2.115  26.790  0.00  0.00    -0.166 F 
ATOM      4  F   UNL     1      -7.401   1.236  24.827  0.00  0.00    -0.166 F 
ATOM     40  C   UNL     1      -6.426   1.600  25.709  0.00  0.00    +0.417 C 
ENDBRANCH  37  40
ENDBRANCH   1  32
ENDBRANCH  12   1
ENDBRANCH  17  12
BRANCH  29  31
ATOM     31  C   UNL     1       3.272   0.017  23.719  0.00  0.00    +0.137 C 
ATOM     33  C   UNL     1       4.785   0.098  23.698  0.00  0.00    +0.034 C 
BRANCH  31  13
ATOM     13  N   UNL     1       2.791  -1.006  22.806  0.00  0.00    -0.309 NA
ATOM     36  C   UNL     1       2.325  -0.416  21.557  0.00  0.00    +0.101 C 
ATOM     43  H   UNL     1       3.552  -1.645  22.578  0.00  0.00    +0.122 HD
ENDBRANCH  31  13
ENDBRANCH  29  31
TORSDOF 11
ENDMDL
MODEL 9
REMARK VINA RESULT:       9.0      2.747      5.338
REMARK  Name = 11882599
REMARK  13 active torsions:
REMARK  status: ('A' for Active; 'I' for Inactive)
REMARK    1  A    between atoms: S_1  and  N_12
REMARK    2  A    between atoms: S_1  and  C_32
REMARK    3  A    between atoms: N_11  and  C_27
REMARK    4  A    between atoms: N_12  and  C_17
REMARK    5  A    between atoms: N_13  and  C_31
REMARK    6  A    between atoms: N_13  and  C_36
REMARK    7  A    between atoms: C_15  and  C_21
REMARK    8  A    between atoms: C_16  and  C_28
REMARK    9  A    between atoms: C_21  and  C_27
REMARK   10  A    between atoms: C_27  and  C_30
REMARK   11  A    between atoms: C_29  and  C_31
REMARK   12  A    between atoms: C_31  and  C_33
REMARK   13  A    between atoms: C_37  and  C_40
REMARK                            x       y       z     vdW  Elec       q    Type
REMARK                         _______ _______ _______ _____ _____    ______ ____
ROOT
ATOM      6  O   UNL     1      -3.381   3.994  23.644  0.00  0.00    -0.274 OA
ATOM     10  N   UNL     1      -2.077   2.129  24.136  0.00  0.00    -0.289 N 
ATOM     16  C   UNL     1      -1.073   1.461  24.983  0.00  0.00    +0.163 C 
ATOM     17  C   UNL     1      -1.532  -0.701  23.706  0.00  0.00    +0.080 C 
ATOM     20  C   UNL     1      -1.268  -0.055  25.066  0.00  0.00    +0.052 C 
ATOM     22  C   UNL     1      -2.671   0.014  22.985  0.00  0.00    +0.039 C 
ATOM     25  C   UNL     1      -2.369   1.499  22.843  0.00  0.00    +0.110 C 
ATOM     29  C   UNL     1      -2.643   3.377  24.418  0.00  0.00    +0.233 C 
ENDROOT
BRANCH  16  28
ATOM      5  O   UNL     1       0.927   2.765  24.886  0.00  0.00    -0.274 OA
ATOM     11  N   UNL     1       0.648   1.012  23.378  0.00  0.00    -0.302 N 
ATOM     28  C   UNL     1       0.274   1.828  24.433  0.00  0.00    +0.234 C 
ATOM     41  H   UNL     1       0.013   0.294  23.046  0.00  0.00    +0.150 HD
BRANCH  11  27
ATOM     27  C   UNL     1       1.892   1.171  22.660  0.00  0.00    +0.159 C 
BRANCH  27  30
ATOM      7  O   UNL     1       2.979  -0.099  20.896  0.00  0.00    -0.274 OA
ATOM     14  N   UNL     1       0.894  -0.760  21.595  0.00  0.00    -0.328 N 
ATOM     30  C   UNL     1       2.009   0.051  21.634  0.00  0.00    +0.231 C 
ATOM     44  H   UNL     1       0.842  -1.540  20.948  0.00  0.00    +0.145 HD
ATOM     45  H   UNL     1       0.091  -0.615  22.197  0.00  0.00    +0.145 HD
ENDBRANCH  27  30
BRANCH  27  21
ATOM     21  C   UNL     1       3.099   1.244  23.599  0.00  0.00    +0.035 C 
BRANCH  21  15
ATOM     15  C   UNL     1       4.194   0.224  23.291  0.00  0.00    -0.009 C 
ATOM     18  C   UNL     1       3.893  -1.117  23.975  0.00  0.00    +0.003 C 
ATOM     19  C   UNL     1       5.568   0.758  23.719  0.00  0.00    +0.003 C 
ATOM     23  C   UNL     1       5.000  -2.138  23.727  0.00  0.00    +0.000 C 
ATOM     24  C   UNL     1       6.673  -0.267  23.471  0.00  0.00    +0.000 C 
ATOM     26  C   UNL     1       6.366  -1.600  24.144  0.00  0.00    +0.000 C 
ENDBRANCH  21  15
ENDBRANCH  27  21
ENDBRANCH  11  27
ENDBRANCH  16  28
BRANCH  17  12
ATOM     12  N   UNL     1      -1.891  -2.128  23.903  0.00  0.00    -0.187 NA
ATOM     42  H   UNL     1      -1.188  -2.833  23.653  0.00  0.00    +0.148 HD
BRANCH  12   1
ATOM      1  S   UNL     1      -3.515  -2.565  24.133  0.00  0.00    +0.059 S 
ATOM      8  O   UNL     1      -3.582  -3.762  24.950  0.00  0.00    -0.153 OA
ATOM      9  O   UNL     1      -4.197  -2.516  22.854  0.00  0.00    -0.153 OA
BRANCH   1  32
ATOM     32  C   UNL     1      -4.125  -1.214  25.094  0.00  0.00    +0.106 A 
ATOM     34  C   UNL     1      -4.845  -0.189  24.481  0.00  0.00    +0.041 A 
ATOM     35  C   UNL     1      -3.887  -1.172  26.468  0.00  0.00    +0.028 A 
ATOM     37  C   UNL     1      -5.327   0.877  25.239  0.00  0.00    +0.057 A 
ATOM     38  C   UNL     1      -4.369  -0.106  27.228  0.00  0.00    +0.002 A 
ATOM     39  C   UNL     1      -5.089   0.919  26.613  0.00  0.00    +0.012 A 
BRANCH  37  40
ATOM      2  F   UNL     1      -7.363   1.609  24.219  0.00  0.00    -0.166 F 
ATOM      3  F   UNL     1      -6.256   3.077  25.370  0.00  0.00    -0.166 F 
ATOM      4  F   UNL     1      -5.501   2.421  23.439  0.00  0.00    -0.166 F 
ATOM     40  C   UNL     1      -6.097   1.973  24.583  0.00  0.00    +0.417 C 
ENDBRANCH  37  40
ENDBRANCH   1  32
ENDBRANCH  12   1
ENDBRANCH  17  12
BRANCH  29  31
ATOM     31  C   UNL     1      -2.324   3.981  25.764  0.00  0.00    +0.137 C 
ATOM     33  C   UNL     1      -3.563   3.983  26.635  0.00  0.00    +0.034 C 
BRANCH  31  13
ATOM     13  N   UNL     1      -1.854   5.334  25.518  0.00  0.00    -0.309 NA
ATOM     36  C   UNL     1      -0.661   5.330  24.681  0.00  0.00    +0.101 C 
ATOM     43  H   UNL     1      -2.575   5.859  25.023  0.00  0.00    +0.122 HD
ENDBRANCH  31  13
ENDBRANCH  29  31
TORSDOF 11
ENDMDL
