MODEL 1
REMARK VINA RESULT:      -5.2      0.000      0.000
REMARK  Name = 56774604
REMARK  9 active torsions:
REMARK  status: ('A' for Active; 'I' for Inactive)
REMARK    1  A    between atoms: O_2  and  C_9
REMARK    2  A    between atoms: O_5  and  C_27
REMARK    3  A    between atoms: O_5  and  C_28
REMARK    4  A    between atoms: N_6  and  C_11
REMARK    5  A    between atoms: N_7  and  C_22
REMARK    6  A    between atoms: C_8  and  C_9
REMARK    7  A    between atoms: C_9  and  C_13
REMARK    8  A    between atoms: C_11  and  C_15
REMARK    9  A    between atoms: C_26  and  C_27
REMARK                            x       y       z     vdW  Elec       q    Type
REMARK                         _______ _______ _______ _____ _____    ______ ____
ROOT
ATOM      9  C   UNL     1      -2.862   2.144  23.792  0.00  0.00    +0.167 C 
ENDROOT
BRANCH   9   8
ATOM      1  O   UNL     1      -4.378   4.046  25.433  0.00  0.00    -0.369 OA
ATOM      3  O   UNL     1      -7.050   1.689  24.849  0.00  0.00    -0.273 OA
ATOM      6  N   UNL     1      -4.771   1.290  25.101  0.00  0.00    -0.287 N 
ATOM      8  C   UNL     1      -3.424   1.868  25.190  0.00  0.00    +0.135 C 
ATOM     10  C   UNL     1      -3.457   3.140  26.029  0.00  0.00    +0.185 C 
ATOM     12  C   UNL     1      -5.910   2.091  25.092  0.00  0.00    +0.242 C 
ATOM     14  C   UNL     1      -5.694   3.544  25.498  0.00  0.00    +0.255 C 
BRANCH   6  11
ATOM     11  C   UNL     1      -4.874  -0.139  24.837  0.00  0.00    +0.143 C 
BRANCH  11  15
ATOM     15  C   UNL     1      -3.560  -0.841  25.022  0.00  0.00    -0.030 A 
ATOM     20  C   UNL     1      -2.699  -0.451  26.047  0.00  0.00    +0.005 A 
ATOM     21  C   UNL     1      -3.200  -1.882  24.167  0.00  0.00    +0.005 A 
ATOM     23  C   UNL     1      -1.478  -1.104  26.219  0.00  0.00    +0.000 A 
ATOM     24  C   UNL     1      -1.980  -2.535  24.338  0.00  0.00    +0.000 A 
ATOM     25  C   UNL     1      -1.118  -2.145  25.364  0.00  0.00    +0.000 A 
ENDBRANCH  11  15
ENDBRANCH   6  11
ENDBRANCH   9   8
BRANCH   9  13
ATOM     13  C   UNL     1      -1.378   1.888  23.725  0.00  0.00    -0.017 A 
ATOM     16  C   UNL     1      -0.485   2.821  24.254  0.00  0.00    +0.008 A 
ATOM     17  C   UNL     1      -0.897   0.719  23.135  0.00  0.00    +0.008 A 
ATOM     18  C   UNL     1       0.888   2.584  24.193  0.00  0.00    +0.023 A 
ATOM     19  C   UNL     1       0.476   0.482  23.073  0.00  0.00    +0.023 A 
ATOM     22  C   UNL     1       1.369   1.415  23.602  0.00  0.00    +0.033 A 
BRANCH  22   7
ATOM      4  O   UNL     1       3.030   0.097  21.467  0.00  0.00    -0.273 OA
ATOM      7  N   UNL     1       2.743   1.179  23.540  0.00  0.00    -0.284 N 
ATOM     26  C   UNL     1       3.470   0.560  22.515  0.00  0.00    +0.243 C 
ATOM     30  H   UNL     1       3.275   1.502  24.346  0.00  0.00    +0.155 HD
BRANCH  26  27
ATOM     27  C   UNL     1       4.949   0.491  22.824  0.00  0.00    +0.255 C 
BRANCH  27   5
ATOM      5  O   UNL     1       5.129  -0.214  24.036  0.00  0.00    -0.374 OA
ATOM     28  C   UNL     1       4.726  -1.576  23.920  0.00  0.00    +0.194 C 
ENDBRANCH  27   5
ENDBRANCH  26  27
ENDBRANCH  22   7
ENDBRANCH   9  13
BRANCH   9   2
ATOM      2  O   UNL     1      -3.530   1.318  22.845  0.00  0.00    -0.385 OA
ATOM     29  H   UNL     1      -4.346   1.758  22.554  0.00  0.00    +0.210 HD
ENDBRANCH   9   2
TORSDOF 8
ENDMDL
MODEL 2
REMARK VINA RESULT:      -4.2      1.540      2.487
REMARK  Name = 56774604
REMARK  9 active torsions:
REMARK  status: ('A' for Active; 'I' for Inactive)
REMARK    1  A    between atoms: O_2  and  C_9
REMARK    2  A    between atoms: O_5  and  C_27
REMARK    3  A    between atoms: O_5  and  C_28
REMARK    4  A    between atoms: N_6  and  C_11
REMARK    5  A    between atoms: N_7  and  C_22
REMARK    6  A    between atoms: C_8  and  C_9
REMARK    7  A    between atoms: C_9  and  C_13
REMARK    8  A    between atoms: C_11  and  C_15
REMARK    9  A    between atoms: C_26  and  C_27
REMARK                            x       y       z     vdW  Elec       q    Type
REMARK                         _______ _______ _______ _____ _____    ______ ____
ROOT
ATOM      9  C   UNL     1      -3.075   3.372  26.239  0.00  0.00    +0.167 C 
ENDROOT
BRANCH   9   8
ATOM      1  O   UNL     1      -3.413   4.045  23.404  0.00  0.00    -0.369 OA
ATOM      3  O   UNL     1      -3.362   0.453  23.036  0.00  0.00    -0.273 OA
ATOM      6  N   UNL     1      -4.210   1.737  24.782  0.00  0.00    -0.287 N 
ATOM      8  C   UNL     1      -4.314   3.070  25.391  0.00  0.00    +0.135 C 
ATOM     10  C   UNL     1      -4.508   4.124  24.308  0.00  0.00    +0.185 C 
ATOM     12  C   UNL     1      -3.634   1.551  23.527  0.00  0.00    +0.242 C 
ATOM     14  C   UNL     1      -3.420   2.818  22.709  0.00  0.00    +0.255 C 
BRANCH   6  11
ATOM     11  C   UNL     1      -4.563   0.590  25.608  0.00  0.00    +0.143 C 
BRANCH  11  15
ATOM     15  C   UNL     1      -3.918  -0.674  25.118  0.00  0.00    -0.030 A 
ATOM     20  C   UNL     1      -4.579  -1.481  24.193  0.00  0.00    +0.005 A 
ATOM     21  C   UNL     1      -2.658  -1.040  25.588  0.00  0.00    +0.005 A 
ATOM     23  C   UNL     1      -3.980  -2.656  23.738  0.00  0.00    +0.000 A 
ATOM     24  C   UNL     1      -2.058  -2.214  25.134  0.00  0.00    +0.000 A 
ATOM     25  C   UNL     1      -2.720  -3.023  24.209  0.00  0.00    +0.000 A 
ENDBRANCH  11  15
ENDBRANCH   6  11
ENDBRANCH   9   8
BRANCH   9  13
ATOM     13  C   UNL     1      -1.809   2.900  25.570  0.00  0.00    -0.017 A 
ATOM     16  C   UNL     1      -1.370   1.588  25.754  0.00  0.00    +0.008 A 
ATOM     17  C   UNL     1      -1.077   3.774  24.766  0.00  0.00    +0.008 A 
ATOM     18  C   UNL     1      -0.199   1.151  25.135  0.00  0.00    +0.023 A 
ATOM     19  C   UNL     1       0.094   3.337  24.147  0.00  0.00    +0.023 A 
ATOM     22  C   UNL     1       0.533   2.025  24.331  0.00  0.00    +0.033 A 
BRANCH  22   7
ATOM      4  O   UNL     1       1.026  -0.337  22.535  0.00  0.00    -0.273 OA
ATOM      7  N   UNL     1       1.704   1.588  23.712  0.00  0.00    -0.284 N 
ATOM     26  C   UNL     1       1.879   0.475  22.878  0.00  0.00    +0.243 C 
ATOM     30  H   UNL     1       2.530   2.155  23.895  0.00  0.00    +0.155 HD
BRANCH  26  27
ATOM     27  C   UNL     1       3.309   0.336  22.403  0.00  0.00    +0.255 C 
BRANCH  27   5
ATOM      5  O   UNL     1       4.167   0.914  23.366  0.00  0.00    -0.374 OA
ATOM     28  C   UNL     1       5.364   0.160  23.529  0.00  0.00    +0.194 C 
ENDBRANCH  27   5
ENDBRANCH  26  27
ENDBRANCH  22   7
ENDBRANCH   9  13
BRANCH   9   2
ATOM      2  O   UNL     1      -2.994   4.774  26.472  0.00  0.00    -0.385 OA
ATOM     29  H   UNL     1      -3.060   5.245  25.625  0.00  0.00    +0.210 HD
ENDBRANCH   9   2
TORSDOF 8
ENDMDL
