MODEL 1
REMARK VINA RESULT:       2.7      0.000      0.000
REMARK  Name = 7134491
REMARK  14 active torsions:
REMARK  status: ('A' for Active; 'I' for Inactive)
REMARK    1  A    between atoms: O_2  and  C_20
REMARK    2  A    between atoms: O_3  and  C_23
REMARK    3  A    between atoms: O_4  and  C_24
REMARK    4  A    between atoms: O_7  and  C_28
REMARK    5  A    between atoms: N_10  and  C_19
REMARK    6  A    between atoms: N_11  and  C_29
REMARK    7  A    between atoms: C_13  and  C_18
REMARK    8  A    between atoms: C_13  and  C_22
REMARK    9  A    between atoms: C_18  and  C_26
REMARK   10  A    between atoms: C_20  and  C_27
REMARK   11  A    between atoms: C_22  and  C_28
REMARK   12  A    between atoms: C_29  and  C_30
REMARK   13  A    between atoms: C_29  and  C_31
REMARK   14  A    between atoms: C_30  and  C_32
REMARK                            x       y       z     vdW  Elec       q    Type
REMARK                         _______ _______ _______ _____ _____    ______ ____
ROOT
ATOM     19  C   UNL     1      -1.730  -1.451  25.236  0.00  0.00    +0.107 C 
ATOM     20  C   UNL     1      -3.598   0.266  25.071  0.00  0.00    +0.146 C 
ATOM     21  C   UNL     1      -2.086   0.038  25.136  0.00  0.00    +0.069 C 
ATOM     23  C   UNL     1      -2.383  -2.270  24.116  0.00  0.00    +0.163 C 
ATOM     24  C   UNL     1      -3.893  -2.029  24.032  0.00  0.00    +0.148 C 
ATOM     25  C   UNL     1      -4.232  -0.540  23.939  0.00  0.00    +0.078 C 
ENDROOT
BRANCH  19  10
ATOM      5  O   UNL     1       0.121  -0.383  23.285  0.00  0.00    -0.276 OA
ATOM     10  N   UNL     1      -0.292  -1.611  25.213  0.00  0.00    -0.310 N 
ATOM     26  C   UNL     1       0.514  -1.059  24.231  0.00  0.00    +0.214 C 
ATOM     36  H   UNL     1       0.121  -2.213  25.918  0.00  0.00    +0.149 HD
BRANCH  26  18
ATOM     18  C   UNL     1       1.978  -1.387  24.465  0.00  0.00    +0.103 C 
BRANCH  18  13
ATOM     13  C   UNL     1       2.895  -0.769  23.409  0.00  0.00    -0.011 C 
ATOM     14  C   UNL     1       2.235  -0.757  22.023  0.00  0.00    +0.008 C 
ATOM     15  C   UNL     1       3.117   0.729  23.661  0.00  0.00    +0.008 C 
ATOM     16  C   UNL     1       2.950   0.350  21.253  0.00  0.00    +0.001 C 
ATOM     17  C   UNL     1       3.518   1.304  22.304  0.00  0.00    +0.001 C 
BRANCH  13  22
ATOM     22  C   UNL     1       4.229  -1.535  23.385  0.00  0.00    +0.127 C 
BRANCH  22  28
ATOM      8  O   UNL     1       6.142  -0.065  23.033  0.00  0.00    -0.251 OA
ATOM     28  C   UNL     1       5.374  -0.650  23.782  0.00  0.00    +0.305 C 
BRANCH  28   7
ATOM      7  O   UNL     1       5.443  -0.583  25.136  0.00  0.00    -0.481 OA
ATOM     41  H   UNL     1       4.582  -0.790  25.558  0.00  0.00    +0.295 HD
ENDBRANCH  28   7
ENDBRANCH  22  28
ENDBRANCH  13  22
ENDBRANCH  18  13
ENDBRANCH  26  18
ENDBRANCH  19  10
BRANCH  20  27
ATOM      6  O   UNL     1      -4.293   2.185  23.831  0.00  0.00    -0.273 OA
ATOM     11  N   UNL     1      -3.676   2.447  26.060  0.00  0.00    -0.301 N 
ATOM     27  C   UNL     1      -3.905   1.725  24.901  0.00  0.00    +0.246 C 
ATOM     40  H   UNL     1      -3.285   1.986  26.876  0.00  0.00    +0.150 HD
BRANCH  11  29
ATOM     29  C   UNL     1      -3.875   3.876  26.153  0.00  0.00    +0.163 C 
BRANCH  29  31
ATOM      9  O   UNL     1      -5.189   4.997  24.443  0.00  0.00    -0.274 OA
ATOM     12  N   UNL     1      -6.232   3.469  25.805  0.00  0.00    -0.328 N 
ATOM     31  C   UNL     1      -5.144   4.201  25.379  0.00  0.00    +0.231 C 
ATOM     42  H   UNL     1      -7.138   3.579  25.362  0.00  0.00    +0.145 HD
ATOM     43  H   UNL     1      -6.181   2.813  26.577  0.00  0.00    +0.145 HD
ENDBRANCH  29  31
BRANCH  29  30
ATOM     30  C   UNL     1      -2.688   4.666  25.591  0.00  0.00    +0.074 C 
BRANCH  30  32
ATOM      1  S   UNL     1      -0.821   3.548  23.851  0.00  0.00    -0.102 S 
ATOM     32  C   UNL     1      -1.457   3.808  25.420  0.00  0.00    -0.008 A 
ATOM     33  C   UNL     1      -0.720   3.163  26.389  0.00  0.00    +0.011 A 
ATOM     34  C   UNL     1       0.380   2.444  25.836  0.00  0.00    +0.008 A 
ATOM     35  C   UNL     1       0.442   2.569  24.465  0.00  0.00    +0.045 A 
ENDBRANCH  30  32
ENDBRANCH  29  30
ENDBRANCH  11  29
ENDBRANCH  20  27
BRANCH  20   2
ATOM      2  O   UNL     1      -4.209  -0.099  26.302  0.00  0.00    -0.379 OA
ATOM     37  H   UNL     1      -3.661  -0.779  26.729  0.00  0.00    +0.211 HD
ENDBRANCH  20   2
BRANCH  23   3
ATOM      3  O   UNL     1      -2.182  -3.663  24.378  0.00  0.00    -0.387 OA
ATOM     38  H   UNL     1      -2.320  -3.814  25.329  0.00  0.00    +0.210 HD
ENDBRANCH  23   3
BRANCH  24   4
ATOM      4  O   UNL     1      -4.392  -2.690  22.870  0.00  0.00    -0.389 OA
ATOM     39  H   UNL     1      -4.584  -3.611  23.117  0.00  0.00    +0.210 HD
ENDBRANCH  24   4
TORSDOF 14
ENDMDL
MODEL 2
REMARK VINA RESULT:       3.1      1.928      2.619
REMARK  Name = 7134491
REMARK  14 active torsions:
REMARK  status: ('A' for Active; 'I' for Inactive)
REMARK    1  A    between atoms: O_2  and  C_20
REMARK    2  A    between atoms: O_3  and  C_23
REMARK    3  A    between atoms: O_4  and  C_24
REMARK    4  A    between atoms: O_7  and  C_28
REMARK    5  A    between atoms: N_10  and  C_19
REMARK    6  A    between atoms: N_11  and  C_29
REMARK    7  A    between atoms: C_13  and  C_18
REMARK    8  A    between atoms: C_13  and  C_22
REMARK    9  A    between atoms: C_18  and  C_26
REMARK   10  A    between atoms: C_20  and  C_27
REMARK   11  A    between atoms: C_22  and  C_28
REMARK   12  A    between atoms: C_29  and  C_30
REMARK   13  A    between atoms: C_29  and  C_31
REMARK   14  A    between atoms: C_30  and  C_32
REMARK                            x       y       z     vdW  Elec       q    Type
REMARK                         _______ _______ _______ _____ _____    ______ ____
ROOT
ATOM     19  C   UNL     1      -0.733  -0.713  25.204  0.00  0.00    +0.107 C 
ATOM     20  C   UNL     1      -3.255  -0.466  25.399  0.00  0.00    +0.146 C 
ATOM     21  C   UNL     1      -1.928   0.245  25.130  0.00  0.00    +0.069 C 
ATOM     23  C   UNL     1      -0.922  -1.932  24.292  0.00  0.00    +0.163 C 
ATOM     24  C   UNL     1      -2.259  -2.635  24.542  0.00  0.00    +0.148 C 
ATOM     25  C   UNL     1      -3.440  -1.666  24.471  0.00  0.00    +0.078 C 
ENDROOT
BRANCH  19  10
ATOM      5  O   UNL     1      -0.241   0.888  22.844  0.00  0.00    -0.276 OA
ATOM     10  N   UNL     1       0.482  -0.006  24.863  0.00  0.00    -0.310 N 
ATOM     26  C   UNL     1       0.623   0.739  23.703  0.00  0.00    +0.214 C 
ATOM     36  H   UNL     1       1.280  -0.124  25.480  0.00  0.00    +0.149 HD
BRANCH  26  18
ATOM     18  C   UNL     1       2.000   1.371  23.613  0.00  0.00    +0.103 C 
BRANCH  18  13
ATOM     13  C   UNL     1       3.060   0.400  23.090  0.00  0.00    -0.011 C 
ATOM     14  C   UNL     1       4.479   0.951  23.287  0.00  0.00    +0.008 C 
ATOM     15  C   UNL     1       3.108  -0.888  23.924  0.00  0.00    +0.008 C 
ATOM     16  C   UNL     1       5.385  -0.277  23.285  0.00  0.00    +0.001 C 
ATOM     17  C   UNL     1       4.505  -1.459  23.693  0.00  0.00    +0.001 C 
BRANCH  13  22
ATOM     22  C   UNL     1       2.780   0.095  21.608  0.00  0.00    +0.127 C 
BRANCH  22  28
ATOM      8  O   UNL     1       1.172  -1.632  22.222  0.00  0.00    -0.251 OA
ATOM     28  C   UNL     1       1.565  -0.771  21.449  0.00  0.00    +0.305 C 
BRANCH  28   7
ATOM      7  O   UNL     1       0.937  -0.455  20.288  0.00  0.00    -0.481 OA
ATOM     41  H   UNL     1      -0.039  -0.435  20.393  0.00  0.00    +0.295 HD
ENDBRANCH  28   7
ENDBRANCH  22  28
ENDBRANCH  13  22
ENDBRANCH  18  13
ENDBRANCH  26  18
ENDBRANCH  19  10
BRANCH  20  27
ATOM      6  O   UNL     1      -5.382   0.216  24.555  0.00  0.00    -0.273 OA
ATOM     11  N   UNL     1      -4.206   1.663  25.948  0.00  0.00    -0.301 N 
ATOM     27  C   UNL     1      -4.405   0.486  25.248  0.00  0.00    +0.246 C 
ATOM     40  H   UNL     1      -3.330   1.821  26.436  0.00  0.00    +0.150 HD
BRANCH  11  29
ATOM     29  C   UNL     1      -5.156   2.753  25.949  0.00  0.00    +0.163 C 
BRANCH  29  31
ATOM      9  O   UNL     1      -7.052   2.157  24.549  0.00  0.00    -0.274 OA
ATOM     12  N   UNL     1      -7.090   1.555  26.765  0.00  0.00    -0.328 N 
ATOM     31  C   UNL     1      -6.524   2.152  25.659  0.00  0.00    +0.231 C 
ATOM     42  H   UNL     1      -7.997   1.103  26.705  0.00  0.00    +0.145 HD
ATOM     43  H   UNL     1      -6.643   1.556  27.676  0.00  0.00    +0.145 HD
ENDBRANCH  29  31
BRANCH  29  30
ATOM     30  C   UNL     1      -4.812   3.825  24.908  0.00  0.00    +0.074 C 
BRANCH  30  32
ATOM      1  S   UNL     1      -2.470   3.274  23.504  0.00  0.00    -0.102 S 
ATOM     32  C   UNL     1      -3.323   4.040  24.776  0.00  0.00    -0.008 A 
ATOM     33  C   UNL     1      -2.493   4.802  25.569  0.00  0.00    +0.011 A 
ATOM     34  C   UNL     1      -1.139   4.756  25.126  0.00  0.00    +0.008 A 
ATOM     35  C   UNL     1      -0.986   3.961  24.011  0.00  0.00    +0.045 A 
ENDBRANCH  30  32
ENDBRANCH  29  30
ENDBRANCH  11  29
ENDBRANCH  20  27
BRANCH  20   2
ATOM      2  O   UNL     1      -3.318  -0.909  26.750  0.00  0.00    -0.379 OA
ATOM     37  H   UNL     1      -3.594  -1.841  26.756  0.00  0.00    +0.211 HD
ENDBRANCH  20   2
BRANCH  23   3
ATOM      3  O   UNL     1       0.119  -2.878  24.554  0.00  0.00    -0.387 OA
ATOM     38  H   UNL     1       0.654  -2.970  23.747  0.00  0.00    +0.210 HD
ENDBRANCH  23   3
BRANCH  24   4
ATOM      4  O   UNL     1      -2.431  -3.646  23.548  0.00  0.00    -0.389 OA
ATOM     39  H   UNL     1      -2.874  -4.401  23.973  0.00  0.00    +0.210 HD
ENDBRANCH  24   4
TORSDOF 14
ENDMDL
MODEL 3
REMARK VINA RESULT:       3.4      1.748      2.061
REMARK  Name = 7134491
REMARK  14 active torsions:
REMARK  status: ('A' for Active; 'I' for Inactive)
REMARK    1  A    between atoms: O_2  and  C_20
REMARK    2  A    between atoms: O_3  and  C_23
REMARK    3  A    between atoms: O_4  and  C_24
REMARK    4  A    between atoms: O_7  and  C_28
REMARK    5  A    between atoms: N_10  and  C_19
REMARK    6  A    between atoms: N_11  and  C_29
REMARK    7  A    between atoms: C_13  and  C_18
REMARK    8  A    between atoms: C_13  and  C_22
REMARK    9  A    between atoms: C_18  and  C_26
REMARK   10  A    between atoms: C_20  and  C_27
REMARK   11  A    between atoms: C_22  and  C_28
REMARK   12  A    between atoms: C_29  and  C_30
REMARK   13  A    between atoms: C_29  and  C_31
REMARK   14  A    between atoms: C_30  and  C_32
REMARK                            x       y       z     vdW  Elec       q    Type
REMARK                         _______ _______ _______ _____ _____    ______ ____
ROOT
ATOM     19  C   UNL     1      -1.585  -0.862  25.350  0.00  0.00    +0.107 C 
ATOM     20  C   UNL     1      -3.911   0.064  24.910  0.00  0.00    +0.146 C 
ATOM     21  C   UNL     1      -2.410   0.358  24.922  0.00  0.00    +0.069 C 
ATOM     23  C   UNL     1      -1.918  -2.099  24.507  0.00  0.00    +0.163 C 
ATOM     24  C   UNL     1      -3.421  -2.385  24.473  0.00  0.00    +0.148 C 
ATOM     25  C   UNL     1      -4.230  -1.158  24.051  0.00  0.00    +0.078 C 
ENDROOT
BRANCH  19  10
ATOM      5  O   UNL     1      -0.321   1.087  23.626  0.00  0.00    -0.276 OA
ATOM     10  N   UNL     1      -0.175  -0.552  25.266  0.00  0.00    -0.310 N 
ATOM     26  C   UNL     1       0.339   0.404  24.404  0.00  0.00    +0.214 C 
ATOM     36  H   UNL     1       0.461  -1.114  25.823  0.00  0.00    +0.149 HD
BRANCH  26  18
ATOM     18  C   UNL     1       1.847   0.517  24.535  0.00  0.00    +0.103 C 
BRANCH  18  13
ATOM     13  C   UNL     1       2.586  -0.035  23.316  0.00  0.00    -0.011 C 
ATOM     14  C   UNL     1       1.619  -0.376  22.174  0.00  0.00    +0.008 C 
ATOM     15  C   UNL     1       3.474   1.033  22.662  0.00  0.00    +0.008 C 
ATOM     16  C   UNL     1       2.471  -0.339  20.908  0.00  0.00    +0.001 C 
ATOM     17  C   UNL     1       3.664   0.565  21.221  0.00  0.00    +0.001 C 
BRANCH  13  22
ATOM     22  C   UNL     1       3.410  -1.264  23.736  0.00  0.00    +0.127 C 
BRANCH  22  28
ATOM      8  O   UNL     1       5.226   0.219  24.402  0.00  0.00    -0.251 OA
ATOM     28  C   UNL     1       4.822  -0.886  24.074  0.00  0.00    +0.305 C 
BRANCH  28   7
ATOM      7  O   UNL     1       5.619  -1.979  23.963  0.00  0.00    -0.481 OA
ATOM     41  H   UNL     1       6.363  -1.956  24.603  0.00  0.00    +0.295 HD
ENDBRANCH  28   7
ENDBRANCH  22  28
ENDBRANCH  13  22
ENDBRANCH  18  13
ENDBRANCH  26  18
ENDBRANCH  19  10
BRANCH  20  27
ATOM      6  O   UNL     1      -5.868   1.414  24.683  0.00  0.00    -0.273 OA
ATOM     11  N   UNL     1      -3.900   2.099  23.646  0.00  0.00    -0.301 N 
ATOM     27  C   UNL     1      -4.679   1.256  24.419  0.00  0.00    +0.246 C 
ATOM     40  H   UNL     1      -2.943   1.844  23.425  0.00  0.00    +0.150 HD
BRANCH  11  29
ATOM     29  C   UNL     1      -4.408   3.306  23.034  0.00  0.00    +0.163 C 
BRANCH  29  31
ATOM      9  O   UNL     1      -4.425   4.007  20.707  0.00  0.00    -0.274 OA
ATOM     12  N   UNL     1      -2.845   2.484  21.384  0.00  0.00    -0.328 N 
ATOM     31  C   UNL     1      -3.930   3.310  21.590  0.00  0.00    +0.231 C 
ATOM     42  H   UNL     1      -2.418   2.405  20.467  0.00  0.00    +0.145 HD
ATOM     43  H   UNL     1      -2.443   1.915  22.123  0.00  0.00    +0.145 HD
ENDBRANCH  29  31
BRANCH  29  30
ATOM     30  C   UNL     1      -3.930   4.570  23.758  0.00  0.00    +0.074 C 
BRANCH  30  32
ATOM      1  S   UNL     1      -2.915   3.853  26.251  0.00  0.00    -0.102 S 
ATOM     32  C   UNL     1      -2.713   4.315  24.615  0.00  0.00    -0.008 A 
ATOM     33  C   UNL     1      -1.383   4.402  24.263  0.00  0.00    +0.011 A 
ATOM     34  C   UNL     1      -0.520   4.086  25.352  0.00  0.00    +0.008 A 
ATOM     35  C   UNL     1      -1.222   3.768  26.494  0.00  0.00    +0.045 A 
ENDBRANCH  30  32
ENDBRANCH  29  30
ENDBRANCH  11  29
ENDBRANCH  20  27
BRANCH  20   2
ATOM      2  O   UNL     1      -4.385  -0.161  26.233  0.00  0.00    -0.379 OA
ATOM     37  H   UNL     1      -4.653   0.693  26.613  0.00  0.00    +0.211 HD
ENDBRANCH  20   2
BRANCH  23   3
ATOM      3  O   UNL     1      -1.273  -3.242  25.079  0.00  0.00    -0.387 OA
ATOM     38  H   UNL     1      -0.413  -2.957  25.433  0.00  0.00    +0.210 HD
ENDBRANCH  23   3
BRANCH  24   4
ATOM      4  O   UNL     1      -3.661  -3.439  23.540  0.00  0.00    -0.389 OA
ATOM     39  H   UNL     1      -2.957  -3.400  22.869  0.00  0.00    +0.210 HD
ENDBRANCH  24   4
TORSDOF 14
ENDMDL
MODEL 4
REMARK VINA RESULT:       3.5      2.137      3.959
REMARK  Name = 7134491
REMARK  14 active torsions:
REMARK  status: ('A' for Active; 'I' for Inactive)
REMARK    1  A    between atoms: O_2  and  C_20
REMARK    2  A    between atoms: O_3  and  C_23
REMARK    3  A    between atoms: O_4  and  C_24
REMARK    4  A    between atoms: O_7  and  C_28
REMARK    5  A    between atoms: N_10  and  C_19
REMARK    6  A    between atoms: N_11  and  C_29
REMARK    7  A    between atoms: C_13  and  C_18
REMARK    8  A    between atoms: C_13  and  C_22
REMARK    9  A    between atoms: C_18  and  C_26
REMARK   10  A    between atoms: C_20  and  C_27
REMARK   11  A    between atoms: C_22  and  C_28
REMARK   12  A    between atoms: C_29  and  C_30
REMARK   13  A    between atoms: C_29  and  C_31
REMARK   14  A    between atoms: C_30  and  C_32
REMARK                            x       y       z     vdW  Elec       q    Type
REMARK                         _______ _______ _______ _____ _____    ______ ____
ROOT
ATOM     19  C   UNL     1       0.116   2.346  24.554  0.00  0.00    +0.107 C 
ATOM     20  C   UNL     1      -2.156   3.438  24.887  0.00  0.00    +0.146 C 
ATOM     21  C   UNL     1      -1.354   2.385  24.118  0.00  0.00    +0.069 C 
ATOM     23  C   UNL     1       0.256   2.174  26.072  0.00  0.00    +0.163 C 
ATOM     24  C   UNL     1      -0.562   3.211  26.846  0.00  0.00    +0.148 C 
ATOM     25  C   UNL     1      -2.024   3.242  26.396  0.00  0.00    +0.078 C 
ENDROOT
BRANCH  19  10
ATOM      5  O   UNL     1      -0.287  -0.502  24.864  0.00  0.00    -0.276 OA
ATOM     10  N   UNL     1       0.805   1.283  23.855  0.00  0.00    -0.310 N 
ATOM     26  C   UNL     1       0.541  -0.059  24.073  0.00  0.00    +0.214 C 
ATOM     36  H   UNL     1       1.558   1.548  23.228  0.00  0.00    +0.149 HD
BRANCH  26  18
ATOM     18  C   UNL     1       1.410  -0.945  23.198  0.00  0.00    +0.103 C 
BRANCH  18  13
ATOM     13  C   UNL     1       2.785  -0.334  22.925  0.00  0.00    -0.011 C 
ATOM     14  C   UNL     1       3.041  -0.166  21.421  0.00  0.00    +0.008 C 
ATOM     15  C   UNL     1       2.867   1.118  23.418  0.00  0.00    +0.008 C 
ATOM     16  C   UNL     1       4.101   0.927  21.319  0.00  0.00    +0.001 C 
ATOM     17  C   UNL     1       3.991   1.751  22.602  0.00  0.00    +0.001 C 
BRANCH  13  22
ATOM     22  C   UNL     1       3.867  -1.208  23.582  0.00  0.00    +0.127 C 
BRANCH  22  28
ATOM      8  O   UNL     1       6.098  -0.460  22.946  0.00  0.00    -0.251 OA
ATOM     28  C   UNL     1       5.159  -0.460  23.728  0.00  0.00    +0.305 C 
BRANCH  28   7
ATOM      7  O   UNL     1       5.144   0.243  24.889  0.00  0.00    -0.481 OA
ATOM     41  H   UNL     1       5.332   1.195  24.743  0.00  0.00    +0.295 HD
ENDBRANCH  28   7
ENDBRANCH  22  28
ENDBRANCH  13  22
ENDBRANCH  18  13
ENDBRANCH  26  18
ENDBRANCH  19  10
BRANCH  20  27
ATOM      6  O   UNL     1      -4.136   4.334  23.897  0.00  0.00    -0.273 OA
ATOM     11  N   UNL     1      -4.221   2.223  24.873  0.00  0.00    -0.301 N 
ATOM     27  C   UNL     1      -3.601   3.397  24.485  0.00  0.00    +0.246 C 
ATOM     40  H   UNL     1      -3.710   1.536  25.420  0.00  0.00    +0.150 HD
BRANCH  11  29
ATOM     29  C   UNL     1      -5.618   1.945  24.625  0.00  0.00    +0.163 C 
BRANCH  29  31
ATOM      9  O   UNL     1      -6.906   1.613  26.659  0.00  0.00    -0.274 OA
ATOM     12  N   UNL     1      -6.396   3.760  26.020  0.00  0.00    -0.328 N 
ATOM     31  C   UNL     1      -6.387   2.390  25.861  0.00  0.00    +0.231 C 
ATOM     42  H   UNL     1      -6.862   4.188  26.813  0.00  0.00    +0.145 HD
ATOM     43  H   UNL     1      -5.960   4.390  25.355  0.00  0.00    +0.145 HD
ENDBRANCH  29  31
BRANCH  29  30
ATOM     30  C   UNL     1      -5.875   0.461  24.341  0.00  0.00    +0.074 C 
BRANCH  30  32
ATOM      1  S   UNL     1      -4.264  -1.744  23.790  0.00  0.00    -0.102 S 
ATOM     32  C   UNL     1      -4.719  -0.413  24.766  0.00  0.00    -0.008 A 
ATOM     33  C   UNL     1      -3.925  -0.300  25.887  0.00  0.00    +0.011 A 
ATOM     34  C   UNL     1      -2.931  -1.319  25.945  0.00  0.00    +0.008 A 
ATOM     35  C   UNL     1      -3.002  -2.172  24.865  0.00  0.00    +0.045 A 
ENDBRANCH  30  32
ENDBRANCH  29  30
ENDBRANCH  11  29
ENDBRANCH  20  27
BRANCH  20   2
ATOM      2  O   UNL     1      -1.714   4.746  24.546  0.00  0.00    -0.379 OA
ATOM     37  H   UNL     1      -2.373   5.386  24.864  0.00  0.00    +0.211 HD
ENDBRANCH  20   2
BRANCH  23   3
ATOM      3  O   UNL     1       1.629   2.347  26.437  0.00  0.00    -0.387 OA
ATOM     38  H   UNL     1       1.716   2.151  27.386  0.00  0.00    +0.210 HD
ENDBRANCH  23   3
BRANCH  24   4
ATOM      4  O   UNL     1      -0.514   2.880  28.234  0.00  0.00    -0.389 OA
ATOM     39  H   UNL     1      -0.819   1.961  28.326  0.00  0.00    +0.210 HD
ENDBRANCH  24   4
TORSDOF 14
ENDMDL
MODEL 5
REMARK VINA RESULT:       4.6      2.374      7.467
REMARK  Name = 7134491
REMARK  14 active torsions:
REMARK  status: ('A' for Active; 'I' for Inactive)
REMARK    1  A    between atoms: O_2  and  C_20
REMARK    2  A    between atoms: O_3  and  C_23
REMARK    3  A    between atoms: O_4  and  C_24
REMARK    4  A    between atoms: O_7  and  C_28
REMARK    5  A    between atoms: N_10  and  C_19
REMARK    6  A    between atoms: N_11  and  C_29
REMARK    7  A    between atoms: C_13  and  C_18
REMARK    8  A    between atoms: C_13  and  C_22
REMARK    9  A    between atoms: C_18  and  C_26
REMARK   10  A    between atoms: C_20  and  C_27
REMARK   11  A    between atoms: C_22  and  C_28
REMARK   12  A    between atoms: C_29  and  C_30
REMARK   13  A    between atoms: C_29  and  C_31
REMARK   14  A    between atoms: C_30  and  C_32
REMARK                            x       y       z     vdW  Elec       q    Type
REMARK                         _______ _______ _______ _____ _____    ______ ____
ROOT
ATOM     19  C   UNL     1      -3.045  -0.352  23.620  0.00  0.00    +0.107 C 
ATOM     20  C   UNL     1      -0.823  -1.542  23.948  0.00  0.00    +0.146 C 
ATOM     21  C   UNL     1      -1.553  -0.198  23.942  0.00  0.00    +0.069 C 
ATOM     23  C   UNL     1      -3.726  -1.367  24.546  0.00  0.00    +0.163 C 
ATOM     24  C   UNL     1      -2.987  -2.707  24.573  0.00  0.00    +0.148 C 
ATOM     25  C   UNL     1      -1.500  -2.537  24.890  0.00  0.00    +0.078 C 
ENDROOT
BRANCH  19  10
ATOM      5  O   UNL     1      -2.534   1.983  21.989  0.00  0.00    -0.276 OA
ATOM     10  N   UNL     1      -3.698   0.936  23.706  0.00  0.00    -0.310 N 
ATOM     26  C   UNL     1      -3.383   2.000  22.876  0.00  0.00    +0.214 C 
ATOM     36  H   UNL     1      -4.369   1.070  24.456  0.00  0.00    +0.149 HD
BRANCH  26  18
ATOM     18  C   UNL     1      -4.229   3.220  23.192  0.00  0.00    +0.103 C 
BRANCH  18  13
ATOM     13  C   UNL     1      -3.890   3.836  24.550  0.00  0.00    -0.011 C 
ATOM     14  C   UNL     1      -2.895   2.968  25.332  0.00  0.00    +0.008 C 
ATOM     15  C   UNL     1      -3.105   5.147  24.396  0.00  0.00    +0.008 C 
ATOM     16  C   UNL     1      -2.226   3.922  26.318  0.00  0.00    +0.001 C 
ATOM     17  C   UNL     1      -2.361   5.322  25.718  0.00  0.00    +0.001 C 
BRANCH  13  22
ATOM     22  C   UNL     1      -5.187   4.054  25.346  0.00  0.00    +0.127 C 
BRANCH  22  28
ATOM      8  O   UNL     1      -6.188   1.900  24.793  0.00  0.00    -0.251 OA
ATOM     28  C   UNL     1      -5.888   2.754  25.614  0.00  0.00    +0.305 C 
BRANCH  28   7
ATOM      7  O   UNL     1      -6.153   2.650  26.941  0.00  0.00    -0.481 OA
ATOM     41  H   UNL     1      -6.603   1.807  27.160  0.00  0.00    +0.295 HD
ENDBRANCH  28   7
ENDBRANCH  22  28
ENDBRANCH  13  22
ENDBRANCH  18  13
ENDBRANCH  26  18
ENDBRANCH  19  10
BRANCH  20  27
ATOM      6  O   UNL     1       1.112  -1.966  25.283  0.00  0.00    -0.273 OA
ATOM     11  N   UNL     1       1.263  -0.441  23.531  0.00  0.00    -0.301 N 
ATOM     27  C   UNL     1       0.615  -1.361  24.337  0.00  0.00    +0.246 C 
ATOM     40  H   UNL     1       0.746   0.062  22.817  0.00  0.00    +0.150 HD
BRANCH  11  29
ATOM     29  C   UNL     1       2.649  -0.070  23.710  0.00  0.00    +0.163 C 
BRANCH  29  31
ATOM      9  O   UNL     1       3.493   1.988  22.730  0.00  0.00    -0.274 OA
ATOM     12  N   UNL     1       2.788   0.311  21.328  0.00  0.00    -0.328 N 
ATOM     31  C   UNL     1       3.011   0.869  22.569  0.00  0.00    +0.231 C 
ATOM     42  H   UNL     1       3.001   0.827  20.480  0.00  0.00    +0.145 HD
ATOM     43  H   UNL     1       2.392  -0.615  21.207  0.00  0.00    +0.145 HD
ENDBRANCH  29  31
BRANCH  29  30
ATOM     30  C   UNL     1       3.582  -1.287  23.716  0.00  0.00    +0.074 C 
BRANCH  30  32
ATOM      1  S   UNL     1       5.701   0.259  24.654  0.00  0.00    -0.102 S 
ATOM     32  C   UNL     1       5.034  -0.897  23.581  0.00  0.00    -0.008 A 
ATOM     33  C   UNL     1       5.964  -1.354  22.672  0.00  0.00    +0.011 A 
ATOM     34  C   UNL     1       7.240  -0.747  22.860  0.00  0.00    +0.008 A 
ATOM     35  C   UNL     1       7.237   0.151  23.905  0.00  0.00    +0.045 A 
ENDBRANCH  30  32
ENDBRANCH  29  30
ENDBRANCH  11  29
ENDBRANCH  20  27
BRANCH  20   2
ATOM      2  O   UNL     1      -0.784  -2.094  22.638  0.00  0.00    -0.379 OA
ATOM     37  H   UNL     1      -0.108  -2.792  22.617  0.00  0.00    +0.211 HD
ENDBRANCH  20   2
BRANCH  23   3
ATOM      3  O   UNL     1      -5.054  -1.615  24.071  0.00  0.00    -0.387 OA
ATOM     38  H   UNL     1      -4.994  -1.896  23.142  0.00  0.00    +0.210 HD
ENDBRANCH  23   3
BRANCH  24   4
ATOM      4  O   UNL     1      -3.581  -3.530  25.577  0.00  0.00    -0.389 OA
ATOM     39  H   UNL     1      -4.483  -3.199  25.731  0.00  0.00    +0.210 HD
ENDBRANCH  24   4
TORSDOF 14
ENDMDL
MODEL 6
REMARK VINA RESULT:       5.1      2.539      6.672
REMARK  Name = 7134491
REMARK  14 active torsions:
REMARK  status: ('A' for Active; 'I' for Inactive)
REMARK    1  A    between atoms: O_2  and  C_20
REMARK    2  A    between atoms: O_3  and  C_23
REMARK    3  A    between atoms: O_4  and  C_24
REMARK    4  A    between atoms: O_7  and  C_28
REMARK    5  A    between atoms: N_10  and  C_19
REMARK    6  A    between atoms: N_11  and  C_29
REMARK    7  A    between atoms: C_13  and  C_18
REMARK    8  A    between atoms: C_13  and  C_22
REMARK    9  A    between atoms: C_18  and  C_26
REMARK   10  A    between atoms: C_20  and  C_27
REMARK   11  A    between atoms: C_22  and  C_28
REMARK   12  A    between atoms: C_29  and  C_30
REMARK   13  A    between atoms: C_29  and  C_31
REMARK   14  A    between atoms: C_30  and  C_32
REMARK                            x       y       z     vdW  Elec       q    Type
REMARK                         _______ _______ _______ _____ _____    ______ ____
ROOT
ATOM     19  C   UNL     1       0.932   1.373  24.273  0.00  0.00    +0.107 C 
ATOM     20  C   UNL     1       0.034  -1.005  24.215  0.00  0.00    +0.146 C 
ATOM     21  C   UNL     1      -0.297   0.472  24.443  0.00  0.00    +0.069 C 
ATOM     23  C   UNL     1       1.624   1.146  22.923  0.00  0.00    +0.163 C 
ATOM     24  C   UNL     1       1.938  -0.333  22.680  0.00  0.00    +0.148 C 
ATOM     25  C   UNL     1       0.704  -1.219  22.859  0.00  0.00    +0.078 C 
ENDROOT
BRANCH  19  10
ATOM      5  O   UNL     1      -0.097   2.660  26.651  0.00  0.00    -0.276 OA
ATOM     10  N   UNL     1       0.544   2.759  24.421  0.00  0.00    -0.310 N 
ATOM     26  C   UNL     1       0.059   3.286  25.607  0.00  0.00    +0.214 C 
ATOM     36  H   UNL     1       0.574   3.343  23.591  0.00  0.00    +0.149 HD
BRANCH  26  18
ATOM     18  C   UNL     1      -0.261   4.763  25.469  0.00  0.00    +0.103 C 
BRANCH  18  13
ATOM     13  C   UNL     1      -1.729   5.017  25.124  0.00  0.00    -0.011 C 
ATOM     14  C   UNL     1      -1.901   6.294  24.290  0.00  0.00    +0.008 C 
ATOM     15  C   UNL     1      -2.279   3.947  24.171  0.00  0.00    +0.008 C 
ATOM     16  C   UNL     1      -3.228   6.112  23.556  0.00  0.00    +0.001 C 
ATOM     17  C   UNL     1      -3.471   4.605  23.481  0.00  0.00    +0.001 C 
BRANCH  13  22
ATOM     22  C   UNL     1      -2.550   5.083  26.423  0.00  0.00    +0.127 C 
BRANCH  22  28
ATOM      8  O   UNL     1      -4.716   3.981  26.617  0.00  0.00    -0.251 OA
ATOM     28  C   UNL     1      -3.499   3.926  26.529  0.00  0.00    +0.305 C 
BRANCH  28   7
ATOM      7  O   UNL     1      -2.796   2.765  26.511  0.00  0.00    -0.481 OA
ATOM     41  H   UNL     1      -2.920   2.274  25.671  0.00  0.00    +0.295 HD
ENDBRANCH  28   7
ENDBRANCH  22  28
ENDBRANCH  13  22
ENDBRANCH  18  13
ENDBRANCH  26  18
ENDBRANCH  19  10
BRANCH  20  27
ATOM      6  O   UNL     1      -1.320  -2.904  23.706  0.00  0.00    -0.273 OA
ATOM     11  N   UNL     1      -2.157  -1.276  25.144  0.00  0.00    -0.301 N 
ATOM     27  C   UNL     1      -1.204  -1.846  24.318  0.00  0.00    +0.246 C 
ATOM     40  H   UNL     1      -1.995  -0.360  25.550  0.00  0.00    +0.150 HD
BRANCH  11  29
ATOM     29  C   UNL     1      -3.448  -1.877  25.393  0.00  0.00    +0.163 C 
BRANCH  29  31
ATOM      9  O   UNL     1      -4.226  -1.363  23.148  0.00  0.00    -0.274 OA
ATOM     12  N   UNL     1      -4.369  -3.532  23.891  0.00  0.00    -0.328 N 
ATOM     31  C   UNL     1      -4.062  -2.195  24.037  0.00  0.00    +0.231 C 
ATOM     42  H   UNL     1      -4.771  -3.881  23.027  0.00  0.00    +0.145 HD
ATOM     43  H   UNL     1      -4.226  -4.210  24.632  0.00  0.00    +0.145 HD
ENDBRANCH  29  31
BRANCH  29  30
ATOM     30  C   UNL     1      -4.374  -0.955  26.195  0.00  0.00    +0.074 C 
BRANCH  30  32
ATOM      1  S   UNL     1      -6.205   1.116  25.851  0.00  0.00    -0.102 S 
ATOM     32  C   UNL     1      -4.784   0.269  25.411  0.00  0.00    -0.008 A 
ATOM     33  C   UNL     1      -4.153   0.845  24.330  0.00  0.00    +0.011 A 
ATOM     34  C   UNL     1      -4.847   1.997  23.856  0.00  0.00    +0.008 A 
ATOM     35  C   UNL     1      -5.980   2.258  24.595  0.00  0.00    +0.045 A 
ENDBRANCH  30  32
ENDBRANCH  29  30
ENDBRANCH  11  29
ENDBRANCH  20  27
BRANCH  20   2
ATOM      2  O   UNL     1       0.895  -1.486  25.240  0.00  0.00    -0.379 OA
ATOM     37  H   UNL     1       1.497  -0.768  25.499  0.00  0.00    +0.211 HD
ENDBRANCH  20   2
BRANCH  23   3
ATOM      3  O   UNL     1       2.864   1.860  22.908  0.00  0.00    -0.387 OA
ATOM     38  H   UNL     1       2.706   2.730  22.503  0.00  0.00    +0.210 HD
ENDBRANCH  23   3
BRANCH  24   4
ATOM      4  O   UNL     1       2.421  -0.478  21.344  0.00  0.00    -0.389 OA
ATOM     39  H   UNL     1       1.655  -0.667  20.775  0.00  0.00    +0.210 HD
ENDBRANCH  24   4
TORSDOF 14
ENDMDL
MODEL 7
REMARK VINA RESULT:       5.3      2.381      4.402
REMARK  Name = 7134491
REMARK  14 active torsions:
REMARK  status: ('A' for Active; 'I' for Inactive)
REMARK    1  A    between atoms: O_2  and  C_20
REMARK    2  A    between atoms: O_3  and  C_23
REMARK    3  A    between atoms: O_4  and  C_24
REMARK    4  A    between atoms: O_7  and  C_28
REMARK    5  A    between atoms: N_10  and  C_19
REMARK    6  A    between atoms: N_11  and  C_29
REMARK    7  A    between atoms: C_13  and  C_18
REMARK    8  A    between atoms: C_13  and  C_22
REMARK    9  A    between atoms: C_18  and  C_26
REMARK   10  A    between atoms: C_20  and  C_27
REMARK   11  A    between atoms: C_22  and  C_28
REMARK   12  A    between atoms: C_29  and  C_30
REMARK   13  A    between atoms: C_29  and  C_31
REMARK   14  A    between atoms: C_30  and  C_32
REMARK                            x       y       z     vdW  Elec       q    Type
REMARK                         _______ _______ _______ _____ _____    ______ ____
ROOT
ATOM     19  C   UNL     1       0.528   2.551  24.490  0.00  0.00    +0.107 C 
ATOM     20  C   UNL     1      -1.825   3.407  24.928  0.00  0.00    +0.146 C 
ATOM     21  C   UNL     1      -0.931   2.562  24.018  0.00  0.00    +0.069 C 
ATOM     23  C   UNL     1       0.649   2.128  25.960  0.00  0.00    +0.163 C 
ATOM     24  C   UNL     1      -0.260   2.955  26.872  0.00  0.00    +0.148 C 
ATOM     25  C   UNL     1      -1.711   2.962  26.385  0.00  0.00    +0.078 C 
ENDROOT
BRANCH  19  10
ATOM      5  O   UNL     1       2.866   3.250  22.935  0.00  0.00    -0.276 OA
ATOM     10  N   UNL     1       1.309   1.677  23.642  0.00  0.00    -0.310 N 
ATOM     26  C   UNL     1       2.419   2.107  22.932  0.00  0.00    +0.214 C 
ATOM     36  H   UNL     1       0.977   0.725  23.521  0.00  0.00    +0.149 HD
BRANCH  26  18
ATOM     18  C   UNL     1       3.039   0.975  22.134  0.00  0.00    +0.103 C 
BRANCH  18  13
ATOM     13  C   UNL     1       3.902   0.051  22.995  0.00  0.00    -0.011 C 
ATOM     14  C   UNL     1       5.184  -0.370  22.263  0.00  0.00    +0.008 C 
ATOM     15  C   UNL     1       4.470   0.786  24.218  0.00  0.00    +0.008 C 
ATOM     16  C   UNL     1       6.163  -0.757  23.368  0.00  0.00    +0.001 C 
ATOM     17  C   UNL     1       5.704  -0.016  24.624  0.00  0.00    +0.001 C 
BRANCH  13  22
ATOM     22  C   UNL     1       3.071  -1.173  23.415  0.00  0.00    +0.127 C 
BRANCH  22  28
ATOM      8  O   UNL     1       1.187  -0.868  21.899  0.00  0.00    -0.251 OA
ATOM     28  C   UNL     1       1.631  -1.013  23.029  0.00  0.00    +0.305 C 
BRANCH  28   7
ATOM      7  O   UNL     1       0.857  -1.055  24.143  0.00  0.00    -0.481 OA
ATOM     41  H   UNL     1       1.311  -0.662  24.919  0.00  0.00    +0.295 HD
ENDBRANCH  28   7
ENDBRANCH  22  28
ENDBRANCH  13  22
ENDBRANCH  18  13
ENDBRANCH  26  18
ENDBRANCH  19  10
BRANCH  20  27
ATOM      6  O   UNL     1      -3.747   4.195  23.751  0.00  0.00    -0.273 OA
ATOM     11  N   UNL     1      -3.912   2.232  24.990  0.00  0.00    -0.301 N 
ATOM     27  C   UNL     1      -3.255   3.336  24.477  0.00  0.00    +0.246 C 
ATOM     40  H   UNL     1      -3.436   1.615  25.642  0.00  0.00    +0.150 HD
BRANCH  11  29
ATOM     29  C   UNL     1      -5.304   1.945  24.724  0.00  0.00    +0.163 C 
BRANCH  29  31
ATOM      9  O   UNL     1      -6.587   1.932  26.789  0.00  0.00    -0.274 OA
ATOM     12  N   UNL     1      -6.210   3.942  25.742  0.00  0.00    -0.328 N 
ATOM     31  C   UNL     1      -6.111   2.571  25.853  0.00  0.00    +0.231 C 
ATOM     42  H   UNL     1      -6.710   4.485  26.438  0.00  0.00    +0.145 HD
ATOM     43  H   UNL     1      -5.810   4.458  24.965  0.00  0.00    +0.145 HD
ENDBRANCH  29  31
BRANCH  29  30
ATOM     30  C   UNL     1      -5.583   0.440  24.639  0.00  0.00    +0.074 C 
BRANCH  30  32
ATOM      1  S   UNL     1      -4.095  -1.771  23.829  0.00  0.00    -0.102 S 
ATOM     32  C   UNL     1      -4.329  -0.386  24.807  0.00  0.00    -0.008 A 
ATOM     33  C   UNL     1      -3.280  -0.185  25.678  0.00  0.00    +0.011 A 
ATOM     34  C   UNL     1      -2.272  -1.183  25.541  0.00  0.00    +0.008 A 
ATOM     35  C   UNL     1      -2.588  -2.108  24.569  0.00  0.00    +0.045 A 
ENDBRANCH  30  32
ENDBRANCH  29  30
ENDBRANCH  11  29
ENDBRANCH  20  27
BRANCH  20   2
ATOM      2  O   UNL     1      -1.476   4.782  24.833  0.00  0.00    -0.379 OA
ATOM     37  H   UNL     1      -1.380   5.139  25.732  0.00  0.00    +0.211 HD
ENDBRANCH  20   2
BRANCH  23   3
ATOM      3  O   UNL     1       1.997   2.331  26.395  0.00  0.00    -0.387 OA
ATOM     38  H   UNL     1       2.550   2.474  25.607  0.00  0.00    +0.210 HD
ENDBRANCH  23   3
BRANCH  24   4
ATOM      4  O   UNL     1      -0.217   2.392  28.184  0.00  0.00    -0.389 OA
ATOM     39  H   UNL     1       0.719   2.273  28.419  0.00  0.00    +0.210 HD
ENDBRANCH  24   4
TORSDOF 14
ENDMDL
MODEL 8
REMARK VINA RESULT:       6.0      2.381      7.317
REMARK  Name = 7134491
REMARK  14 active torsions:
REMARK  status: ('A' for Active; 'I' for Inactive)
REMARK    1  A    between atoms: O_2  and  C_20
REMARK    2  A    between atoms: O_3  and  C_23
REMARK    3  A    between atoms: O_4  and  C_24
REMARK    4  A    between atoms: O_7  and  C_28
REMARK    5  A    between atoms: N_10  and  C_19
REMARK    6  A    between atoms: N_11  and  C_29
REMARK    7  A    between atoms: C_13  and  C_18
REMARK    8  A    between atoms: C_13  and  C_22
REMARK    9  A    between atoms: C_18  and  C_26
REMARK   10  A    between atoms: C_20  and  C_27
REMARK   11  A    between atoms: C_22  and  C_28
REMARK   12  A    between atoms: C_29  and  C_30
REMARK   13  A    between atoms: C_29  and  C_31
REMARK   14  A    between atoms: C_30  and  C_32
REMARK                            x       y       z     vdW  Elec       q    Type
REMARK                         _______ _______ _______ _____ _____    ______ ____
ROOT
ATOM     19  C   UNL     1      -2.069   2.433  25.675  0.00  0.00    +0.107 C 
ATOM     20  C   UNL     1       0.307   2.698  24.811  0.00  0.00    +0.146 C 
ATOM     21  C   UNL     1      -0.963   1.845  24.790  0.00  0.00    +0.069 C 
ATOM     23  C   UNL     1      -2.359   3.898  25.328  0.00  0.00    +0.163 C 
ATOM     24  C   UNL     1      -1.088   4.752  25.327  0.00  0.00    +0.148 C 
ATOM     25  C   UNL     1       0.007   4.150  24.444  0.00  0.00    +0.078 C 
ENDROOT
BRANCH  19  10
ATOM      5  O   UNL     1      -4.169   2.712  23.705  0.00  0.00    -0.276 OA
ATOM     10  N   UNL     1      -3.268   1.633  25.554  0.00  0.00    -0.310 N 
ATOM     26  C   UNL     1      -4.222   1.844  24.572  0.00  0.00    +0.214 C 
ATOM     36  H   UNL     1      -3.435   0.931  26.269  0.00  0.00    +0.149 HD
BRANCH  26  18
ATOM     18  C   UNL     1      -5.366   0.854  24.687  0.00  0.00    +0.103 C 
BRANCH  18  13
ATOM     13  C   UNL     1      -4.895  -0.599  24.625  0.00  0.00    -0.011 C 
ATOM     14  C   UNL     1      -5.980  -1.521  24.050  0.00  0.00    +0.008 C 
ATOM     15  C   UNL     1      -3.760  -0.783  23.608  0.00  0.00    +0.008 C 
ATOM     16  C   UNL     1      -5.225  -2.736  23.516  0.00  0.00    +0.001 C 
ATOM     17  C   UNL     1      -3.799  -2.262  23.232  0.00  0.00    +0.001 C 
BRANCH  13  22
ATOM     22  C   UNL     1      -4.464  -1.053  26.030  0.00  0.00    +0.127 C 
BRANCH  22  28
ATOM      8  O   UNL     1      -2.029  -0.954  26.049  0.00  0.00    -0.251 OA
ATOM     28  C   UNL     1      -3.067  -1.598  26.023  0.00  0.00    +0.305 C 
BRANCH  28   7
ATOM      7  O   UNL     1      -3.113  -2.954  25.984  0.00  0.00    -0.481 OA
ATOM     41  H   UNL     1      -2.263  -3.341  25.681  0.00  0.00    +0.295 HD
ENDBRANCH  28   7
ENDBRANCH  22  28
ENDBRANCH  13  22
ENDBRANCH  18  13
ENDBRANCH  26  18
ENDBRANCH  19  10
BRANCH  20  27
ATOM      6  O   UNL     1       2.248   2.821  23.425  0.00  0.00    -0.273 OA
ATOM     11  N   UNL     1       1.116   0.795  23.601  0.00  0.00    -0.301 N 
ATOM     27  C   UNL     1       1.339   2.132  23.879  0.00  0.00    +0.246 C 
ATOM     40  H   UNL     1       0.292   0.330  23.970  0.00  0.00    +0.150 HD
BRANCH  11  29
ATOM     29  C   UNL     1       1.955   0.022  22.713  0.00  0.00    +0.163 C 
BRANCH  29  31
ATOM      9  O   UNL     1       1.357  -0.722  20.477  0.00  0.00    -0.274 OA
ATOM     12  N   UNL     1      -0.157  -1.025  22.177  0.00  0.00    -0.328 N 
ATOM     31  C   UNL     1       1.044  -0.589  21.658  0.00  0.00    +0.231 C 
ATOM     42  H   UNL     1      -0.851  -1.466  21.583  0.00  0.00    +0.145 HD
ATOM     43  H   UNL     1      -0.404  -0.911  23.155  0.00  0.00    +0.145 HD
ENDBRANCH  29  31
BRANCH  29  30
ATOM     30  C   UNL     1       2.727  -1.077  23.451  0.00  0.00    +0.074 C 
BRANCH  30  32
ATOM      1  S   UNL     1       4.785   0.748  23.012  0.00  0.00    -0.102 S 
ATOM     32  C   UNL     1       4.194  -0.748  23.599  0.00  0.00    -0.008 A 
ATOM     33  C   UNL     1       5.191  -1.510  24.167  0.00  0.00    +0.011 A 
ATOM     34  C   UNL     1       6.458  -0.858  24.118  0.00  0.00    +0.008 A 
ATOM     35  C   UNL     1       6.379   0.379  23.516  0.00  0.00    +0.045 A 
ENDBRANCH  30  32
ENDBRANCH  29  30
ENDBRANCH  11  29
ENDBRANCH  20  27
BRANCH  20   2
ATOM      2  O   UNL     1       0.911   2.659  26.098  0.00  0.00    -0.379 OA
ATOM     37  H   UNL     1       0.960   3.566  26.444  0.00  0.00    +0.211 HD
ENDBRANCH  20   2
BRANCH  23   3
ATOM      3  O   UNL     1      -3.245   4.444  26.310  0.00  0.00    -0.387 OA
ATOM     38  H   UNL     1      -2.960   4.126  27.184  0.00  0.00    +0.210 HD
ENDBRANCH  23   3
BRANCH  24   4
ATOM      4  O   UNL     1      -1.416   6.050  24.833  0.00  0.00    -0.389 OA
ATOM     39  H   UNL     1      -0.643   6.381  24.344  0.00  0.00    +0.210 HD
ENDBRANCH  24   4
TORSDOF 14
ENDMDL
MODEL 9
REMARK VINA RESULT:       6.4      2.537      6.653
REMARK  Name = 7134491
REMARK  14 active torsions:
REMARK  status: ('A' for Active; 'I' for Inactive)
REMARK    1  A    between atoms: O_2  and  C_20
REMARK    2  A    between atoms: O_3  and  C_23
REMARK    3  A    between atoms: O_4  and  C_24
REMARK    4  A    between atoms: O_7  and  C_28
REMARK    5  A    between atoms: N_10  and  C_19
REMARK    6  A    between atoms: N_11  and  C_29
REMARK    7  A    between atoms: C_13  and  C_18
REMARK    8  A    between atoms: C_13  and  C_22
REMARK    9  A    between atoms: C_18  and  C_26
REMARK   10  A    between atoms: C_20  and  C_27
REMARK   11  A    between atoms: C_22  and  C_28
REMARK   12  A    between atoms: C_29  and  C_30
REMARK   13  A    between atoms: C_29  and  C_31
REMARK   14  A    between atoms: C_30  and  C_32
REMARK                            x       y       z     vdW  Elec       q    Type
REMARK                         _______ _______ _______ _____ _____    ______ ____
ROOT
ATOM     19  C   UNL     1       0.814   1.289  24.253  0.00  0.00    +0.107 C 
ATOM     20  C   UNL     1       0.046  -1.134  24.238  0.00  0.00    +0.146 C 
ATOM     21  C   UNL     1      -0.363   0.325  24.448  0.00  0.00    +0.069 C 
ATOM     23  C   UNL     1       1.505   1.079  22.899  0.00  0.00    +0.163 C 
ATOM     24  C   UNL     1       1.896  -0.384  22.674  0.00  0.00    +0.148 C 
ATOM     25  C   UNL     1       0.713  -1.333  22.878  0.00  0.00    +0.078 C 
ENDROOT
BRANCH  19  10
ATOM      5  O   UNL     1       0.411   2.772  26.704  0.00  0.00    -0.276 OA
ATOM     10  N   UNL     1       0.354   2.654  24.385  0.00  0.00    -0.310 N 
ATOM     26  C   UNL     1       0.191   3.282  25.609  0.00  0.00    +0.214 C 
ATOM     36  H   UNL     1       0.081   3.139  23.535  0.00  0.00    +0.149 HD
BRANCH  26  18
ATOM     18  C   UNL     1      -0.298   4.708  25.441  0.00  0.00    +0.103 C 
BRANCH  18  13
ATOM     13  C   UNL     1      -1.817   4.795  25.284  0.00  0.00    -0.011 C 
ATOM     14  C   UNL     1      -2.515   3.546  25.840  0.00  0.00    +0.008 C 
ATOM     15  C   UNL     1      -2.414   5.902  26.165  0.00  0.00    +0.008 C 
ATOM     16  C   UNL     1      -3.940   3.994  26.154  0.00  0.00    +0.001 C 
ATOM     17  C   UNL     1      -3.876   5.508  26.361  0.00  0.00    +0.001 C 
BRANCH  13  22
ATOM     22  C   UNL     1      -2.162   5.015  23.802  0.00  0.00    +0.127 C 
BRANCH  22  28
ATOM      8  O   UNL     1      -2.088   2.705  23.024  0.00  0.00    -0.251 OA
ATOM     28  C   UNL     1      -2.689   3.759  23.172  0.00  0.00    +0.305 C 
BRANCH  28   7
ATOM      7  O   UNL     1      -3.971   3.959  22.774  0.00  0.00    -0.481 OA
ATOM     41  H   UNL     1      -4.592   3.974  23.533  0.00  0.00    +0.295 HD
ENDBRANCH  28   7
ENDBRANCH  22  28
ENDBRANCH  13  22
ENDBRANCH  18  13
ENDBRANCH  26  18
ENDBRANCH  19  10
BRANCH  20  27
ATOM      6  O   UNL     1      -1.196  -3.125  23.795  0.00  0.00    -0.273 OA
ATOM     11  N   UNL     1      -2.135  -1.493  25.162  0.00  0.00    -0.301 N 
ATOM     27  C   UNL     1      -1.144  -2.039  24.366  0.00  0.00    +0.246 C 
ATOM     40  H   UNL     1      -2.027  -0.553  25.533  0.00  0.00    +0.150 HD
BRANCH  11  29
ATOM     29  C   UNL     1      -3.393  -2.155  25.427  0.00  0.00    +0.163 C 
BRANCH  29  31
ATOM      9  O   UNL     1      -4.354  -1.629  23.257  0.00  0.00    -0.274 OA
ATOM     12  N   UNL     1      -4.122  -3.835  23.850  0.00  0.00    -0.328 N 
ATOM     31  C   UNL     1      -4.018  -2.479  24.078  0.00  0.00    +0.231 C 
ATOM     42  H   UNL     1      -4.509  -4.188  22.980  0.00  0.00    +0.145 HD
ATOM     43  H   UNL     1      -3.838  -4.529  24.534  0.00  0.00    +0.145 HD
ENDBRANCH  29  31
BRANCH  29  30
ATOM     30  C   UNL     1      -4.343  -1.289  26.261  0.00  0.00    +0.074 C 
BRANCH  30  32
ATOM      1  S   UNL     1      -6.043   0.916  26.153  0.00  0.00    -0.102 S 
ATOM     32  C   UNL     1      -4.753  -0.028  25.538  0.00  0.00    -0.008 A 
ATOM     33  C   UNL     1      -4.219   0.515  24.389  0.00  0.00    +0.011 A 
ATOM     34  C   UNL     1      -4.878   1.720  24.009  0.00  0.00    +0.008 A 
ATOM     35  C   UNL     1      -5.890   2.054  24.883  0.00  0.00    +0.045 A 
ENDBRANCH  30  32
ENDBRANCH  29  30
ENDBRANCH  11  29
ENDBRANCH  20  27
BRANCH  20   2
ATOM      2  O   UNL     1       0.941  -1.553  25.261  0.00  0.00    -0.379 OA
ATOM     37  H   UNL     1       0.616  -1.215  26.112  0.00  0.00    +0.211 HD
ENDBRANCH  20   2
BRANCH  23   3
ATOM      3  O   UNL     1       2.704   1.858  22.861  0.00  0.00    -0.387 OA
ATOM     38  H   UNL     1       3.213   1.669  23.668  0.00  0.00    +0.210 HD
ENDBRANCH  23   3
BRANCH  24   4
ATOM      4  O   UNL     1       2.373  -0.523  21.335  0.00  0.00    -0.389 OA
ATOM     39  H   UNL     1       3.058  -1.213  21.340  0.00  0.00    +0.210 HD
ENDBRANCH  24   4
TORSDOF 14
ENDMDL
MODEL 10
REMARK VINA RESULT:       6.6      2.460      4.634
REMARK  Name = 7134491
REMARK  14 active torsions:
REMARK  status: ('A' for Active; 'I' for Inactive)
REMARK    1  A    between atoms: O_2  and  C_20
REMARK    2  A    between atoms: O_3  and  C_23
REMARK    3  A    between atoms: O_4  and  C_24
REMARK    4  A    between atoms: O_7  and  C_28
REMARK    5  A    between atoms: N_10  and  C_19
REMARK    6  A    between atoms: N_11  and  C_29
REMARK    7  A    between atoms: C_13  and  C_18
REMARK    8  A    between atoms: C_13  and  C_22
REMARK    9  A    between atoms: C_18  and  C_26
REMARK   10  A    between atoms: C_20  and  C_27
REMARK   11  A    between atoms: C_22  and  C_28
REMARK   12  A    between atoms: C_29  and  C_30
REMARK   13  A    between atoms: C_29  and  C_31
REMARK   14  A    between atoms: C_30  and  C_32
REMARK                            x       y       z     vdW  Elec       q    Type
REMARK                         _______ _______ _______ _____ _____    ______ ____
ROOT
ATOM     19  C   UNL     1      -0.671   3.673  23.858  0.00  0.00    +0.107 C 
ATOM     20  C   UNL     1      -3.153   3.603  24.400  0.00  0.00    +0.146 C 
ATOM     21  C   UNL     1      -1.834   2.827  24.388  0.00  0.00    +0.069 C 
ATOM     23  C   UNL     1      -0.543   5.003  24.613  0.00  0.00    +0.163 C 
ATOM     24  C   UNL     1      -1.865   5.774  24.648  0.00  0.00    +0.148 C 
ATOM     25  C   UNL     1      -3.017   4.914  25.172  0.00  0.00    +0.078 C 
ENDROOT
BRANCH  19  10
ATOM      5  O   UNL     1      -0.222   1.213  25.313  0.00  0.00    -0.276 OA
ATOM     10  N   UNL     1       0.561   2.919  23.943  0.00  0.00    -0.310 N 
ATOM     26  C   UNL     1       0.678   1.744  24.670  0.00  0.00    +0.214 C 
ATOM     36  H   UNL     1       1.383   3.315  23.499  0.00  0.00    +0.149 HD
BRANCH  26  18
ATOM     18  C   UNL     1       2.080   1.171  24.575  0.00  0.00    +0.103 C 
BRANCH  18  13
ATOM     13  C   UNL     1       2.350   0.496  23.230  0.00  0.00    -0.011 C 
ATOM     14  C   UNL     1       2.482  -1.027  23.378  0.00  0.00    +0.008 C 
ATOM     15  C   UNL     1       1.145   0.613  22.286  0.00  0.00    +0.008 C 
ATOM     16  C   UNL     1       2.163  -1.588  21.994  0.00  0.00    +0.001 C 
ATOM     17  C   UNL     1       1.305  -0.535  21.293  0.00  0.00    +0.001 C 
BRANCH  13  22
ATOM     22  C   UNL     1       3.613   1.107  22.600  0.00  0.00    +0.127 C 
BRANCH  22  28
ATOM      8  O   UNL     1       5.667  -0.205  22.540  0.00  0.00    -0.251 OA
ATOM     28  C   UNL     1       4.858   0.476  23.152  0.00  0.00    +0.305 C 
BRANCH  28   7
ATOM      7  O   UNL     1       4.970   0.777  24.470  0.00  0.00    -0.481 OA
ATOM     41  H   UNL     1       4.272   1.401  24.764  0.00  0.00    +0.295 HD
ENDBRANCH  28   7
ENDBRANCH  22  28
ENDBRANCH  13  22
ENDBRANCH  18  13
ENDBRANCH  26  18
ENDBRANCH  19  10
BRANCH  20  27
ATOM      6  O   UNL     1      -4.933   3.166  25.931  0.00  0.00    -0.273 OA
ATOM     11  N   UNL     1      -4.366   1.537  24.368  0.00  0.00    -0.301 N 
ATOM     27  C   UNL     1      -4.252   2.768  24.990  0.00  0.00    +0.246 C 
ATOM     40  H   UNL     1      -3.707   1.272  23.643  0.00  0.00    +0.150 HD
BRANCH  11  29
ATOM     29  C   UNL     1      -5.334   0.538  24.763  0.00  0.00    +0.163 C 
BRANCH  29  31
ATOM      9  O   UNL     1      -7.388   1.815  24.519  0.00  0.00    -0.274 OA
ATOM     12  N   UNL     1      -6.689   1.251  26.633  0.00  0.00    -0.328 N 
ATOM     31  C   UNL     1      -6.565   1.282  25.260  0.00  0.00    +0.231 C 
ATOM     42  H   UNL     1      -7.475   1.697  27.094  0.00  0.00    +0.145 HD
ATOM     43  H   UNL     1      -6.004   0.805  27.234  0.00  0.00    +0.145 HD
ENDBRANCH  29  31
BRANCH  29  30
ATOM     30  C   UNL     1      -4.796  -0.394  25.854  0.00  0.00    +0.074 C 
BRANCH  30  32
ATOM      1  S   UNL     1      -3.711  -2.418  24.278  0.00  0.00    -0.102 S 
ATOM     32  C   UNL     1      -3.562  -1.143  25.411  0.00  0.00    -0.008 A 
ATOM     33  C   UNL     1      -2.254  -0.949  25.801  0.00  0.00    +0.011 A 
ATOM     34  C   UNL     1      -1.364  -1.860  25.162  0.00  0.00    +0.008 A 
ATOM     35  C   UNL     1      -2.025  -2.715  24.307  0.00  0.00    +0.045 A 
ENDBRANCH  30  32
ENDBRANCH  29  30
ENDBRANCH  11  29
ENDBRANCH  20  27
BRANCH  20   2
ATOM      2  O   UNL     1      -3.577   3.886  23.072  0.00  0.00    -0.379 OA
ATOM     37  H   UNL     1      -4.236   3.221  22.811  0.00  0.00    +0.211 HD
ENDBRANCH  20   2
BRANCH  23   3
ATOM      3  O   UNL     1       0.420   5.827  23.948  0.00  0.00    -0.387 OA
ATOM     38  H   UNL     1       1.037   6.169  24.617  0.00  0.00    +0.210 HD
ENDBRANCH  23   3
BRANCH  24   4
ATOM      4  O   UNL     1      -1.707   6.905  25.504  0.00  0.00    -0.389 OA
ATOM     39  H   UNL     1      -2.452   7.506  25.335  0.00  0.00    +0.210 HD
ENDBRANCH  24   4
TORSDOF 14
ENDMDL
