MODEL 1
REMARK VINA RESULT:       2.9      0.000      0.000
REMARK  Name = 7144226
REMARK  7 active torsions:
REMARK  status: ('A' for Active; 'I' for Inactive)
REMARK    1  A    between atoms: S_1  and  C_28
REMARK    2  A    between atoms: S_1  and  C_29
REMARK    3  A    between atoms: O_4  and  C_27
REMARK    4  A    between atoms: C_15  and  C_20
REMARK    5  A    between atoms: C_17  and  C_21
REMARK    6  A    between atoms: C_21  and  C_22
REMARK    7  A    between atoms: C_22  and  C_27
REMARK                            x       y       z     vdW  Elec       q    Type
REMARK                         _______ _______ _______ _____ _____    ______ ____
ROOT
ATOM      2  O   UNL     1      -3.340   4.804  26.885  0.00  0.00    -0.268 OA
ATOM      3  O   UNL     1      -5.509   0.104  25.909  0.00  0.00    -0.276 OA
ATOM      6  N   UNL     1      -4.125   0.710  24.144  0.00  0.00    -0.301 N 
ATOM      7  N   UNL     1      -2.805   3.463  25.041  0.00  0.00    -0.311 N 
ATOM      8  C   UNL     1      -4.514   2.979  23.192  0.00  0.00    +0.027 C 
ATOM      9  C   UNL     1      -2.270   1.983  23.080  0.00  0.00    +0.054 C 
ATOM     10  C   UNL     1      -3.291   2.814  22.304  0.00  0.00    +0.018 C 
ATOM     11  C   UNL     1      -5.116   1.611  23.554  0.00  0.00    +0.113 C 
ATOM     12  C   UNL     1      -4.108   3.772  24.436  0.00  0.00    +0.130 C 
ATOM     13  C   UNL     1      -2.869   0.596  23.394  0.00  0.00    +0.117 C 
ATOM     14  C   UNL     1      -1.841   2.680  24.373  0.00  0.00    +0.034 A 
ATOM     15  C   UNL     1      -0.596   2.547  24.901  0.00  0.00    +0.002 A 
ATOM     16  C   UNL     1      -2.542   4.099  26.267  0.00  0.00    +0.252 A 
ATOM     17  C   UNL     1      -4.445  -0.009  25.295  0.00  0.00    +0.216 C 
ATOM     18  C   UNL     1      -0.291   3.185  26.166  0.00  0.00    +0.015 A 
ATOM     19  C   UNL     1      -1.189   3.907  26.836  0.00  0.00    +0.071 A 
ENDROOT
BRANCH  15  20
ATOM     20  C   UNL     1       0.453   1.751  24.228  0.00  0.00    -0.016 A 
ATOM     23  C   UNL     1       0.285   0.378  24.071  0.00  0.00    +0.009 A 
ATOM     24  C   UNL     1       1.602   2.379  23.757  0.00  0.00    +0.009 A 
ATOM     25  C   UNL     1       1.275  -0.373  23.437  0.00  0.00    +0.015 A 
ATOM     26  C   UNL     1       2.593   1.628  23.124  0.00  0.00    +0.015 A 
ATOM     28  C   UNL     1       2.429   0.252  22.963  0.00  0.00    +0.008 A 
BRANCH  28   1
ATOM      1  S   UNL     1       3.694  -0.707  22.154  0.00  0.00    -0.129 S 
ATOM     29  C   UNL     1       5.179  -0.207  23.070  0.00  0.00    +0.090 C 
ENDBRANCH  28   1
ENDBRANCH  15  20
BRANCH  17  21
ATOM     21  C   UNL     1      -3.400  -0.971  25.802  0.00  0.00    +0.107 C 
BRANCH  21  22
ATOM     22  C   UNL     1      -3.421  -2.237  24.969  0.00  0.00    +0.129 C 
BRANCH  22  27
ATOM      5  O   UNL     1      -1.785  -3.261  23.514  0.00  0.00    -0.251 OA
ATOM     27  C   UNL     1      -2.030  -2.621  24.528  0.00  0.00    +0.305 C 
BRANCH  27   4
ATOM      4  O   UNL     1      -1.073  -2.197  25.391  0.00  0.00    -0.481 OA
ATOM     30  H   UNL     1      -1.271  -2.461  26.314  0.00  0.00    +0.295 HD
ENDBRANCH  27   4
ENDBRANCH  22  27
ENDBRANCH  21  22
ENDBRANCH  17  21
TORSDOF 6
ENDMDL
