MODEL 1
REMARK VINA RESULT:      -6.1      0.000      0.000
REMARK  Name = 75367633
REMARK  4 active torsions:
REMARK  status: ('A' for Active; 'I' for Inactive)
REMARK    1  A    between atoms: O_3  and  C_12
REMARK    2  A    between atoms: O_3  and  C_15
REMARK    3  A    between atoms: C_6  and  C_9
REMARK    4  A    between atoms: C_17  and  C_20
REMARK                            x       y       z     vdW  Elec       q    Type
REMARK                         _______ _______ _______ _____ _____    ______ ____
ROOT
ATOM      1  O   UNL     1       0.537  -0.400  23.199  0.00  0.00    -0.375 OA
ATOM      2  O   UNL     1      -4.001  -0.354  25.620  0.00  0.00    -0.275 OA
ATOM      4  N   UNL     1      -1.747  -0.754  25.150  0.00  0.00    -0.295 N 
ATOM      9  C   UNL     1      -3.091  -1.125  25.327  0.00  0.00    +0.219 C 
ATOM     10  C   UNL     1      -1.380   0.656  25.297  0.00  0.00    +0.154 C 
ATOM     11  C   UNL     1      -0.708  -1.729  24.799  0.00  0.00    +0.136 C 
ATOM     12  C   UNL     1      -1.070   1.311  23.951  0.00  0.00    +0.218 C 
ATOM     13  C   UNL     1       0.647  -1.164  24.396  0.00  0.00    +0.179 C 
ATOM     14  C   UNL     1       0.329   0.988  23.431  0.00  0.00    +0.206 C 
ENDROOT
BRANCH   9   6
ATOM      6  C   UNL     1      -3.434  -2.566  25.119  0.00  0.00    +0.075 C 
ATOM      7  C   UNL     1      -2.853  -3.270  23.940  0.00  0.00    +0.013 C 
ATOM      8  C   UNL     1      -4.313  -2.928  23.970  0.00  0.00    +0.013 C 
ENDBRANCH   9   6
BRANCH  12   3
ATOM      3  O   UNL     1      -1.178   2.723  24.115  0.00  0.00    -0.469 OA
BRANCH   3  15
ATOM      5  N   UNL     1      -3.460   2.567  24.490  0.00  0.00    -0.218 NA
ATOM     15  C   UNL     1      -2.289   3.182  24.770  0.00  0.00    +0.215 A 
ATOM     16  C   UNL     1      -2.158   4.232  25.664  0.00  0.00    +0.067 A 
ATOM     17  C   UNL     1      -4.552   3.030  25.142  0.00  0.00    +0.042 A 
ATOM     18  C   UNL     1      -3.302   4.679  26.313  0.00  0.00    +0.007 A 
ATOM     19  C   UNL     1      -4.526   4.074  26.053  0.00  0.00    +0.023 A 
ATOM     20  C   UNL     1      -5.848   2.358  24.835  0.00  0.00    +0.066 C 
ENDBRANCH   3  15
ENDBRANCH  12   3
TORSDOF 3
ENDMDL
MODEL 2
REMARK VINA RESULT:      -5.1      1.406      5.242
REMARK  Name = 75367633
REMARK  4 active torsions:
REMARK  status: ('A' for Active; 'I' for Inactive)
REMARK    1  A    between atoms: O_3  and  C_12
REMARK    2  A    between atoms: O_3  and  C_15
REMARK    3  A    between atoms: C_6  and  C_9
REMARK    4  A    between atoms: C_17  and  C_20
REMARK                            x       y       z     vdW  Elec       q    Type
REMARK                         _______ _______ _______ _____ _____    ______ ____
ROOT
ATOM      1  O   UNL     1      -0.228   3.827  25.915  0.00  0.00    -0.375 OA
ATOM      2  O   UNL     1      -4.453   1.682  23.913  0.00  0.00    -0.275 OA
ATOM      4  N   UNL     1      -2.709   3.187  24.308  0.00  0.00    -0.295 N 
ATOM      9  C   UNL     1      -4.049   2.761  24.338  0.00  0.00    +0.219 C 
ATOM     10  C   UNL     1      -1.696   2.287  23.755  0.00  0.00    +0.154 C 
ATOM     11  C   UNL     1      -2.294   4.493  24.835  0.00  0.00    +0.136 C 
ATOM     12  C   UNL     1      -0.809   1.685  24.844  0.00  0.00    +0.218 C 
ATOM     13  C   UNL     1      -0.796   4.727  24.968  0.00  0.00    +0.179 C 
ATOM     14  C   UNL     1       0.283   2.636  25.329  0.00  0.00    +0.206 C 
ENDROOT
BRANCH   9   6
ATOM      6  C   UNL     1      -5.047   3.688  24.956  0.00  0.00    +0.075 C 
ATOM      7  C   UNL     1      -5.105   3.777  26.443  0.00  0.00    +0.013 C 
ATOM      8  C   UNL     1      -6.206   3.099  25.684  0.00  0.00    +0.013 C 
ENDBRANCH   9   6
BRANCH  12   3
ATOM      3  O   UNL     1      -0.188   0.518  24.309  0.00  0.00    -0.469 OA
BRANCH   3  15
ATOM      5  N   UNL     1      -2.175  -0.659  24.113  0.00  0.00    -0.218 NA
ATOM     15  C   UNL     1      -0.868  -0.661  24.456  0.00  0.00    +0.215 A 
ATOM     16  C   UNL     1      -0.194  -1.770  24.941  0.00  0.00    +0.067 A 
ATOM     17  C   UNL     1      -2.837  -1.830  24.264  0.00  0.00    +0.042 A 
ATOM     18  C   UNL     1      -0.908  -2.954  25.082  0.00  0.00    +0.007 A 
ATOM     19  C   UNL     1      -2.255  -2.993  24.740  0.00  0.00    +0.023 A 
ATOM     20  C   UNL     1      -4.282  -1.834  23.890  0.00  0.00    +0.066 C 
ENDBRANCH   3  15
ENDBRANCH  12   3
TORSDOF 3
ENDMDL
MODEL 3
REMARK VINA RESULT:      -5.1     14.364     16.884
REMARK  Name = 75367633
REMARK  4 active torsions:
REMARK  status: ('A' for Active; 'I' for Inactive)
REMARK    1  A    between atoms: O_3  and  C_12
REMARK    2  A    between atoms: O_3  and  C_15
REMARK    3  A    between atoms: C_6  and  C_9
REMARK    4  A    between atoms: C_17  and  C_20
REMARK                            x       y       z     vdW  Elec       q    Type
REMARK                         _______ _______ _______ _____ _____    ______ ____
ROOT
ATOM      1  O   UNL     1      -9.882  -8.450  15.268  0.00  0.00    -0.375 OA
ATOM      2  O   UNL     1      -5.361 -10.781  14.501  0.00  0.00    -0.275 OA
ATOM      4  N   UNL     1      -7.459 -10.257  15.388  0.00  0.00    -0.295 N 
ATOM      9  C   UNL     1      -6.056 -10.337  15.412  0.00  0.00    +0.219 C 
ATOM     10  C   UNL     1      -8.171 -10.709  14.191  0.00  0.00    +0.154 C 
ATOM     11  C   UNL     1      -8.228  -9.712  16.513  0.00  0.00    +0.136 C 
ATOM     12  C   UNL     1      -8.730  -9.540  13.381  0.00  0.00    +0.218 C 
ATOM     13  C   UNL     1      -9.708  -9.454  16.263  0.00  0.00    +0.179 C 
ATOM     14  C   UNL     1     -10.028  -8.974  13.954  0.00  0.00    +0.206 C 
ENDROOT
BRANCH   9   6
ATOM      6  C   UNL     1      -5.363  -9.819  16.632  0.00  0.00    +0.075 C 
ATOM      7  C   UNL     1      -3.970 -10.275  16.902  0.00  0.00    +0.013 C 
ATOM      8  C   UNL     1      -5.101 -10.765  17.754  0.00  0.00    +0.013 C 
ENDBRANCH   9   6
BRANCH  12   3
ATOM      3  O   UNL     1      -8.984 -10.004  12.057  0.00  0.00    -0.469 OA
BRANCH   3  15
ATOM      5  N   UNL     1      -6.963  -9.284  11.178  0.00  0.00    -0.218 NA
ATOM     15  C   UNL     1      -8.306  -9.378  11.047  0.00  0.00    +0.215 A 
ATOM     16  C   UNL     1      -9.016  -8.882   9.966  0.00  0.00    +0.067 A 
ATOM     17  C   UNL     1      -6.305  -8.661  10.174  0.00  0.00    +0.042 A 
ATOM     18  C   UNL     1      -8.304  -8.249   8.955  0.00  0.00    +0.007 A 
ATOM     19  C   UNL     1      -6.922  -8.131   9.053  0.00  0.00    +0.023 A 
ATOM     20  C   UNL     1      -4.823  -8.550  10.315  0.00  0.00    +0.066 C 
ENDBRANCH   3  15
ENDBRANCH  12   3
TORSDOF 3
ENDMDL
MODEL 4
REMARK VINA RESULT:      -5.0     14.990     17.566
REMARK  Name = 75367633
REMARK  4 active torsions:
REMARK  status: ('A' for Active; 'I' for Inactive)
REMARK    1  A    between atoms: O_3  and  C_12
REMARK    2  A    between atoms: O_3  and  C_15
REMARK    3  A    between atoms: C_6  and  C_9
REMARK    4  A    between atoms: C_17  and  C_20
REMARK                            x       y       z     vdW  Elec       q    Type
REMARK                         _______ _______ _______ _____ _____    ______ ____
ROOT
ATOM      1  O   UNL     1      -5.515  -8.253  10.960  0.00  0.00    -0.375 OA
ATOM      2  O   UNL     1     -10.491  -8.417   9.664  0.00  0.00    -0.275 OA
ATOM      4  N   UNL     1      -8.165  -8.621   9.548  0.00  0.00    -0.295 N 
ATOM      9  C   UNL     1      -9.407  -8.050   9.217  0.00  0.00    +0.219 C 
ATOM     10  C   UNL     1      -8.131  -9.721  10.514  0.00  0.00    +0.154 C 
ATOM     11  C   UNL     1      -6.905  -8.132   8.977  0.00  0.00    +0.136 C 
ATOM     12  C   UNL     1      -7.565  -9.281  11.864  0.00  0.00    +0.218 C 
ATOM     13  C   UNL     1      -5.623  -8.666   9.601  0.00  0.00    +0.179 C 
ATOM     14  C   UNL     1      -6.040  -9.199  11.882  0.00  0.00    +0.206 C 
ENDROOT
BRANCH   9   6
ATOM      6  C   UNL     1      -9.396  -6.896   8.265  0.00  0.00    +0.075 C 
ATOM      7  C   UNL     1      -9.439  -5.516   8.826  0.00  0.00    +0.013 C 
ATOM      8  C   UNL     1     -10.637  -6.082   8.124  0.00  0.00    +0.013 C 
ENDBRANCH   9   6
BRANCH  12   3
ATOM      3  O   UNL     1      -7.981 -10.229  12.844  0.00  0.00    -0.469 OA
BRANCH   3  15
ATOM      5  N   UNL     1      -7.650  -9.932  15.119  0.00  0.00    -0.218 NA
ATOM     15  C   UNL     1      -8.430  -9.725  14.034  0.00  0.00    +0.215 A 
ATOM     16  C   UNL     1      -9.637  -9.045  14.064  0.00  0.00    +0.067 A 
ATOM     17  C   UNL     1      -8.106  -9.431  16.290  0.00  0.00    +0.042 A 
ATOM     18  C   UNL     1     -10.071  -8.545  15.286  0.00  0.00    +0.007 A 
ATOM     19  C   UNL     1      -9.298  -8.737  16.425  0.00  0.00    +0.023 A 
ATOM     20  C   UNL     1      -7.252  -9.658  17.492  0.00  0.00    +0.066 C 
ENDBRANCH   3  15
ENDBRANCH  12   3
TORSDOF 3
ENDMDL
MODEL 5
REMARK VINA RESULT:      -4.9      1.874      4.186
REMARK  Name = 75367633
REMARK  4 active torsions:
REMARK  status: ('A' for Active; 'I' for Inactive)
REMARK    1  A    between atoms: O_3  and  C_12
REMARK    2  A    between atoms: O_3  and  C_15
REMARK    3  A    between atoms: C_6  and  C_9
REMARK    4  A    between atoms: C_17  and  C_20
REMARK                            x       y       z     vdW  Elec       q    Type
REMARK                         _______ _______ _______ _____ _____    ______ ____
ROOT
ATOM      1  O   UNL     1      -6.428   2.346  25.923  0.00  0.00    -0.375 OA
ATOM      2  O   UNL     1      -1.949  -0.135  25.427  0.00  0.00    -0.275 OA
ATOM      4  N   UNL     1      -4.045   0.771  24.928  0.00  0.00    -0.295 N 
ATOM      9  C   UNL     1      -3.144  -0.278  25.181  0.00  0.00    +0.219 C 
ATOM     10  C   UNL     1      -3.554   2.149  24.978  0.00  0.00    +0.154 C 
ATOM     11  C   UNL     1      -5.464   0.528  24.641  0.00  0.00    +0.136 C 
ATOM     12  C   UNL     1      -4.042   2.887  26.224  0.00  0.00    +0.218 C 
ATOM     13  C   UNL     1      -6.374   1.749  24.631  0.00  0.00    +0.179 C 
ATOM     14  C   UNL     1      -5.480   3.390  26.104  0.00  0.00    +0.206 C 
ENDROOT
BRANCH   9   6
ATOM      6  C   UNL     1      -3.695  -1.669  25.170  0.00  0.00    +0.075 C 
ATOM      7  C   UNL     1      -2.852  -2.759  24.602  0.00  0.00    +0.013 C 
ATOM      8  C   UNL     1      -4.061  -2.276  23.858  0.00  0.00    +0.013 C 
ENDBRANCH   9   6
BRANCH  12   3
ATOM      3  O   UNL     1      -3.186   4.007  26.435  0.00  0.00    -0.469 OA
BRANCH   3  15
ATOM      5  N   UNL     1      -1.386   2.937  25.442  0.00  0.00    -0.218 NA
ATOM     15  C   UNL     1      -2.071   4.085  25.646  0.00  0.00    +0.215 A 
ATOM     16  C   UNL     1      -1.710   5.310  25.110  0.00  0.00    +0.067 A 
ATOM     17  C   UNL     1      -0.284   3.027  24.661  0.00  0.00    +0.042 A 
ATOM     18  C   UNL     1      -0.572   5.362  24.314  0.00  0.00    +0.007 A 
ATOM     19  C   UNL     1       0.160   4.204  24.080  0.00  0.00    +0.023 A 
ATOM     20  C   UNL     1       0.479   1.765  24.435  0.00  0.00    +0.066 C 
ENDBRANCH   3  15
ENDBRANCH  12   3
TORSDOF 3
ENDMDL
MODEL 6
REMARK VINA RESULT:      -4.9     18.345     20.530
REMARK  Name = 75367633
REMARK  4 active torsions:
REMARK  status: ('A' for Active; 'I' for Inactive)
REMARK    1  A    between atoms: O_3  and  C_12
REMARK    2  A    between atoms: O_3  and  C_15
REMARK    3  A    between atoms: C_6  and  C_9
REMARK    4  A    between atoms: C_17  and  C_20
REMARK                            x       y       z     vdW  Elec       q    Type
REMARK                         _______ _______ _______ _____ _____    ______ ____
ROOT
ATOM      1  O   UNL     1      12.382  -5.912  30.826  0.00  0.00    -0.375 OA
ATOM      2  O   UNL     1      17.255  -4.263  30.803  0.00  0.00    -0.275 OA
ATOM      4  N   UNL     1      15.145  -4.924  31.562  0.00  0.00    -0.295 N 
ATOM      9  C   UNL     1      16.165  -3.993  31.301  0.00  0.00    +0.219 C 
ATOM     10  C   UNL     1      15.363  -6.326  31.201  0.00  0.00    +0.154 C 
ATOM     11  C   UNL     1      13.863  -4.531  32.159  0.00  0.00    +0.136 C 
ATOM     12  C   UNL     1      14.544  -6.736  29.976  0.00  0.00    +0.218 C 
ATOM     13  C   UNL     1      12.762  -5.582  32.159  0.00  0.00    +0.179 C 
ATOM     14  C   UNL     1      13.081  -7.033  30.300  0.00  0.00    +0.206 C 
ENDROOT
BRANCH   9   6
ATOM      6  C   UNL     1      15.886  -2.562  31.638  0.00  0.00    +0.075 C 
ATOM      7  C   UNL     1      16.665  -1.504  30.935  0.00  0.00    +0.013 C 
ATOM      8  C   UNL     1      16.924  -1.793  32.383  0.00  0.00    +0.013 C 
ENDBRANCH   9   6
BRANCH  12   3
ATOM      3  O   UNL     1      15.135  -7.912  29.427  0.00  0.00    -0.469 OA
BRANCH   3  15
ATOM      5  N   UNL     1      15.525  -8.996  27.416  0.00  0.00    -0.218 NA
ATOM     15  C   UNL     1      15.540  -7.843  28.122  0.00  0.00    +0.215 A 
ATOM     16  C   UNL     1      15.938  -6.621  27.605  0.00  0.00    +0.067 A 
ATOM     17  C   UNL     1      15.930  -8.916  26.128  0.00  0.00    +0.042 A 
ATOM     18  C   UNL     1      16.347  -6.580  26.277  0.00  0.00    +0.007 A 
ATOM     19  C   UNL     1      16.346  -7.744  25.517  0.00  0.00    +0.023 A 
ATOM     20  C   UNL     1      15.919 -10.186  25.344  0.00  0.00    +0.066 C 
ENDBRANCH   3  15
ENDBRANCH  12   3
TORSDOF 3
ENDMDL
MODEL 7
REMARK VINA RESULT:      -4.6     16.872     18.590
REMARK  Name = 75367633
REMARK  4 active torsions:
REMARK  status: ('A' for Active; 'I' for Inactive)
REMARK    1  A    between atoms: O_3  and  C_12
REMARK    2  A    between atoms: O_3  and  C_15
REMARK    3  A    between atoms: C_6  and  C_9
REMARK    4  A    between atoms: C_17  and  C_20
REMARK                            x       y       z     vdW  Elec       q    Type
REMARK                         _______ _______ _______ _____ _____    ______ ____
ROOT
ATOM      1  O   UNL     1      -9.463  -6.935   8.944  0.00  0.00    -0.375 OA
ATOM      2  O   UNL     1      -8.612 -10.781  12.253  0.00  0.00    -0.275 OA
ATOM      4  N   UNL     1      -9.603  -9.468  10.592  0.00  0.00    -0.295 N 
ATOM      9  C   UNL     1      -9.515 -10.039  11.873  0.00  0.00    +0.219 C 
ATOM     10  C   UNL     1      -8.539  -9.742   9.624  0.00  0.00    +0.154 C 
ATOM     11  C   UNL     1     -10.711  -8.588  10.205  0.00  0.00    +0.136 C 
ATOM     12  C   UNL     1      -7.638  -8.527   9.404  0.00  0.00    +0.218 C 
ATOM     13  C   UNL     1     -10.559  -7.843   8.886  0.00  0.00    +0.179 C 
ATOM     14  C   UNL     1      -8.244  -7.488   8.463  0.00  0.00    +0.206 C 
ENDROOT
BRANCH   9   6
ATOM      6  C   UNL     1     -10.595  -9.696  12.850  0.00  0.00    +0.075 C 
ATOM      7  C   UNL     1     -10.234  -8.889  14.050  0.00  0.00    +0.013 C 
ATOM      8  C   UNL     1     -10.570 -10.344  14.192  0.00  0.00    +0.013 C 
ENDBRANCH   9   6
BRANCH  12   3
ATOM      3  O   UNL     1      -6.410  -8.987   8.842  0.00  0.00    -0.469 OA
BRANCH   3  15
ATOM      5  N   UNL     1      -5.753  -9.677  10.955  0.00  0.00    -0.218 NA
ATOM     15  C   UNL     1      -5.396  -9.257   9.720  0.00  0.00    +0.215 A 
ATOM     16  C   UNL     1      -4.085  -9.087   9.307  0.00  0.00    +0.067 A 
ATOM     17  C   UNL     1      -4.742  -9.939  11.815  0.00  0.00    +0.042 A 
ATOM     18  C   UNL     1      -3.075  -9.366  10.219  0.00  0.00    +0.007 A 
ATOM     19  C   UNL     1      -3.400  -9.800  11.499  0.00  0.00    +0.023 A 
ATOM     20  C   UNL     1      -5.128 -10.400  13.180  0.00  0.00    +0.066 C 
ENDBRANCH   3  15
ENDBRANCH  12   3
TORSDOF 3
ENDMDL
MODEL 8
REMARK VINA RESULT:      -4.5     14.012     16.285
REMARK  Name = 75367633
REMARK  4 active torsions:
REMARK  status: ('A' for Active; 'I' for Inactive)
REMARK    1  A    between atoms: O_3  and  C_12
REMARK    2  A    between atoms: O_3  and  C_15
REMARK    3  A    between atoms: C_6  and  C_9
REMARK    4  A    between atoms: C_17  and  C_20
REMARK                            x       y       z     vdW  Elec       q    Type
REMARK                         _______ _______ _______ _____ _____    ______ ____
ROOT
ATOM      1  O   UNL     1      -0.973  -8.855  12.749  0.00  0.00    -0.375 OA
ATOM      2  O   UNL     1      -5.806 -10.077  11.483  0.00  0.00    -0.275 OA
ATOM      4  N   UNL     1      -3.474  -9.928  11.430  0.00  0.00    -0.295 N 
ATOM      9  C   UNL     1      -4.774  -9.645  10.976  0.00  0.00    +0.219 C 
ATOM     10  C   UNL     1      -3.310 -10.781  12.609  0.00  0.00    +0.154 C 
ATOM     11  C   UNL     1      -2.282  -9.376  10.776  0.00  0.00    +0.136 C 
ATOM     12  C   UNL     1      -2.875  -9.983  13.838  0.00  0.00    +0.218 C 
ATOM     13  C   UNL     1      -0.960  -9.556  11.509  0.00  0.00    +0.179 C 
ATOM     14  C   UNL     1      -1.382  -9.658  13.849  0.00  0.00    +0.206 C 
ENDROOT
BRANCH   9   6
ATOM      6  C   UNL     1      -4.902  -8.730   9.800  0.00  0.00    +0.075 C 
ATOM      7  C   UNL     1      -6.234  -8.604   9.142  0.00  0.00    +0.013 C 
ATOM      8  C   UNL     1      -5.119  -9.332   8.453  0.00  0.00    +0.013 C 
ENDBRANCH   9   6
BRANCH  12   3
ATOM      3  O   UNL     1      -3.179 -10.759  14.995  0.00  0.00    -0.469 OA
BRANCH   3  15
ATOM      5  N   UNL     1      -4.505 -10.738  16.896  0.00  0.00    -0.218 NA
ATOM     15  C   UNL     1      -4.410 -10.563  15.558  0.00  0.00    +0.215 A 
ATOM     16  C   UNL     1      -5.474 -10.207  14.744  0.00  0.00    +0.067 A 
ATOM     17  C   UNL     1      -5.728 -10.544  17.440  0.00  0.00    +0.042 A 
ATOM     18  C   UNL     1      -6.714 -10.017  15.342  0.00  0.00    +0.007 A 
ATOM     19  C   UNL     1      -6.853 -10.187  16.715  0.00  0.00    +0.023 A 
ATOM     20  C   UNL     1      -5.841 -10.738  18.916  0.00  0.00    +0.066 C 
ENDBRANCH   3  15
ENDBRANCH  12   3
TORSDOF 3
ENDMDL
MODEL 9
REMARK VINA RESULT:      -4.3     17.942     19.809
REMARK  Name = 75367633
REMARK  4 active torsions:
REMARK  status: ('A' for Active; 'I' for Inactive)
REMARK    1  A    between atoms: O_3  and  C_12
REMARK    2  A    between atoms: O_3  and  C_15
REMARK    3  A    between atoms: C_6  and  C_9
REMARK    4  A    between atoms: C_17  and  C_20
REMARK                            x       y       z     vdW  Elec       q    Type
REMARK                         _______ _______ _______ _____ _____    ______ ____
ROOT
ATOM      1  O   UNL     1      15.508  -8.566  26.135  0.00  0.00    -0.375 OA
ATOM      2  O   UNL     1      14.855  -5.401  30.137  0.00  0.00    -0.275 OA
ATOM      4  N   UNL     1      15.333  -7.315  28.883  0.00  0.00    -0.295 N 
ATOM      9  C   UNL     1      14.569  -6.538  29.772  0.00  0.00    +0.219 C 
ATOM     10  C   UNL     1      16.555  -6.740  28.317  0.00  0.00    +0.154 C 
ATOM     11  C   UNL     1      14.931  -8.669  28.487  0.00  0.00    +0.136 C 
ATOM     12  C   UNL     1      16.387  -6.374  26.843  0.00  0.00    +0.218 C 
ATOM     13  C   UNL     1      15.707  -9.300  27.339  0.00  0.00    +0.179 C 
ATOM     14  C   UNL     1      16.503  -7.575  25.906  0.00  0.00    +0.206 C 
ENDROOT
BRANCH   9   6
ATOM      6  C   UNL     1      13.302  -7.141  30.289  0.00  0.00    +0.075 C 
ATOM      7  C   UNL     1      12.095  -6.273  30.393  0.00  0.00    +0.013 C 
ATOM      8  C   UNL     1      12.812  -6.718  31.632  0.00  0.00    +0.013 C 
ENDBRANCH   9   6
BRANCH  12   3
ATOM      3  O   UNL     1      17.405  -5.435  26.504  0.00  0.00    -0.469 OA
BRANCH   3  15
ATOM      5  N   UNL     1      17.016  -3.280  25.745  0.00  0.00    -0.218 NA
ATOM     15  C   UNL     1      17.142  -4.595  25.457  0.00  0.00    +0.215 A 
ATOM     16  C   UNL     1      17.019  -5.126  24.183  0.00  0.00    +0.067 A 
ATOM     17  C   UNL     1      16.754  -2.460  24.702  0.00  0.00    +0.042 A 
ATOM     18  C   UNL     1      16.749  -4.250  23.138  0.00  0.00    +0.007 A 
ATOM     19  C   UNL     1      16.612  -2.891  23.393  0.00  0.00    +0.023 A 
ATOM     20  C   UNL     1      16.610  -1.007  25.014  0.00  0.00    +0.066 C 
ENDBRANCH   3  15
ENDBRANCH  12   3
TORSDOF 3
ENDMDL
MODEL 10
REMARK VINA RESULT:      -4.2     13.932     16.250
REMARK  Name = 75367633
REMARK  4 active torsions:
REMARK  status: ('A' for Active; 'I' for Inactive)
REMARK    1  A    between atoms: O_3  and  C_12
REMARK    2  A    between atoms: O_3  and  C_15
REMARK    3  A    between atoms: C_6  and  C_9
REMARK    4  A    between atoms: C_17  and  C_20
REMARK                            x       y       z     vdW  Elec       q    Type
REMARK                         _______ _______ _______ _____ _____    ______ ____
ROOT
ATOM      1  O   UNL     1      -8.388  -9.019  11.547  0.00  0.00    -0.375 OA
ATOM      2  O   UNL     1      -7.079  -9.877  16.447  0.00  0.00    -0.275 OA
ATOM      4  N   UNL     1      -8.274  -9.901  14.438  0.00  0.00    -0.295 N 
ATOM      9  C   UNL     1      -8.041  -9.521  15.771  0.00  0.00    +0.219 C 
ATOM     10  C   UNL     1      -7.298 -10.767  13.772  0.00  0.00    +0.154 C 
ATOM     11  C   UNL     1      -9.447  -9.437  13.688  0.00  0.00    +0.136 C 
ATOM     12  C   UNL     1      -6.469 -10.006  12.738  0.00  0.00    +0.218 C 
ATOM     13  C   UNL     1      -9.450  -9.716  12.191  0.00  0.00    +0.179 C 
ATOM     14  C   UNL     1      -7.202  -9.792  11.415  0.00  0.00    +0.206 C 
ENDROOT
BRANCH   9   6
ATOM      6  C   UNL     1      -9.035  -8.597  16.401  0.00  0.00    +0.075 C 
ATOM      7  C   UNL     1      -9.024  -8.449  17.884  0.00  0.00    +0.013 C 
ATOM      8  C   UNL     1     -10.141  -9.187  17.208  0.00  0.00    +0.013 C 
ENDBRANCH   9   6
BRANCH  12   3
ATOM      3  O   UNL     1      -5.285 -10.759  12.484  0.00  0.00    -0.469 OA
BRANCH   3  15
ATOM      5  N   UNL     1      -4.576 -10.766  14.691  0.00  0.00    -0.218 NA
ATOM     15  C   UNL     1      -4.264 -10.619  13.384  0.00  0.00    +0.215 A 
ATOM     16  C   UNL     1      -2.990 -10.337  12.917  0.00  0.00    +0.067 A 
ATOM     17  C   UNL     1      -3.558 -10.623  15.571  0.00  0.00    +0.042 A 
ATOM     18  C   UNL     1      -1.972 -10.197  13.852  0.00  0.00    +0.007 A 
ATOM     19  C   UNL     1      -2.252 -10.341  15.206  0.00  0.00    +0.023 A 
ATOM     20  C   UNL     1      -3.897 -10.781  17.016  0.00  0.00    +0.066 C 
ENDBRANCH   3  15
ENDBRANCH  12   3
TORSDOF 3
ENDMDL
