MODEL 1
REMARK VINA RESULT:      -2.5      0.000      0.000
REMARK  Name = 25339530
REMARK  13 active torsions:
REMARK  status: ('A' for Active; 'I' for Inactive)
REMARK    1  A    between atoms: O_1  and  C_14
REMARK    2  A    between atoms: N_4  and  C_10
REMARK    3  A    between atoms: N_4  and  C_21
REMARK    4  A    between atoms: N_5  and  C_29
REMARK    5  A    between atoms: N_6  and  C_30
REMARK    6  A    between atoms: C_7  and  C_15
REMARK    7  A    between atoms: C_9  and  C_17
REMARK    8  A    between atoms: C_9  and  C_18
REMARK    9  A    between atoms: C_14  and  C_20
REMARK   10  A    between atoms: C_15  and  C_19
REMARK   11  A    between atoms: C_19  and  C_23
REMARK   12  A    between atoms: C_21  and  C_22
REMARK   13  A    between atoms: C_29  and  C_30
REMARK                            x       y       z     vdW  Elec       q    Type
REMARK                         _______ _______ _______ _____ _____    ______ ____
ROOT
ATOM      7  C   UNL     1      -2.648   1.970  24.533  0.00  0.00    -0.010 C 
ATOM      8  C   UNL     1      -3.379   3.274  24.999  0.00  0.00    +0.005 C 
ATOM      9  C   UNL     1      -2.284   4.103  25.782  0.00  0.00    -0.030 C 
ATOM     10  C   UNL     1      -1.757   1.694  25.768  0.00  0.00    +0.061 C 
ATOM     11  C   UNL     1      -1.172   3.071  26.119  0.00  0.00    +0.026 C 
ATOM     12  C   UNL     1      -3.600   0.806  24.171  0.00  0.00    +0.011 C 
ATOM     13  C   UNL     1      -4.637   2.990  25.858  0.00  0.00    +0.039 C 
ATOM     14  C   UNL     1      -5.569   1.929  25.272  0.00  0.00    +0.064 C 
ATOM     16  C   UNL     1      -4.793   0.622  25.100  0.00  0.00    +0.035 C 
ATOM     17  C   UNL     1      -1.731   5.237  24.894  0.00  0.00    +0.011 C 
ATOM     18  C   UNL     1      -2.767   4.778  27.082  0.00  0.00    +0.011 C 
ATOM     20  C   UNL     1      -6.781   1.719  26.181  0.00  0.00    +0.041 C 
ENDROOT
BRANCH  14   1
ATOM      1  O   UNL     1      -6.044   2.387  24.006  0.00  0.00    -0.389 OA
ATOM     36  H   UNL     1      -5.286   2.437  23.400  0.00  0.00    +0.210 HD
ENDBRANCH  14   1
BRANCH  10   4
ATOM      4  N   UNL     1      -0.712   0.697  25.577  0.00  0.00    -0.312 NA
ATOM     35  H   UNL     1      -0.770   0.306  24.637  0.00  0.00    +0.122 HD
BRANCH   4  21
ATOM     21  C   UNL     1      -0.843  -0.384  26.544  0.00  0.00    +0.084 C 
BRANCH  21  22
ATOM     22  C   UNL     1      -1.469  -1.623  25.905  0.00  0.00    +0.003 C 
ATOM     24  C   UNL     1      -2.982  -1.656  26.154  0.00  0.00    +0.005 C 
ATOM     25  C   UNL     1      -1.160  -1.670  24.402  0.00  0.00    +0.005 C 
ATOM     26  C   UNL     1      -3.638  -2.857  25.479  0.00  0.00    +0.000 C 
ATOM     27  C   UNL     1      -1.820  -2.873  23.730  0.00  0.00    +0.000 C 
ATOM     28  C   UNL     1      -3.323  -2.906  23.987  0.00  0.00    +0.000 C 
ENDBRANCH  21  22
ENDBRANCH   4  21
ENDBRANCH  10   4
BRANCH   7  15
ATOM     15  C   UNL     1      -1.792   2.217  23.262  0.00  0.00    +0.018 C 
BRANCH  15  19
ATOM     19  C   UNL     1      -0.462   2.840  23.635  0.00  0.00    +0.096 C 
BRANCH  19  23
ATOM      2  O   UNL     1       1.664   1.897  24.308  0.00  0.00    -0.276 OA
ATOM      5  N   UNL     1       0.384   0.782  22.724  0.00  0.00    -0.314 N 
ATOM     23  C   UNL     1       0.654   1.810  23.615  0.00  0.00    +0.213 C 
ATOM     37  H   UNL     1      -0.483   0.790  22.196  0.00  0.00    +0.149 HD
BRANCH   5  29
ATOM     29  C   UNL     1       1.294  -0.320  22.521  0.00  0.00    +0.119 C 
BRANCH  29  30
ATOM     30  C   UNL     1       2.489   0.099  21.677  0.00  0.00    +0.103 C 
BRANCH  30   6
ATOM      3  O   UNL     1       5.447  -0.452  24.603  0.00  0.00    -0.377 OA
ATOM      6  N   UNL     1       3.735  -0.289  22.335  0.00  0.00    -0.297 NA
ATOM     31  C   UNL     1       3.476  -1.237  23.427  0.00  0.00    +0.112 C 
ATOM     32  C   UNL     1       4.442   0.891  22.851  0.00  0.00    +0.112 C 
ATOM     33  C   UNL     1       4.788  -1.617  24.107  0.00  0.00    +0.175 C 
ATOM     34  C   UNL     1       5.733   0.460  23.543  0.00  0.00    +0.175 C 
ENDBRANCH  30   6
ENDBRANCH  29  30
ENDBRANCH   5  29
ENDBRANCH  19  23
ENDBRANCH  15  19
ENDBRANCH   7  15
TORSDOF 10
ENDMDL
MODEL 2
REMARK VINA RESULT:      -1.0      1.978      6.894
REMARK  Name = 25339530
REMARK  13 active torsions:
REMARK  status: ('A' for Active; 'I' for Inactive)
REMARK    1  A    between atoms: O_1  and  C_14
REMARK    2  A    between atoms: N_4  and  C_10
REMARK    3  A    between atoms: N_4  and  C_21
REMARK    4  A    between atoms: N_5  and  C_29
REMARK    5  A    between atoms: N_6  and  C_30
REMARK    6  A    between atoms: C_7  and  C_15
REMARK    7  A    between atoms: C_9  and  C_17
REMARK    8  A    between atoms: C_9  and  C_18
REMARK    9  A    between atoms: C_14  and  C_20
REMARK   10  A    between atoms: C_15  and  C_19
REMARK   11  A    between atoms: C_19  and  C_23
REMARK   12  A    between atoms: C_21  and  C_22
REMARK   13  A    between atoms: C_29  and  C_30
REMARK                            x       y       z     vdW  Elec       q    Type
REMARK                         _______ _______ _______ _____ _____    ______ ____
ROOT
ATOM      7  C   UNL     1      -1.121   0.879  24.423  0.00  0.00    -0.010 C 
ATOM      8  C   UNL     1      -2.662   0.608  24.457  0.00  0.00    +0.005 C 
ATOM      9  C   UNL     1      -2.803  -0.929  24.800  0.00  0.00    -0.030 C 
ATOM     10  C   UNL     1      -0.622  -0.430  23.764  0.00  0.00    +0.061 C 
ATOM     11  C   UNL     1      -1.405  -1.533  24.490  0.00  0.00    +0.026 C 
ATOM     12  C   UNL     1      -0.720   2.162  23.657  0.00  0.00    +0.011 C 
ATOM     13  C   UNL     1      -3.374   0.989  23.135  0.00  0.00    +0.039 C 
ATOM     14  C   UNL     1      -2.996   2.369  22.595  0.00  0.00    +0.064 C 
ATOM     16  C   UNL     1      -1.485   2.418  22.365  0.00  0.00    +0.035 C 
ATOM     17  C   UNL     1      -3.166  -1.117  26.288  0.00  0.00    +0.011 C 
ATOM     18  C   UNL     1      -3.879  -1.691  24.000  0.00  0.00    +0.011 C 
ATOM     20  C   UNL     1      -3.748   2.661  21.295  0.00  0.00    +0.041 C 
ENDROOT
BRANCH  14   1
ATOM      1  O   UNL     1      -3.379   3.355  23.554  0.00  0.00    -0.389 OA
ATOM     36  H   UNL     1      -3.736   4.121  23.074  0.00  0.00    +0.210 HD
ENDBRANCH  14   1
BRANCH  10   4
ATOM      4  N   UNL     1       0.815  -0.656  23.828  0.00  0.00    -0.312 NA
ATOM     35  H   UNL     1       1.224  -0.097  24.577  0.00  0.00    +0.122 HD
BRANCH   4  21
ATOM     21  C   UNL     1       1.455  -0.296  22.570  0.00  0.00    +0.084 C 
BRANCH  21  22
ATOM     22  C   UNL     1       2.976  -0.394  22.677  0.00  0.00    +0.003 C 
ATOM     24  C   UNL     1       3.588   0.979  22.983  0.00  0.00    +0.005 C 
ATOM     25  C   UNL     1       3.377  -1.422  23.744  0.00  0.00    +0.005 C 
ATOM     26  C   UNL     1       5.103   0.897  23.148  0.00  0.00    +0.000 C 
ATOM     27  C   UNL     1       4.894  -1.501  23.908  0.00  0.00    +0.000 C 
ATOM     28  C   UNL     1       5.499  -0.132  24.203  0.00  0.00    +0.000 C 
ENDBRANCH  21  22
ENDBRANCH   4  21
ENDBRANCH  10   4
BRANCH   7  15
ATOM     15  C   UNL     1      -0.538   1.049  25.851  0.00  0.00    +0.018 C 
BRANCH  15  19
ATOM     19  C   UNL     1       0.277   2.323  25.940  0.00  0.00    +0.096 C 
BRANCH  19  23
ATOM      2  O   UNL     1      -0.253   4.505  25.034  0.00  0.00    -0.276 OA
ATOM      5  N   UNL     1      -1.793   3.450  26.414  0.00  0.00    -0.314 N 
ATOM     23  C   UNL     1      -0.591   3.550  25.728  0.00  0.00    +0.213 C 
ATOM     37  H   UNL     1      -1.991   2.616  26.959  0.00  0.00    +0.149 HD
BRANCH   5  29
ATOM     29  C   UNL     1      -2.793   4.491  26.374  0.00  0.00    +0.119 C 
BRANCH  29  30
ATOM     30  C   UNL     1      -4.118   4.004  26.941  0.00  0.00    +0.103 C 
BRANCH  30   6
ATOM      3  O   UNL     1      -7.034   1.701  24.991  0.00  0.00    -0.377 OA
ATOM      6  N   UNL     1      -4.764   3.087  26.004  0.00  0.00    -0.297 NA
ATOM     31  C   UNL     1      -5.806   3.779  25.233  0.00  0.00    +0.112 C 
ATOM     32  C   UNL     1      -5.343   1.939  26.714  0.00  0.00    +0.112 C 
ATOM     33  C   UNL     1      -6.476   2.801  24.272  0.00  0.00    +0.175 C 
ATOM     34  C   UNL     1      -6.023   1.003  25.717  0.00  0.00    +0.175 C 
ENDBRANCH  30   6
ENDBRANCH  29  30
ENDBRANCH   5  29
ENDBRANCH  19  23
ENDBRANCH  15  19
ENDBRANCH   7  15
TORSDOF 10
ENDMDL
MODEL 3
REMARK VINA RESULT:       0.2      2.288      7.076
REMARK  Name = 25339530
REMARK  13 active torsions:
REMARK  status: ('A' for Active; 'I' for Inactive)
REMARK    1  A    between atoms: O_1  and  C_14
REMARK    2  A    between atoms: N_4  and  C_10
REMARK    3  A    between atoms: N_4  and  C_21
REMARK    4  A    between atoms: N_5  and  C_29
REMARK    5  A    between atoms: N_6  and  C_30
REMARK    6  A    between atoms: C_7  and  C_15
REMARK    7  A    between atoms: C_9  and  C_17
REMARK    8  A    between atoms: C_9  and  C_18
REMARK    9  A    between atoms: C_14  and  C_20
REMARK   10  A    between atoms: C_15  and  C_19
REMARK   11  A    between atoms: C_19  and  C_23
REMARK   12  A    between atoms: C_21  and  C_22
REMARK   13  A    between atoms: C_29  and  C_30
REMARK                            x       y       z     vdW  Elec       q    Type
REMARK                         _______ _______ _______ _____ _____    ______ ____
ROOT
ATOM      7  C   UNL     1      -0.586   0.770  24.608  0.00  0.00    -0.010 C 
ATOM      8  C   UNL     1      -1.845   1.526  24.065  0.00  0.00    +0.005 C 
ATOM      9  C   UNL     1      -2.094   0.929  22.623  0.00  0.00    -0.030 C 
ATOM     10  C   UNL     1       0.258   0.669  23.315  0.00  0.00    +0.061 C 
ATOM     11  C   UNL     1      -0.755   0.239  22.243  0.00  0.00    +0.026 C 
ATOM     12  C   UNL     1       0.131   1.490  25.774  0.00  0.00    +0.011 C 
ATOM     13  C   UNL     1      -1.666   3.065  24.048  0.00  0.00    +0.039 C 
ATOM     14  C   UNL     1      -1.103   3.645  25.347  0.00  0.00    +0.064 C 
ATOM     16  C   UNL     1       0.255   3.001  25.633  0.00  0.00    +0.035 C 
ATOM     17  C   UNL     1      -3.250  -0.094  22.657  0.00  0.00    +0.011 C 
ATOM     18  C   UNL     1      -2.468   1.956  21.535  0.00  0.00    +0.011 C 
ATOM     20  C   UNL     1      -0.967   5.165  25.240  0.00  0.00    +0.041 C 
ENDROOT
BRANCH  14   1
ATOM      1  O   UNL     1      -2.015   3.359  26.408  0.00  0.00    -0.389 OA
ATOM     36  H   UNL     1      -2.414   4.197  26.695  0.00  0.00    +0.210 HD
ENDBRANCH  14   1
BRANCH  10   4
ATOM      4  N   UNL     1       1.395  -0.238  23.378  0.00  0.00    -0.312 NA
ATOM     35  H   UNL     1       1.934  -0.065  24.226  0.00  0.00    +0.122 HD
BRANCH   4  21
ATOM     21  C   UNL     1       2.266  -0.062  22.223  0.00  0.00    +0.084 C 
BRANCH  21  22
ATOM     22  C   UNL     1       3.730  -0.279  22.599  0.00  0.00    +0.003 C 
ATOM     24  C   UNL     1       4.356   1.021  23.121  0.00  0.00    +0.005 C 
ATOM     25  C   UNL     1       3.862  -1.404  23.635  0.00  0.00    +0.005 C 
ATOM     26  C   UNL     1       5.805   0.815  23.554  0.00  0.00    +0.000 C 
ATOM     27  C   UNL     1       5.313  -1.606  24.067  0.00  0.00    +0.000 C 
ATOM     28  C   UNL     1       5.933  -0.309  24.577  0.00  0.00    +0.000 C 
ENDBRANCH  21  22
ENDBRANCH   4  21
ENDBRANCH  10   4
BRANCH   7  15
ATOM     15  C   UNL     1      -0.955  -0.636  25.153  0.00  0.00    +0.018 C 
BRANCH  15  19
ATOM     19  C   UNL     1      -1.960  -0.518  26.281  0.00  0.00    +0.096 C 
BRANCH  19  23
ATOM      2  O   UNL     1      -3.717  -2.046  25.619  0.00  0.00    -0.276 OA
ATOM      5  N   UNL     1      -4.153   0.234  25.647  0.00  0.00    -0.314 N 
ATOM     23  C   UNL     1      -3.357  -0.889  25.816  0.00  0.00    +0.213 C 
ATOM     37  H   UNL     1      -3.771   1.154  25.842  0.00  0.00    +0.149 HD
BRANCH   5  29
ATOM     29  C   UNL     1      -5.526   0.146  25.209  0.00  0.00    +0.119 C 
BRANCH  29  30
ATOM     30  C   UNL     1      -6.375   1.243  25.834  0.00  0.00    +0.103 C 
BRANCH  30   6
ATOM      3  O   UNL     1      -4.176   4.613  24.646  0.00  0.00    -0.377 OA
ATOM      6  N   UNL     1      -6.028   2.542  25.263  0.00  0.00    -0.297 NA
ATOM     31  C   UNL     1      -5.034   2.391  24.190  0.00  0.00    +0.112 C 
ATOM     32  C   UNL     1      -5.515   3.448  26.299  0.00  0.00    +0.112 C 
ATOM     33  C   UNL     1      -4.676   3.759  23.618  0.00  0.00    +0.175 C 
ATOM     34  C   UNL     1      -5.148   4.792  25.676  0.00  0.00    +0.175 C 
ENDBRANCH  30   6
ENDBRANCH  29  30
ENDBRANCH   5  29
ENDBRANCH  19  23
ENDBRANCH  15  19
ENDBRANCH   7  15
TORSDOF 10
ENDMDL
MODEL 4
REMARK VINA RESULT:       0.5      1.756      3.231
REMARK  Name = 25339530
REMARK  13 active torsions:
REMARK  status: ('A' for Active; 'I' for Inactive)
REMARK    1  A    between atoms: O_1  and  C_14
REMARK    2  A    between atoms: N_4  and  C_10
REMARK    3  A    between atoms: N_4  and  C_21
REMARK    4  A    between atoms: N_5  and  C_29
REMARK    5  A    between atoms: N_6  and  C_30
REMARK    6  A    between atoms: C_7  and  C_15
REMARK    7  A    between atoms: C_9  and  C_17
REMARK    8  A    between atoms: C_9  and  C_18
REMARK    9  A    between atoms: C_14  and  C_20
REMARK   10  A    between atoms: C_15  and  C_19
REMARK   11  A    between atoms: C_19  and  C_23
REMARK   12  A    between atoms: C_21  and  C_22
REMARK   13  A    between atoms: C_29  and  C_30
REMARK                            x       y       z     vdW  Elec       q    Type
REMARK                         _______ _______ _______ _____ _____    ______ ____
ROOT
ATOM      7  C   UNL     1      -2.373   2.293  24.714  0.00  0.00    -0.010 C 
ATOM      8  C   UNL     1      -3.013   3.422  25.590  0.00  0.00    +0.005 C 
ATOM      9  C   UNL     1      -4.571   3.170  25.514  0.00  0.00    -0.030 C 
ATOM     10  C   UNL     1      -3.405   2.215  23.563  0.00  0.00    +0.061 C 
ATOM     11  C   UNL     1      -4.764   2.247  24.279  0.00  0.00    +0.026 C 
ATOM     12  C   UNL     1      -0.930   2.594  24.247  0.00  0.00    +0.011 C 
ATOM     13  C   UNL     1      -2.618   4.846  25.125  0.00  0.00    +0.039 C 
ATOM     14  C   UNL     1      -1.121   5.029  24.867  0.00  0.00    +0.064 C 
ATOM     16  C   UNL     1      -0.672   4.028  23.802  0.00  0.00    +0.035 C 
ATOM     17  C   UNL     1      -5.067   2.478  26.801  0.00  0.00    +0.011 C 
ATOM     18  C   UNL     1      -5.440   4.433  25.350  0.00  0.00    +0.011 C 
ATOM     20  C   UNL     1      -0.826   6.461  24.418  0.00  0.00    +0.041 C 
ENDROOT
BRANCH  14   1
ATOM      1  O   UNL     1      -0.417   4.797  26.087  0.00  0.00    -0.389 OA
ATOM     36  H   UNL     1       0.365   5.374  26.098  0.00  0.00    +0.210 HD
ENDBRANCH  14   1
BRANCH  10   4
ATOM      4  N   UNL     1      -3.283   1.057  22.689  0.00  0.00    -0.312 NA
ATOM     35  H   UNL     1      -3.463   1.327  21.723  0.00  0.00    +0.122 HD
BRANCH   4  21
ATOM     21  C   UNL     1      -4.229   0.016  23.069  0.00  0.00    +0.084 C 
BRANCH  21  22
ATOM     22  C   UNL     1      -3.538  -1.094  23.860  0.00  0.00    +0.003 C 
ATOM     24  C   UNL     1      -3.934  -1.032  25.342  0.00  0.00    +0.005 C 
ATOM     25  C   UNL     1      -3.867  -2.469  23.263  0.00  0.00    +0.005 C 
ATOM     26  C   UNL     1      -3.298  -2.165  26.143  0.00  0.00    +0.000 C 
ATOM     27  C   UNL     1      -3.231  -3.600  24.068  0.00  0.00    +0.000 C 
ATOM     28  C   UNL     1      -3.621  -3.530  25.542  0.00  0.00    +0.000 C 
ENDBRANCH  21  22
ENDBRANCH   4  21
ENDBRANCH  10   4
BRANCH   7  15
ATOM     15  C   UNL     1      -2.287   0.949  25.487  0.00  0.00    +0.018 C 
BRANCH  15  19
ATOM     19  C   UNL     1      -0.850   0.644  25.855  0.00  0.00    +0.096 C 
BRANCH  19  23
ATOM      2  O   UNL     1      -0.367  -1.626  25.164  0.00  0.00    -0.276 OA
ATOM      5  N   UNL     1       0.397   0.139  23.863  0.00  0.00    -0.314 N 
ATOM     23  C   UNL     1      -0.262  -0.422  24.947  0.00  0.00    +0.213 C 
ATOM     37  H   UNL     1       0.427   1.148  23.760  0.00  0.00    +0.149 HD
BRANCH   5  29
ATOM     29  C   UNL     1       1.043  -0.667  22.853  0.00  0.00    +0.119 C 
BRANCH  29  30
ATOM     30  C   UNL     1       2.075   0.142  22.080  0.00  0.00    +0.103 C 
BRANCH  30   6
ATOM      3  O   UNL     1       5.461  -0.476  24.482  0.00  0.00    -0.377 OA
ATOM      6  N   UNL     1       3.425  -0.217  22.510  0.00  0.00    -0.297 NA
ATOM     31  C   UNL     1       3.385  -1.283  23.521  0.00  0.00    +0.112 C 
ATOM     32  C   UNL     1       4.132   0.955  23.043  0.00  0.00    +0.112 C 
ATOM     33  C   UNL     1       4.803  -1.632  23.963  0.00  0.00    +0.175 C 
ATOM     34  C   UNL     1       5.533   0.554  23.496  0.00  0.00    +0.175 C 
ENDBRANCH  30   6
ENDBRANCH  29  30
ENDBRANCH   5  29
ENDBRANCH  19  23
ENDBRANCH  15  19
ENDBRANCH   7  15
TORSDOF 10
ENDMDL
MODEL 5
REMARK VINA RESULT:       0.7      1.690      4.513
REMARK  Name = 25339530
REMARK  13 active torsions:
REMARK  status: ('A' for Active; 'I' for Inactive)
REMARK    1  A    between atoms: O_1  and  C_14
REMARK    2  A    between atoms: N_4  and  C_10
REMARK    3  A    between atoms: N_4  and  C_21
REMARK    4  A    between atoms: N_5  and  C_29
REMARK    5  A    between atoms: N_6  and  C_30
REMARK    6  A    between atoms: C_7  and  C_15
REMARK    7  A    between atoms: C_9  and  C_17
REMARK    8  A    between atoms: C_9  and  C_18
REMARK    9  A    between atoms: C_14  and  C_20
REMARK   10  A    between atoms: C_15  and  C_19
REMARK   11  A    between atoms: C_19  and  C_23
REMARK   12  A    between atoms: C_21  and  C_22
REMARK   13  A    between atoms: C_29  and  C_30
REMARK                            x       y       z     vdW  Elec       q    Type
REMARK                         _______ _______ _______ _____ _____    ______ ____
ROOT
ATOM      7  C   UNL     1      -3.075   0.469  25.207  0.00  0.00    -0.010 C 
ATOM      8  C   UNL     1      -2.423   0.088  23.835  0.00  0.00    +0.005 C 
ATOM      9  C   UNL     1      -2.792   1.276  22.860  0.00  0.00    -0.030 C 
ATOM     10  C   UNL     1      -4.401   1.101  24.720  0.00  0.00    +0.061 C 
ATOM     11  C   UNL     1      -3.975   2.006  23.554  0.00  0.00    +0.026 C 
ATOM     12  C   UNL     1      -3.264  -0.726  26.172  0.00  0.00    +0.011 C 
ATOM     13  C   UNL     1      -2.896  -1.287  23.301  0.00  0.00    +0.039 C 
ATOM     14  C   UNL     1      -2.860  -2.409  24.340  0.00  0.00    +0.064 C 
ATOM     16  C   UNL     1      -3.744  -2.018  25.526  0.00  0.00    +0.035 C 
ATOM     17  C   UNL     1      -1.586   2.224  22.687  0.00  0.00    +0.011 C 
ATOM     18  C   UNL     1      -3.212   0.860  21.436  0.00  0.00    +0.011 C 
ATOM     20  C   UNL     1      -3.337  -3.726  23.724  0.00  0.00    +0.041 C 
ENDROOT
BRANCH  14   1
ATOM      1  O   UNL     1      -1.511  -2.589  24.772  0.00  0.00    -0.389 OA
ATOM     36  H   UNL     1      -1.068  -3.177  24.138  0.00  0.00    +0.210 HD
ENDBRANCH  14   1
BRANCH  10   4
ATOM      4  N   UNL     1      -5.152   1.836  25.728  0.00  0.00    -0.312 NA
ATOM     35  H   UNL     1      -5.958   1.290  26.030  0.00  0.00    +0.122 HD
BRANCH   4  21
ATOM     21  C   UNL     1      -5.620   3.111  25.200  0.00  0.00    +0.084 C 
BRANCH  21  22
ATOM     22  C   UNL     1      -4.559   4.198  25.364  0.00  0.00    +0.003 C 
ATOM     24  C   UNL     1      -3.542   3.805  26.443  0.00  0.00    +0.005 C 
ATOM     25  C   UNL     1      -3.858   4.476  24.027  0.00  0.00    +0.005 C 
ATOM     26  C   UNL     1      -2.441   4.851  26.588  0.00  0.00    +0.000 C 
ATOM     27  C   UNL     1      -2.756   5.523  24.176  0.00  0.00    +0.000 C 
ATOM     28  C   UNL     1      -1.752   5.132  25.255  0.00  0.00    +0.000 C 
ENDBRANCH  21  22
ENDBRANCH   4  21
ENDBRANCH  10   4
BRANCH   7  15
ATOM     15  C   UNL     1      -2.211   1.498  25.984  0.00  0.00    +0.018 C 
BRANCH  15  19
ATOM     19  C   UNL     1      -0.817   0.951  26.213  0.00  0.00    +0.096 C 
BRANCH  19  23
ATOM      2  O   UNL     1       0.562   2.817  25.522  0.00  0.00    -0.276 OA
ATOM      5  N   UNL     1       0.663   0.833  24.322  0.00  0.00    -0.314 N 
ATOM     23  C   UNL     1       0.204   1.657  25.338  0.00  0.00    +0.213 C 
ATOM     37  H   UNL     1       0.315  -0.119  24.251  0.00  0.00    +0.149 HD
BRANCH   5  29
ATOM     29  C   UNL     1       1.640   1.273  23.354  0.00  0.00    +0.119 C 
BRANCH  29  30
ATOM     30  C   UNL     1       2.033   0.143  22.414  0.00  0.00    +0.103 C 
BRANCH  30   6
ATOM      3  O   UNL     1       5.663  -0.626  24.375  0.00  0.00    -0.377 OA
ATOM      6  N   UNL     1       3.410  -0.275  22.672  0.00  0.00    -0.297 NA
ATOM     31  C   UNL     1       3.451  -1.340  23.684  0.00  0.00    +0.112 C 
ATOM     32  C   UNL     1       4.228   0.864  23.109  0.00  0.00    +0.112 C 
ATOM     33  C   UNL     1       4.896  -1.751  23.947  0.00  0.00    +0.175 C 
ATOM     34  C   UNL     1       5.656   0.401  23.384  0.00  0.00    +0.175 C 
ENDBRANCH  30   6
ENDBRANCH  29  30
ENDBRANCH   5  29
ENDBRANCH  19  23
ENDBRANCH  15  19
ENDBRANCH   7  15
TORSDOF 10
ENDMDL
MODEL 6
REMARK VINA RESULT:       0.9      2.004      6.900
REMARK  Name = 25339530
REMARK  13 active torsions:
REMARK  status: ('A' for Active; 'I' for Inactive)
REMARK    1  A    between atoms: O_1  and  C_14
REMARK    2  A    between atoms: N_4  and  C_10
REMARK    3  A    between atoms: N_4  and  C_21
REMARK    4  A    between atoms: N_5  and  C_29
REMARK    5  A    between atoms: N_6  and  C_30
REMARK    6  A    between atoms: C_7  and  C_15
REMARK    7  A    between atoms: C_9  and  C_17
REMARK    8  A    between atoms: C_9  and  C_18
REMARK    9  A    between atoms: C_14  and  C_20
REMARK   10  A    between atoms: C_15  and  C_19
REMARK   11  A    between atoms: C_19  and  C_23
REMARK   12  A    between atoms: C_21  and  C_22
REMARK   13  A    between atoms: C_29  and  C_30
REMARK                            x       y       z     vdW  Elec       q    Type
REMARK                         _______ _______ _______ _____ _____    ______ ____
ROOT
ATOM      7  C   UNL     1      -1.256   0.065  24.602  0.00  0.00    -0.010 C 
ATOM      8  C   UNL     1      -1.650  -1.249  25.356  0.00  0.00    +0.005 C 
ATOM      9  C   UNL     1      -0.297  -2.047  25.530  0.00  0.00    -0.030 C 
ATOM     10  C   UNL     1      -0.188  -0.484  23.626  0.00  0.00    +0.061 C 
ATOM     11  C   UNL     1       0.675  -1.407  24.500  0.00  0.00    +0.026 C 
ATOM     12  C   UNL     1      -2.440   0.775  23.905  0.00  0.00    +0.011 C 
ATOM     13  C   UNL     1      -2.734  -2.071  24.615  0.00  0.00    +0.039 C 
ATOM     14  C   UNL     1      -3.929  -1.245  24.135  0.00  0.00    +0.064 C 
ATOM     16  C   UNL     1      -3.430  -0.143  23.200  0.00  0.00    +0.035 C 
ATOM     17  C   UNL     1       0.241  -1.887  26.968  0.00  0.00    +0.011 C 
ATOM     18  C   UNL     1      -0.385  -3.565  25.276  0.00  0.00    +0.011 C 
ATOM     20  C   UNL     1      -4.946  -2.137  23.422  0.00  0.00    +0.041 C 
ENDROOT
BRANCH  14   1
ATOM      1  O   UNL     1      -4.572  -0.669  25.273  0.00  0.00    -0.389 OA
ATOM     36  H   UNL     1      -4.111  -0.982  26.070  0.00  0.00    +0.210 HD
ENDBRANCH  14   1
BRANCH  10   4
ATOM      4  N   UNL     1       0.617   0.522  22.946  0.00  0.00    -0.312 NA
ATOM     35  H   UNL     1       0.055   1.004  22.245  0.00  0.00    +0.122 HD
BRANCH   4  21
ATOM     21  C   UNL     1       1.765  -0.088  22.289  0.00  0.00    +0.084 C 
BRANCH  21  22
ATOM     22  C   UNL     1       3.009  -0.014  23.174  0.00  0.00    +0.003 C 
ATOM     24  C   UNL     1       3.683  -1.388  23.278  0.00  0.00    +0.005 C 
ATOM     25  C   UNL     1       3.991   1.038  22.639  0.00  0.00    +0.005 C 
ATOM     26  C   UNL     1       4.959  -1.328  24.113  0.00  0.00    +0.000 C 
ATOM     27  C   UNL     1       5.267   1.094  23.476  0.00  0.00    +0.000 C 
ATOM     28  C   UNL     1       5.929  -0.277  23.584  0.00  0.00    +0.000 C 
ENDBRANCH  21  22
ENDBRANCH   4  21
ENDBRANCH  10   4
BRANCH   7  15
ATOM     15  C   UNL     1      -0.650   1.119  25.567  0.00  0.00    +0.018 C 
BRANCH  15  19
ATOM     19  C   UNL     1       0.070   2.199  24.785  0.00  0.00    +0.096 C 
BRANCH  19  23
ATOM      2  O   UNL     1      -0.401   4.477  24.115  0.00  0.00    -0.276 OA
ATOM      5  N   UNL     1      -1.807   3.433  25.639  0.00  0.00    -0.314 N 
ATOM     23  C   UNL     1      -0.714   3.499  24.788  0.00  0.00    +0.213 C 
ATOM     37  H   UNL     1      -1.994   2.577  26.152  0.00  0.00    +0.149 HD
BRANCH   5  29
ATOM     29  C   UNL     1      -2.711   4.545  25.819  0.00  0.00    +0.119 C 
BRANCH  29  30
ATOM     30  C   UNL     1      -3.744   4.602  24.703  0.00  0.00    +0.103 C 
BRANCH  30   6
ATOM      3  O   UNL     1      -6.189   1.408  25.897  0.00  0.00    -0.377 OA
ATOM      6  N   UNL     1      -4.922   3.815  25.062  0.00  0.00    -0.297 NA
ATOM     31  C   UNL     1      -4.828   3.338  26.449  0.00  0.00    +0.112 C 
ATOM     32  C   UNL     1      -5.087   2.677  24.149  0.00  0.00    +0.112 C 
ATOM     33  C   UNL     1      -6.061   2.509  26.797  0.00  0.00    +0.175 C 
ATOM     34  C   UNL     1      -6.314   1.864  24.550  0.00  0.00    +0.175 C 
ENDBRANCH  30   6
ENDBRANCH  29  30
ENDBRANCH   5  29
ENDBRANCH  19  23
ENDBRANCH  15  19
ENDBRANCH   7  15
TORSDOF 10
ENDMDL
MODEL 7
REMARK VINA RESULT:       1.4      2.471      6.784
REMARK  Name = 25339530
REMARK  13 active torsions:
REMARK  status: ('A' for Active; 'I' for Inactive)
REMARK    1  A    between atoms: O_1  and  C_14
REMARK    2  A    between atoms: N_4  and  C_10
REMARK    3  A    between atoms: N_4  and  C_21
REMARK    4  A    between atoms: N_5  and  C_29
REMARK    5  A    between atoms: N_6  and  C_30
REMARK    6  A    between atoms: C_7  and  C_15
REMARK    7  A    between atoms: C_9  and  C_17
REMARK    8  A    between atoms: C_9  and  C_18
REMARK    9  A    between atoms: C_14  and  C_20
REMARK   10  A    between atoms: C_15  and  C_19
REMARK   11  A    between atoms: C_19  and  C_23
REMARK   12  A    between atoms: C_21  and  C_22
REMARK   13  A    between atoms: C_29  and  C_30
REMARK                            x       y       z     vdW  Elec       q    Type
REMARK                         _______ _______ _______ _____ _____    ______ ____
ROOT
ATOM      7  C   UNL     1      -1.144   0.998  23.636  0.00  0.00    -0.010 C 
ATOM      8  C   UNL     1      -1.564   1.483  25.064  0.00  0.00    +0.005 C 
ATOM      9  C   UNL     1      -0.397   2.441  25.534  0.00  0.00    -0.030 C 
ATOM     10  C   UNL     1       0.382   0.833  23.836  0.00  0.00    +0.061 C 
ATOM     11  C   UNL     1       0.796   2.099  24.600  0.00  0.00    +0.026 C 
ATOM     12  C   UNL     1      -1.861  -0.290  23.168  0.00  0.00    +0.011 C 
ATOM     13  C   UNL     1      -1.808   0.315  26.053  0.00  0.00    +0.039 C 
ATOM     14  C   UNL     1      -2.684  -0.807  25.494  0.00  0.00    +0.064 C 
ATOM     16  C   UNL     1      -2.028  -1.369  24.231  0.00  0.00    +0.035 C 
ATOM     17  C   UNL     1      -0.817   3.917  25.373  0.00  0.00    +0.011 C 
ATOM     18  C   UNL     1       0.041   2.282  27.004  0.00  0.00    +0.011 C 
ATOM     20  C   UNL     1      -2.874  -1.910  26.537  0.00  0.00    +0.041 C 
ENDROOT
BRANCH  14   1
ATOM      1  O   UNL     1      -3.970  -0.270  25.182  0.00  0.00    -0.389 OA
ATOM     36  H   UNL     1      -4.240   0.309  25.914  0.00  0.00    +0.210 HD
ENDBRANCH  14   1
BRANCH  10   4
ATOM      4  N   UNL     1       1.159   0.660  22.616  0.00  0.00    -0.312 NA
ATOM     35  H   UNL     1       0.559   0.777  21.800  0.00  0.00    +0.122 HD
BRANCH   4  21
ATOM     21  C   UNL     1       1.764  -0.664  22.567  0.00  0.00    +0.084 C 
BRANCH  21  22
ATOM     22  C   UNL     1       3.283  -0.582  22.710  0.00  0.00    +0.003 C 
ATOM     24  C   UNL     1       3.727   0.867  22.951  0.00  0.00    +0.005 C 
ATOM     25  C   UNL     1       3.771  -1.498  23.841  0.00  0.00    +0.005 C 
ATOM     26  C   UNL     1       5.237   0.968  23.150  0.00  0.00    +0.000 C 
ATOM     27  C   UNL     1       5.281  -1.394  24.039  0.00  0.00    +0.000 C 
ATOM     28  C   UNL     1       5.719   0.050  24.269  0.00  0.00    +0.000 C 
ENDBRANCH  21  22
ENDBRANCH   4  21
ENDBRANCH  10   4
BRANCH   7  15
ATOM     15  C   UNL     1      -1.459   2.065  22.554  0.00  0.00    +0.018 C 
BRANCH  15  19
ATOM     19  C   UNL     1      -2.891   1.927  22.079  0.00  0.00    +0.096 C 
BRANCH  19  23
ATOM      2  O   UNL     1      -4.333   3.773  21.467  0.00  0.00    -0.276 OA
ATOM      5  N   UNL     1      -3.571   3.611  23.654  0.00  0.00    -0.314 N 
ATOM     23  C   UNL     1      -3.683   3.197  22.335  0.00  0.00    +0.213 C 
ATOM     37  H   UNL     1      -3.016   3.066  24.306  0.00  0.00    +0.149 HD
BRANCH   5  29
ATOM     29  C   UNL     1      -4.232   4.796  24.148  0.00  0.00    +0.119 C 
BRANCH  29  30
ATOM     30  C   UNL     1      -4.640   4.632  25.605  0.00  0.00    +0.103 C 
BRANCH  30   6
ATOM      3  O   UNL     1      -6.423   0.845  25.907  0.00  0.00    -0.377 OA
ATOM      6  N   UNL     1      -5.643   3.576  25.734  0.00  0.00    -0.297 NA
ATOM     31  C   UNL     1      -5.415   2.787  26.953  0.00  0.00    +0.112 C 
ATOM     32  C   UNL     1      -5.631   2.698  24.557  0.00  0.00    +0.112 C 
ATOM     33  C   UNL     1      -6.464   1.685  27.061  0.00  0.00    +0.175 C 
ATOM     34  C   UNL     1      -6.676   1.598  24.721  0.00  0.00    +0.175 C 
ENDBRANCH  30   6
ENDBRANCH  29  30
ENDBRANCH   5  29
ENDBRANCH  19  23
ENDBRANCH  15  19
ENDBRANCH   7  15
TORSDOF 10
ENDMDL
