MODEL 1
REMARK VINA RESULT:       0.2      0.000      0.000
REMARK  Name = 26743700
REMARK  7 active torsions:
REMARK  status: ('A' for Active; 'I' for Inactive)
REMARK    1  A    between atoms: O_4  and  C_16
REMARK    2  A    between atoms: O_7  and  C_30
REMARK    3  A    between atoms: O_7  and  C_31
REMARK    4  A    between atoms: N_8  and  C_12
REMARK    5  A    between atoms: C_13  and  C_21
REMARK    6  A    between atoms: C_22  and  C_24
REMARK    7  A    between atoms: C_23  and  C_25
REMARK                            x       y       z     vdW  Elec       q    Type
REMARK                         _______ _______ _______ _____ _____    ______ ____
ROOT
ATOM      8  N   UNL     1      -4.374   1.762  25.564  0.00  0.00    -0.286 NA
ATOM     13  C   UNL     1      -3.953   2.412  24.306  0.00  0.00    +0.149 C 
ATOM     14  C   UNL     1      -5.653   2.364  25.935  0.00  0.00    +0.116 C 
ATOM     15  C   UNL     1      -4.601   3.809  24.350  0.00  0.00    +0.061 C 
ATOM     16  C   UNL     1      -5.402   3.832  25.647  0.00  0.00    +0.130 C 
ENDROOT
BRANCH   8  12
ATOM      6  O   UNL     1      -1.450  -3.638  25.248  0.00  0.00    -0.276 OA
ATOM      9  N   UNL     1      -3.255  -2.243  24.807  0.00  0.00    -0.302 N 
ATOM     12  C   UNL     1      -4.461   0.307  25.458  0.00  0.00    +0.060 C 
ATOM     17  C   UNL     1      -4.242  -0.129  24.003  0.00  0.00    +0.038 C 
ATOM     18  C   UNL     1      -3.424  -0.350  26.378  0.00  0.00    +0.038 C 
ATOM     19  C   UNL     1      -4.234  -1.653  23.884  0.00  0.00    +0.109 C 
ATOM     20  C   UNL     1      -3.433  -1.869  26.211  0.00  0.00    +0.109 C 
ATOM     22  C   UNL     1      -2.238  -3.128  24.447  0.00  0.00    +0.212 C 
ATOM     24  C   UNL     1      -2.119  -3.460  22.982  0.00  0.00    +0.109 C 
ENDBRANCH   8  12
BRANCH  13  21
ATOM      5  O   UNL     1      -1.853   3.653  24.457  0.00  0.00    -0.336 OA
ATOM     10  N   UNL     1      -1.616   1.535  23.770  0.00  0.00    -0.190 NA
ATOM     11  N   UNL     1      -0.481   3.465  24.244  0.00  0.00    -0.056 NA
ATOM     21  C   UNL     1      -2.448   2.470  24.155  0.00  0.00    +0.245 A 
ATOM     23  C   UNL     1      -0.422   2.192  23.840  0.00  0.00    +0.202 A 
BRANCH  23  25
ATOM     25  C   UNL     1       0.813   1.547  23.501  0.00  0.00    +0.023 A 
ATOM     26  C   UNL     1       0.849   0.168  23.299  0.00  0.00    +0.015 A 
ATOM     27  C   UNL     1       1.981   2.300  23.375  0.00  0.00    +0.015 A 
ATOM     28  C   UNL     1       2.051  -0.459  22.972  0.00  0.00    +0.046 A 
ATOM     29  C   UNL     1       3.184   1.674  23.047  0.00  0.00    +0.046 A 
ATOM     30  C   UNL     1       3.218   0.294  22.845  0.00  0.00    +0.130 A 
BRANCH  30   7
ATOM      7  O   UNL     1       4.392  -0.316  22.525  0.00  0.00    -0.406 OA
BRANCH   7  31
ATOM      1  F   UNL     1       6.628  -0.372  22.824  0.00  0.00    -0.133 F 
ATOM      2  F   UNL     1       5.440   0.864  24.179  0.00  0.00    -0.133 F 
ATOM      3  F   UNL     1       5.367  -1.339  24.324  0.00  0.00    -0.133 F 
ATOM     31  C   UNL     1       5.448  -0.290  23.479  0.00  0.00    +0.575 C 
ENDBRANCH   7  31
ENDBRANCH  30   7
ENDBRANCH  23  25
ENDBRANCH  13  21
BRANCH  16   4
ATOM      4  O   UNL     1      -6.610   4.548  25.478  0.00  0.00    -0.390 OA
ATOM     32  H   UNL     1      -6.896   4.848  26.358  0.00  0.00    +0.210 HD
ENDBRANCH  16   4
TORSDOF 6
ENDMDL
MODEL 2
REMARK VINA RESULT:       3.7      2.109      2.917
REMARK  Name = 26743700
REMARK  7 active torsions:
REMARK  status: ('A' for Active; 'I' for Inactive)
REMARK    1  A    between atoms: O_4  and  C_16
REMARK    2  A    between atoms: O_7  and  C_30
REMARK    3  A    between atoms: O_7  and  C_31
REMARK    4  A    between atoms: N_8  and  C_12
REMARK    5  A    between atoms: C_13  and  C_21
REMARK    6  A    between atoms: C_22  and  C_24
REMARK    7  A    between atoms: C_23  and  C_25
REMARK                            x       y       z     vdW  Elec       q    Type
REMARK                         _______ _______ _______ _____ _____    ______ ____
ROOT
ATOM      8  N   UNL     1      -1.607   2.358  25.424  0.00  0.00    -0.286 NA
ATOM     13  C   UNL     1      -1.216   2.475  24.003  0.00  0.00    +0.149 C 
ATOM     14  C   UNL     1      -2.109   3.671  25.824  0.00  0.00    +0.116 C 
ATOM     15  C   UNL     1      -0.845   3.958  23.818  0.00  0.00    +0.061 C 
ATOM     16  C   UNL     1      -1.103   4.602  25.175  0.00  0.00    +0.130 C 
ENDROOT
BRANCH   8  12
ATOM      6  O   UNL     1      -3.216  -3.530  24.684  0.00  0.00    -0.276 OA
ATOM      9  N   UNL     1      -3.712  -1.282  24.994  0.00  0.00    -0.302 N 
ATOM     12  C   UNL     1      -2.582   1.297  25.667  0.00  0.00    +0.060 C 
ATOM     17  C   UNL     1      -3.474   1.109  24.433  0.00  0.00    +0.038 C 
ATOM     18  C   UNL     1      -1.860  -0.011  26.013  0.00  0.00    +0.038 C 
ATOM     19  C   UNL     1      -4.440  -0.060  24.629  0.00  0.00    +0.109 C 
ATOM     20  C   UNL     1      -2.858  -1.157  26.176  0.00  0.00    +0.109 C 
ATOM     22  C   UNL     1      -3.811  -2.507  24.335  0.00  0.00    +0.212 C 
ATOM     24  C   UNL     1      -4.707  -2.553  23.125  0.00  0.00    +0.109 C 
ENDBRANCH   8  12
BRANCH  13  21
ATOM      5  O   UNL     1      -0.398   0.519  22.788  0.00  0.00    -0.336 OA
ATOM     10  N   UNL     1       1.168   1.560  24.004  0.00  0.00    -0.190 NA
ATOM     11  N   UNL     1       0.788  -0.201  22.592  0.00  0.00    -0.056 NA
ATOM     21  C   UNL     1      -0.087   1.538  23.631  0.00  0.00    +0.245 A 
ATOM     23  C   UNL     1       1.665   0.474  23.343  0.00  0.00    +0.202 A 
BRANCH  23  25
ATOM     25  C   UNL     1       3.043   0.092  23.450  0.00  0.00    +0.023 A 
ATOM     26  C   UNL     1       3.381  -1.232  23.724  0.00  0.00    +0.015 A 
ATOM     27  C   UNL     1       4.046   1.047  23.281  0.00  0.00    +0.015 A 
ATOM     28  C   UNL     1       4.721  -1.603  23.831  0.00  0.00    +0.046 A 
ATOM     29  C   UNL     1       5.387   0.677  23.387  0.00  0.00    +0.046 A 
ATOM     30  C   UNL     1       5.724  -0.648  23.662  0.00  0.00    +0.130 A 
BRANCH  30   7
ATOM      7  O   UNL     1       7.033  -1.009  23.765  0.00  0.00    -0.406 OA
BRANCH   7  31
ATOM      1  F   UNL     1       7.158  -0.236  21.649  0.00  0.00    -0.133 F 
ATOM      2  F   UNL     1       8.876   0.080  22.963  0.00  0.00    -0.133 F 
ATOM      3  F   UNL     1       8.412  -1.939  22.196  0.00  0.00    -0.133 F 
ATOM     31  C   UNL     1       7.885  -0.782  22.649  0.00  0.00    +0.575 C 
ENDBRANCH   7  31
ENDBRANCH  30   7
ENDBRANCH  23  25
ENDBRANCH  13  21
BRANCH  16   4
ATOM      4  O   UNL     1      -1.621   5.909  25.020  0.00  0.00    -0.390 OA
ATOM     32  H   UNL     1      -2.279   6.047  25.724  0.00  0.00    +0.210 HD
ENDBRANCH  16   4
TORSDOF 6
ENDMDL
MODEL 3
REMARK VINA RESULT:       4.2      1.671      4.579
REMARK  Name = 26743700
REMARK  7 active torsions:
REMARK  status: ('A' for Active; 'I' for Inactive)
REMARK    1  A    between atoms: O_4  and  C_16
REMARK    2  A    between atoms: O_7  and  C_30
REMARK    3  A    between atoms: O_7  and  C_31
REMARK    4  A    between atoms: N_8  and  C_12
REMARK    5  A    between atoms: C_13  and  C_21
REMARK    6  A    between atoms: C_22  and  C_24
REMARK    7  A    between atoms: C_23  and  C_25
REMARK                            x       y       z     vdW  Elec       q    Type
REMARK                         _______ _______ _______ _____ _____    ______ ____
ROOT
ATOM      8  N   UNL     1      -3.486  -0.605  23.694  0.00  0.00    -0.286 NA
ATOM     13  C   UNL     1      -2.440  -0.870  24.704  0.00  0.00    +0.149 C 
ATOM     14  C   UNL     1      -4.407  -1.738  23.745  0.00  0.00    +0.116 C 
ATOM     15  C   UNL     1      -2.376  -2.405  24.810  0.00  0.00    +0.061 C 
ATOM     16  C   UNL     1      -3.453  -2.912  23.858  0.00  0.00    +0.130 C 
ENDROOT
BRANCH   8  12
ATOM      6  O   UNL     1      -3.070   5.433  24.780  0.00  0.00    -0.276 OA
ATOM      9  N   UNL     1      -4.176   3.392  24.882  0.00  0.00    -0.302 N 
ATOM     12  C   UNL     1      -4.170   0.671  23.895  0.00  0.00    +0.060 C 
ATOM     17  C   UNL     1      -4.275   0.981  25.394  0.00  0.00    +0.038 C 
ATOM     18  C   UNL     1      -3.418   1.791  23.166  0.00  0.00    +0.038 C 
ATOM     19  C   UNL     1      -4.903   2.355  25.626  0.00  0.00    +0.109 C 
ATOM     20  C   UNL     1      -4.063   3.149  23.443  0.00  0.00    +0.109 C 
ATOM     22  C   UNL     1      -3.646   4.559  25.433  0.00  0.00    +0.212 C 
ATOM     24  C   UNL     1      -3.801   4.733  26.922  0.00  0.00    +0.109 C 
ENDBRANCH   8  12
BRANCH  13  21
ATOM      5  O   UNL     1      -1.064   1.105  24.278  0.00  0.00    -0.336 OA
ATOM     10  N   UNL     1       0.033  -0.836  24.065  0.00  0.00    -0.190 NA
ATOM     11  N   UNL     1       0.251   1.437  23.927  0.00  0.00    -0.056 NA
ATOM     21  C   UNL     1      -1.107  -0.252  24.337  0.00  0.00    +0.245 A 
ATOM     23  C   UNL     1       0.835   0.240  23.818  0.00  0.00    +0.202 A 
BRANCH  23  25
ATOM     25  C   UNL     1       2.217   0.084  23.468  0.00  0.00    +0.023 A 
ATOM     26  C   UNL     1       2.884  -1.104  23.768  0.00  0.00    +0.015 A 
ATOM     27  C   UNL     1       2.895   1.122  22.829  0.00  0.00    +0.015 A 
ATOM     28  C   UNL     1       4.228  -1.253  23.429  0.00  0.00    +0.046 A 
ATOM     29  C   UNL     1       4.240   0.973  22.489  0.00  0.00    +0.046 A 
ATOM     30  C   UNL     1       4.906  -0.216  22.790  0.00  0.00    +0.130 A 
BRANCH  30   7
ATOM      7  O   UNL     1       6.219  -0.361  22.458  0.00  0.00    -0.406 OA
BRANCH   7  31
ATOM      1  F   UNL     1       7.045   1.104  23.962  0.00  0.00    -0.133 F 
ATOM      2  F   UNL     1       7.044  -1.017  24.487  0.00  0.00    -0.133 F 
ATOM      3  F   UNL     1       8.445  -0.244  22.965  0.00  0.00    -0.133 F 
ATOM     31  C   UNL     1       7.197  -0.145  23.468  0.00  0.00    +0.575 C 
ENDBRANCH   7  31
ENDBRANCH  30   7
ENDBRANCH  23  25
ENDBRANCH  13  21
BRANCH  16   4
ATOM      4  O   UNL     1      -4.091  -4.058  24.387  0.00  0.00    -0.390 OA
ATOM     32  H   UNL     1      -3.497  -4.441  25.055  0.00  0.00    +0.210 HD
ENDBRANCH  16   4
TORSDOF 6
ENDMDL
