MODEL 1
REMARK VINA RESULT:       1.7      0.000      0.000
REMARK  Name = 75368689
REMARK  5 active torsions:
REMARK  status: ('A' for Active; 'I' for Inactive)
REMARK    1  A    between atoms: N_4  and  C_12
REMARK    2  A    between atoms: N_5  and  C_13
REMARK    3  A    between atoms: C_12  and  C_14
REMARK    4  A    between atoms: C_13  and  C_15
REMARK    5  A    between atoms: C_24  and  C_26
REMARK                            x       y       z     vdW  Elec       q    Type
REMARK                         _______ _______ _______ _____ _____    ______ ____
ROOT
ATOM      2  O   UNL     1      -1.747  -3.337  23.551  0.00  0.00    -0.252 OA
ATOM      3  N   UNL     1      -2.864  -1.620  24.702  0.00  0.00    -0.278 N 
ATOM      4  N   UNL     1      -4.560   0.582  25.131  0.00  0.00    -0.295 NA
ATOM      5  N   UNL     1      -0.683  -1.943  25.127  0.00  0.00    -0.279 N 
ATOM      6  C   UNL     1      -2.565  -0.703  25.783  0.00  0.00    +0.109 C 
ATOM      7  C   UNL     1      -3.127   0.684  25.473  0.00  0.00    +0.109 C 
ATOM      8  C   UNL     1      -1.044  -0.767  25.902  0.00  0.00    +0.133 C 
ATOM      9  C   UNL     1      -4.216  -1.691  24.187  0.00  0.00    +0.125 C 
ATOM     10  C   UNL     1      -4.759  -0.280  23.948  0.00  0.00    +0.104 C 
ATOM     11  C   UNL     1      -1.765  -2.419  24.360  0.00  0.00    +0.305 C 
ENDROOT
BRANCH   4  12
ATOM     12  C   UNL     1      -5.122   1.912  24.892  0.00  0.00    +0.121 C 
BRANCH  12  14
ATOM      1 CL   UNL     1      -3.197   2.423  22.536  0.00  0.00    -0.083 Cl
ATOM     14  C   UNL     1      -4.092   2.993  25.046  0.00  0.00    -0.015 A 
ATOM     16  C   UNL     1      -3.184   3.288  24.029  0.00  0.00    +0.045 A 
ATOM     17  C   UNL     1      -4.057   3.710  26.242  0.00  0.00    +0.006 A 
ATOM     22  C   UNL     1      -2.241   4.300  24.209  0.00  0.00    +0.020 A 
ATOM     23  C   UNL     1      -3.114   4.721  26.421  0.00  0.00    +0.000 A 
ATOM     25  C   UNL     1      -2.206   5.017  25.405  0.00  0.00    +0.001 A 
ENDBRANCH  12  14
ENDBRANCH   4  12
BRANCH   5  13
ATOM     13  C   UNL     1       0.677  -2.433  25.067  0.00  0.00    +0.144 C 
BRANCH  13  15
ATOM     15  C   UNL     1       1.568  -1.522  24.274  0.00  0.00    -0.030 A 
ATOM     18  C   UNL     1       2.940  -1.766  24.215  0.00  0.00    +0.005 A 
ATOM     19  C   UNL     1       1.024  -0.430  23.598  0.00  0.00    +0.005 A 
ATOM     20  C   UNL     1       3.768  -0.918  23.481  0.00  0.00    +0.003 A 
ATOM     21  C   UNL     1       1.853   0.419  22.863  0.00  0.00    +0.003 A 
ATOM     24  C   UNL     1       3.226   0.174  22.805  0.00  0.00    -0.050 A 
ATOM     26  C   UNL     1       4.111   1.082  22.020  0.00  0.00    +0.044 C 
ENDBRANCH  13  15
ENDBRANCH   5  13
TORSDOF 4
ENDMDL
MODEL 2
REMARK VINA RESULT:       1.9      1.907      3.247
REMARK  Name = 75368689
REMARK  5 active torsions:
REMARK  status: ('A' for Active; 'I' for Inactive)
REMARK    1  A    between atoms: N_4  and  C_12
REMARK    2  A    between atoms: N_5  and  C_13
REMARK    3  A    between atoms: C_12  and  C_14
REMARK    4  A    between atoms: C_13  and  C_15
REMARK    5  A    between atoms: C_24  and  C_26
REMARK                            x       y       z     vdW  Elec       q    Type
REMARK                         _______ _______ _______ _____ _____    ______ ____
ROOT
ATOM      2  O   UNL     1       0.008  -1.612  24.193  0.00  0.00    -0.252 OA
ATOM      3  N   UNL     1      -0.530   0.535  24.980  0.00  0.00    -0.278 N 
ATOM      4  N   UNL     1      -2.112   2.701  25.827  0.00  0.00    -0.295 NA
ATOM      5  N   UNL     1       1.031   0.350  23.377  0.00  0.00    -0.279 N 
ATOM      6  C   UNL     1      -0.028   1.882  24.805  0.00  0.00    +0.109 C 
ATOM      7  C   UNL     1      -1.188   2.870  24.687  0.00  0.00    +0.109 C 
ATOM      8  C   UNL     1       0.857   1.780  23.564  0.00  0.00    +0.133 C 
ATOM      9  C   UNL     1      -1.553   0.284  25.975  0.00  0.00    +0.125 C 
ATOM     10  C   UNL     1      -2.663   1.331  25.859  0.00  0.00    +0.104 C 
ATOM     11  C   UNL     1       0.153  -0.397  24.188  0.00  0.00    +0.305 C 
ENDROOT
BRANCH   4  12
ATOM     12  C   UNL     1      -3.194   3.683  25.756  0.00  0.00    +0.121 C 
BRANCH  12  14
ATOM      1 CL   UNL     1      -3.861   2.849  22.861  0.00  0.00    -0.083 Cl
ATOM     14  C   UNL     1      -4.523   3.037  25.498  0.00  0.00    -0.015 A 
ATOM     16  C   UNL     1      -4.904   2.631  24.218  0.00  0.00    +0.045 A 
ATOM     17  C   UNL     1      -5.388   2.847  26.576  0.00  0.00    +0.006 A 
ATOM     22  C   UNL     1      -6.148   2.034  24.018  0.00  0.00    +0.020 A 
ATOM     23  C   UNL     1      -6.632   2.251  26.374  0.00  0.00    +0.000 A 
ATOM     25  C   UNL     1      -7.012   1.844  25.096  0.00  0.00    +0.001 A 
ENDBRANCH  12  14
ENDBRANCH   4  12
BRANCH   5  13
ATOM     13  C   UNL     1       1.905  -0.189  22.358  0.00  0.00    +0.144 C 
BRANCH  13  15
ATOM     15  C   UNL     1       3.334  -0.246  22.817  0.00  0.00    -0.030 A 
ATOM     18  C   UNL     1       3.810  -1.380  23.475  0.00  0.00    +0.005 A 
ATOM     19  C   UNL     1       4.184   0.836  22.587  0.00  0.00    +0.005 A 
ATOM     20  C   UNL     1       5.136  -1.432  23.903  0.00  0.00    +0.003 A 
ATOM     21  C   UNL     1       5.511   0.784  23.017  0.00  0.00    +0.003 A 
ATOM     24  C   UNL     1       5.986  -0.351  23.675  0.00  0.00    -0.050 A 
ATOM     26  C   UNL     1       7.404  -0.406  24.134  0.00  0.00    +0.044 C 
ENDBRANCH  13  15
ENDBRANCH   5  13
TORSDOF 4
ENDMDL
MODEL 3
REMARK VINA RESULT:       2.0      1.902      2.845
REMARK  Name = 75368689
REMARK  5 active torsions:
REMARK  status: ('A' for Active; 'I' for Inactive)
REMARK    1  A    between atoms: N_4  and  C_12
REMARK    2  A    between atoms: N_5  and  C_13
REMARK    3  A    between atoms: C_12  and  C_14
REMARK    4  A    between atoms: C_13  and  C_15
REMARK    5  A    between atoms: C_24  and  C_26
REMARK                            x       y       z     vdW  Elec       q    Type
REMARK                         _______ _______ _______ _____ _____    ______ ____
ROOT
ATOM      2  O   UNL     1       0.128  -2.501  22.549  0.00  0.00    -0.252 OA
ATOM      3  N   UNL     1      -1.196  -1.276  24.054  0.00  0.00    -0.278 N 
ATOM      4  N   UNL     1      -3.504  -0.348  25.365  0.00  0.00    -0.295 NA
ATOM      5  N   UNL     1       0.449  -0.202  22.966  0.00  0.00    -0.279 N 
ATOM      6  C   UNL     1      -1.193   0.056  24.623  0.00  0.00    +0.109 C 
ATOM      7  C   UNL     1      -2.615   0.612  24.681  0.00  0.00    +0.109 C 
ATOM      8  C   UNL     1      -0.236   0.833  23.721  0.00  0.00    +0.133 C 
ATOM      9  C   UNL     1      -2.137  -2.258  24.553  0.00  0.00    +0.125 C 
ATOM     10  C   UNL     1      -3.534  -1.640  24.650  0.00  0.00    +0.104 C 
ATOM     11  C   UNL     1      -0.167  -1.461  23.120  0.00  0.00    +0.305 C 
ENDROOT
BRANCH   4  12
ATOM     12  C   UNL     1      -4.855   0.202  25.480  0.00  0.00    +0.121 C 
BRANCH  12  14
ATOM      1 CL   UNL     1      -6.727   1.922  27.229  0.00  0.00    -0.083 Cl
ATOM     14  C   UNL     1      -4.882   1.683  25.237  0.00  0.00    -0.015 A 
ATOM     16  C   UNL     1      -5.700   2.532  25.984  0.00  0.00    +0.045 A 
ATOM     17  C   UNL     1      -4.062   2.205  24.237  0.00  0.00    +0.006 A 
ATOM     22  C   UNL     1      -5.697   3.903  25.729  0.00  0.00    +0.020 A 
ATOM     23  C   UNL     1      -4.060   3.576  23.983  0.00  0.00    +0.000 A 
ATOM     25  C   UNL     1      -4.877   4.425  24.728  0.00  0.00    +0.001 A 
ENDBRANCH  12  14
ENDBRANCH   4  12
BRANCH   5  13
ATOM     13  C   UNL     1       1.534   0.102  22.058  0.00  0.00    +0.144 C 
BRANCH  13  15
ATOM     15  C   UNL     1       2.876  -0.082  22.706  0.00  0.00    -0.030 A 
ATOM     18  C   UNL     1       3.789   0.971  22.731  0.00  0.00    +0.005 A 
ATOM     19  C   UNL     1       3.210  -1.309  23.280  0.00  0.00    +0.005 A 
ATOM     20  C   UNL     1       5.037   0.799  23.330  0.00  0.00    +0.003 A 
ATOM     21  C   UNL     1       4.459  -1.481  23.879  0.00  0.00    +0.003 A 
ATOM     24  C   UNL     1       5.372  -0.427  23.903  0.00  0.00    -0.050 A 
ATOM     26  C   UNL     1       6.706  -0.612  24.543  0.00  0.00    +0.044 C 
ENDBRANCH  13  15
ENDBRANCH   5  13
TORSDOF 4
ENDMDL
MODEL 4
REMARK VINA RESULT:       2.3      2.608      3.829
REMARK  Name = 75368689
REMARK  5 active torsions:
REMARK  status: ('A' for Active; 'I' for Inactive)
REMARK    1  A    between atoms: N_4  and  C_12
REMARK    2  A    between atoms: N_5  and  C_13
REMARK    3  A    between atoms: C_12  and  C_14
REMARK    4  A    between atoms: C_13  and  C_15
REMARK    5  A    between atoms: C_24  and  C_26
REMARK                            x       y       z     vdW  Elec       q    Type
REMARK                         _______ _______ _______ _____ _____    ______ ____
ROOT
ATOM      2  O   UNL     1       1.289   1.473  25.255  0.00  0.00    -0.252 OA
ATOM      3  N   UNL     1      -0.494   2.420  24.053  0.00  0.00    -0.278 N 
ATOM      4  N   UNL     1      -2.954   3.697  23.577  0.00  0.00    -0.295 NA
ATOM      5  N   UNL     1       0.344   0.461  23.346  0.00  0.00    -0.279 N 
ATOM      6  C   UNL     1      -1.199   2.149  22.818  0.00  0.00    +0.109 C 
ATOM      7  C   UNL     1      -2.701   2.360  23.005  0.00  0.00    +0.109 C 
ATOM      8  C   UNL     1      -0.790   0.718  22.474  0.00  0.00    +0.133 C 
ATOM      9  C   UNL     1      -0.778   3.642  24.778  0.00  0.00    +0.125 C 
ATOM     10  C   UNL     1      -2.292   3.843  24.890  0.00  0.00    +0.104 C 
ATOM     11  C   UNL     1       0.485   1.457  24.333  0.00  0.00    +0.305 C 
ENDROOT
BRANCH   4  12
ATOM     12  C   UNL     1      -4.393   3.932  23.704  0.00  0.00    +0.121 C 
BRANCH  12  14
ATOM      1 CL   UNL     1      -6.286   5.084  25.851  0.00  0.00    -0.083 Cl
ATOM     14  C   UNL     1      -5.036   2.974  24.663  0.00  0.00    -0.015 A 
ATOM     16  C   UNL     1      -5.905   3.412  25.663  0.00  0.00    +0.045 A 
ATOM     17  C   UNL     1      -4.747   1.615  24.535  0.00  0.00    +0.006 A 
ATOM     22  C   UNL     1      -6.484   2.490  26.535  0.00  0.00    +0.020 A 
ATOM     23  C   UNL     1      -5.327   0.694  25.408  0.00  0.00    +0.000 A 
ATOM     25  C   UNL     1      -6.195   1.132  26.408  0.00  0.00    +0.001 A 
ENDBRANCH  12  14
ENDBRANCH   4  12
BRANCH   5  13
ATOM     13  C   UNL     1       1.112  -0.763  23.265  0.00  0.00    +0.144 C 
BRANCH  13  15
ATOM     15  C   UNL     1       2.590  -0.501  23.287  0.00  0.00    -0.030 A 
ATOM     18  C   UNL     1       3.454  -1.429  23.869  0.00  0.00    +0.005 A 
ATOM     19  C   UNL     1       3.099   0.672  22.729  0.00  0.00    +0.005 A 
ATOM     20  C   UNL     1       4.827  -1.184  23.892  0.00  0.00    +0.003 A 
ATOM     21  C   UNL     1       4.473   0.917  22.754  0.00  0.00    +0.003 A 
ATOM     24  C   UNL     1       5.336  -0.012  23.336  0.00  0.00    -0.050 A 
ATOM     26  C   UNL     1       6.804   0.250  23.362  0.00  0.00    +0.044 C 
ENDBRANCH  13  15
ENDBRANCH   5  13
TORSDOF 4
ENDMDL
MODEL 5
REMARK VINA RESULT:       2.5      1.390      2.012
REMARK  Name = 75368689
REMARK  5 active torsions:
REMARK  status: ('A' for Active; 'I' for Inactive)
REMARK    1  A    between atoms: N_4  and  C_12
REMARK    2  A    between atoms: N_5  and  C_13
REMARK    3  A    between atoms: C_12  and  C_14
REMARK    4  A    between atoms: C_13  and  C_15
REMARK    5  A    between atoms: C_24  and  C_26
REMARK                            x       y       z     vdW  Elec       q    Type
REMARK                         _______ _______ _______ _____ _____    ______ ____
ROOT
ATOM      2  O   UNL     1      -0.945  -2.765  23.212  0.00  0.00    -0.252 OA
ATOM      3  N   UNL     1      -1.560  -0.908  24.512  0.00  0.00    -0.278 N 
ATOM      4  N   UNL     1      -3.209   1.047  25.683  0.00  0.00    -0.295 NA
ATOM      5  N   UNL     1       0.285  -0.753  23.243  0.00  0.00    -0.279 N 
ATOM      6  C   UNL     1      -0.990   0.378  24.856  0.00  0.00    +0.109 C 
ATOM      7  C   UNL     1      -2.070   1.460  24.840  0.00  0.00    +0.109 C 
ATOM      8  C   UNL     1       0.123   0.567  23.827  0.00  0.00    +0.133 C 
ATOM      9  C   UNL     1      -2.770  -1.347  25.177  0.00  0.00    +0.125 C 
ATOM     10  C   UNL     1      -3.800  -0.214  25.190  0.00  0.00    +0.104 C 
ATOM     11  C   UNL     1      -0.762  -1.623  23.609  0.00  0.00    +0.305 C 
ENDROOT
BRANCH   4  12
ATOM     12  C   UNL     1      -4.222   2.102  25.723  0.00  0.00    +0.121 C 
BRANCH  12  14
ATOM      1 CL   UNL     1      -4.367   3.022  22.782  0.00  0.00    -0.083 Cl
ATOM     14  C   UNL     1      -3.648   3.445  25.376  0.00  0.00    -0.015 A 
ATOM     16  C   UNL     1      -3.672   3.935  24.070  0.00  0.00    +0.045 A 
ATOM     17  C   UNL     1      -3.080   4.207  26.397  0.00  0.00    +0.006 A 
ATOM     22  C   UNL     1      -3.129   5.188  23.786  0.00  0.00    +0.020 A 
ATOM     23  C   UNL     1      -2.536   5.459  26.112  0.00  0.00    +0.000 A 
ATOM     25  C   UNL     1      -2.561   5.950  24.807  0.00  0.00    +0.001 A 
ENDBRANCH  12  14
ENDBRANCH   4  12
BRANCH   5  13
ATOM     13  C   UNL     1       1.329  -1.044  22.284  0.00  0.00    +0.144 C 
BRANCH  13  15
ATOM     15  C   UNL     1       2.675  -0.581  22.762  0.00  0.00    -0.030 A 
ATOM     18  C   UNL     1       3.136   0.691  22.423  0.00  0.00    +0.005 A 
ATOM     19  C   UNL     1       3.466  -1.425  23.542  0.00  0.00    +0.005 A 
ATOM     20  C   UNL     1       4.387   1.120  22.864  0.00  0.00    +0.003 A 
ATOM     21  C   UNL     1       4.718  -0.996  23.983  0.00  0.00    +0.003 A 
ATOM     24  C   UNL     1       5.179   0.277  23.643  0.00  0.00    -0.050 A 
ATOM     26  C   UNL     1       6.517   0.735  24.115  0.00  0.00    +0.044 C 
ENDBRANCH  13  15
ENDBRANCH   5  13
TORSDOF 4
ENDMDL
MODEL 6
REMARK VINA RESULT:       3.1      2.131      7.288
REMARK  Name = 75368689
REMARK  5 active torsions:
REMARK  status: ('A' for Active; 'I' for Inactive)
REMARK    1  A    between atoms: N_4  and  C_12
REMARK    2  A    between atoms: N_5  and  C_13
REMARK    3  A    between atoms: C_12  and  C_14
REMARK    4  A    between atoms: C_13  and  C_15
REMARK    5  A    between atoms: C_24  and  C_26
REMARK                            x       y       z     vdW  Elec       q    Type
REMARK                         _______ _______ _______ _____ _____    ______ ____
ROOT
ATOM      2  O   UNL     1      -2.626  -1.175  26.747  0.00  0.00    -0.252 OA
ATOM      3  N   UNL     1      -1.344  -1.204  24.779  0.00  0.00    -0.278 N 
ATOM      4  N   UNL     1       0.825  -0.735  23.051  0.00  0.00    -0.295 NA
ATOM      5  N   UNL     1      -3.528  -0.706  24.620  0.00  0.00    -0.279 N 
ATOM      6  C   UNL     1      -1.589  -1.100  23.356  0.00  0.00    +0.109 C 
ATOM      7  C   UNL     1      -0.517  -0.235  22.693  0.00  0.00    +0.109 C 
ATOM      8  C   UNL     1      -3.008  -0.538  23.273  0.00  0.00    +0.133 C 
ATOM      9  C   UNL     1      -0.016  -1.545  25.245  0.00  0.00    +0.125 C 
ATOM     10  C   UNL     1       1.028  -0.697  24.514  0.00  0.00    +0.104 C 
ATOM     11  C   UNL     1      -2.513  -1.049  25.536  0.00  0.00    +0.305 C 
ENDROOT
BRANCH   4  12
ATOM     12  C   UNL     1       1.858   0.049  22.373  0.00  0.00    +0.121 C 
BRANCH  12  14
ATOM      1 CL   UNL     1       3.843   2.411  22.411  0.00  0.00    -0.083 Cl
ATOM     14  C   UNL     1       3.218  -0.183  22.964  0.00  0.00    -0.015 A 
ATOM     16  C   UNL     1       4.174   0.831  23.020  0.00  0.00    +0.045 A 
ATOM     17  C   UNL     1       3.515  -1.451  23.464  0.00  0.00    +0.006 A 
ATOM     22  C   UNL     1       5.428   0.576  23.576  0.00  0.00    +0.020 A 
ATOM     23  C   UNL     1       4.769  -1.705  24.020  0.00  0.00    +0.000 A 
ATOM     25  C   UNL     1       5.725  -0.692  24.076  0.00  0.00    +0.001 A 
ENDBRANCH  12  14
ENDBRANCH   4  12
BRANCH   5  13
ATOM     13  C   UNL     1      -4.900  -0.396  24.955  0.00  0.00    +0.144 C 
BRANCH  13  15
ATOM     15  C   UNL     1      -5.120   1.080  25.117  0.00  0.00    -0.030 A 
ATOM     18  C   UNL     1      -6.210   1.548  25.850  0.00  0.00    +0.005 A 
ATOM     19  C   UNL     1      -4.233   1.985  24.531  0.00  0.00    +0.005 A 
ATOM     20  C   UNL     1      -6.415   2.919  25.997  0.00  0.00    +0.003 A 
ATOM     21  C   UNL     1      -4.439   3.357  24.679  0.00  0.00    +0.003 A 
ATOM     24  C   UNL     1      -5.531   3.824  25.412  0.00  0.00    -0.050 A 
ATOM     26  C   UNL     1      -5.750   5.291  25.569  0.00  0.00    +0.044 C 
ENDBRANCH  13  15
ENDBRANCH   5  13
TORSDOF 4
ENDMDL
MODEL 7
REMARK VINA RESULT:       3.2      2.588      7.729
REMARK  Name = 75368689
REMARK  5 active torsions:
REMARK  status: ('A' for Active; 'I' for Inactive)
REMARK    1  A    between atoms: N_4  and  C_12
REMARK    2  A    between atoms: N_5  and  C_13
REMARK    3  A    between atoms: C_12  and  C_14
REMARK    4  A    between atoms: C_13  and  C_15
REMARK    5  A    between atoms: C_24  and  C_26
REMARK                            x       y       z     vdW  Elec       q    Type
REMARK                         _______ _______ _______ _____ _____    ______ ____
ROOT
ATOM      2  O   UNL     1      -2.557   2.366  25.779  0.00  0.00    -0.252 OA
ATOM      3  N   UNL     1      -0.936   0.831  25.047  0.00  0.00    -0.278 N 
ATOM      4  N   UNL     1       1.359  -0.144  23.747  0.00  0.00    -0.295 NA
ATOM      5  N   UNL     1      -3.098   0.233  24.931  0.00  0.00    -0.279 N 
ATOM      6  C   UNL     1      -0.908  -0.550  24.613  0.00  0.00    +0.109 C 
ATOM      7  C   UNL     1       0.036  -0.714  23.422  0.00  0.00    +0.109 C 
ATOM      8  C   UNL     1      -2.373  -0.867  24.318  0.00  0.00    +0.133 C 
ATOM      9  C   UNL     1       0.313   1.535  25.252  0.00  0.00    +0.125 C 
ATOM     10  C   UNL     1       1.249   1.294  24.065  0.00  0.00    +0.104 C 
ATOM     11  C   UNL     1      -2.236   1.281  25.315  0.00  0.00    +0.305 C 
ENDROOT
BRANCH   4  12
ATOM     12  C   UNL     1       2.288  -0.350  22.636  0.00  0.00    +0.121 C 
BRANCH  12  14
ATOM      1 CL   UNL     1       4.046   2.153  22.230  0.00  0.00    -0.083 Cl
ATOM     14  C   UNL     1       3.714  -0.408  23.100  0.00  0.00    -0.015 A 
ATOM     16  C   UNL     1       4.576   0.680  22.953  0.00  0.00    +0.045 A 
ATOM     17  C   UNL     1       4.172  -1.587  23.689  0.00  0.00    +0.006 A 
ATOM     22  C   UNL     1       5.895   0.587  23.397  0.00  0.00    +0.020 A 
ATOM     23  C   UNL     1       5.491  -1.678  24.132  0.00  0.00    +0.000 A 
ATOM     25  C   UNL     1       6.353  -0.592  23.986  0.00  0.00    +0.001 A 
ENDBRANCH  12  14
ENDBRANCH   4  12
BRANCH   5  13
ATOM     13  C   UNL     1      -4.543   0.268  24.978  0.00  0.00    +0.144 C 
BRANCH  13  15
ATOM     15  C   UNL     1      -5.068   1.670  25.090  0.00  0.00    -0.030 A 
ATOM     18  C   UNL     1      -4.619   2.655  24.211  0.00  0.00    +0.005 A 
ATOM     19  C   UNL     1      -6.004   1.987  26.075  0.00  0.00    +0.005 A 
ATOM     20  C   UNL     1      -5.105   3.958  24.317  0.00  0.00    +0.003 A 
ATOM     21  C   UNL     1      -6.489   3.292  26.181  0.00  0.00    +0.003 A 
ATOM     24  C   UNL     1      -6.039   4.277  25.302  0.00  0.00    -0.050 A 
ATOM     26  C   UNL     1      -6.558   5.670  25.416  0.00  0.00    +0.044 C 
ENDBRANCH  13  15
ENDBRANCH   5  13
TORSDOF 4
ENDMDL
MODEL 8
REMARK VINA RESULT:       4.9      2.790      7.040
REMARK  Name = 75368689
REMARK  5 active torsions:
REMARK  status: ('A' for Active; 'I' for Inactive)
REMARK    1  A    between atoms: N_4  and  C_12
REMARK    2  A    between atoms: N_5  and  C_13
REMARK    3  A    between atoms: C_12  and  C_14
REMARK    4  A    between atoms: C_13  and  C_15
REMARK    5  A    between atoms: C_24  and  C_26
REMARK                            x       y       z     vdW  Elec       q    Type
REMARK                         _______ _______ _______ _____ _____    ______ ____
ROOT
ATOM      2  O   UNL     1      -3.027   3.744  24.745  0.00  0.00    -0.252 OA
ATOM      3  N   UNL     1      -0.810   2.972  24.657  0.00  0.00    -0.278 N 
ATOM      4  N   UNL     1       1.785   2.550  23.659  0.00  0.00    -0.295 NA
ATOM      5  N   UNL     1      -2.406   1.550  25.345  0.00  0.00    -0.279 N 
ATOM      6  C   UNL     1      -0.088   1.783  25.059  0.00  0.00    +0.109 C 
ATOM      7  C   UNL     1       0.930   1.392  23.988  0.00  0.00    +0.109 C 
ATOM      8  C   UNL     1      -1.191   0.754  25.302  0.00  0.00    +0.133 C 
ATOM      9  C   UNL     1      -0.071   4.121  24.174  0.00  0.00    +0.125 C 
ATOM     10  C   UNL     1       0.975   3.675  23.150  0.00  0.00    +0.104 C 
ATOM     11  C   UNL     1      -2.187   2.869  24.900  0.00  0.00    +0.305 C 
ENDROOT
BRANCH   4  12
ATOM     12  C   UNL     1       2.802   2.170  22.679  0.00  0.00    +0.121 C 
BRANCH  12  14
ATOM      1 CL   UNL     1       1.501  -0.589  22.218  0.00  0.00    -0.083 Cl
ATOM     14  C   UNL     1       3.566   0.951  23.106  0.00  0.00    -0.015 A 
ATOM     16  C   UNL     1       3.049  -0.334  22.934  0.00  0.00    +0.045 A 
ATOM     17  C   UNL     1       4.822   1.126  23.688  0.00  0.00    +0.006 A 
ATOM     22  C   UNL     1       3.789  -1.443  23.344  0.00  0.00    +0.020 A 
ATOM     23  C   UNL     1       5.560   0.016  24.098  0.00  0.00    +0.000 A 
ATOM     25  C   UNL     1       5.045  -1.268  23.926  0.00  0.00    +0.001 A 
ENDBRANCH  12  14
ENDBRANCH   4  12
BRANCH   5  13
ATOM     13  C   UNL     1      -3.691   0.969  25.667  0.00  0.00    +0.144 C 
BRANCH  13  15
ATOM     15  C   UNL     1      -3.820  -0.433  25.146  0.00  0.00    -0.030 A 
ATOM     18  C   UNL     1      -3.322  -1.503  25.890  0.00  0.00    +0.005 A 
ATOM     19  C   UNL     1      -4.435  -0.666  23.916  0.00  0.00    +0.005 A 
ATOM     20  C   UNL     1      -3.439  -2.805  25.404  0.00  0.00    +0.003 A 
ATOM     21  C   UNL     1      -4.552  -1.969  23.430  0.00  0.00    +0.003 A 
ATOM     24  C   UNL     1      -4.053  -3.038  24.175  0.00  0.00    -0.050 A 
ATOM     26  C   UNL     1      -4.178  -4.430  23.655  0.00  0.00    +0.044 C 
ENDBRANCH  13  15
ENDBRANCH   5  13
TORSDOF 4
ENDMDL
MODEL 9
REMARK VINA RESULT:       5.6      3.032      8.117
REMARK  Name = 75368689
REMARK  5 active torsions:
REMARK  status: ('A' for Active; 'I' for Inactive)
REMARK    1  A    between atoms: N_4  and  C_12
REMARK    2  A    between atoms: N_5  and  C_13
REMARK    3  A    between atoms: C_12  and  C_14
REMARK    4  A    between atoms: C_13  and  C_15
REMARK    5  A    between atoms: C_24  and  C_26
REMARK                            x       y       z     vdW  Elec       q    Type
REMARK                         _______ _______ _______ _____ _____    ______ ____
ROOT
ATOM      2  O   UNL     1      -1.532   4.172  24.464  0.00  0.00    -0.252 OA
ATOM      3  N   UNL     1      -0.470   2.098  24.159  0.00  0.00    -0.278 N 
ATOM      4  N   UNL     1       1.497   0.246  23.382  0.00  0.00    -0.295 NA
ATOM      5  N   UNL     1      -2.660   2.253  23.687  0.00  0.00    -0.279 N 
ATOM      6  C   UNL     1      -0.869   0.744  23.839  0.00  0.00    +0.109 C 
ATOM      7  C   UNL     1       0.122   0.116  22.860  0.00  0.00    +0.109 C 
ATOM      8  C   UNL     1      -2.290   0.902  23.301  0.00  0.00    +0.133 C 
ATOM      9  C   UNL     1       0.902   2.362  24.541  0.00  0.00    +0.125 C 
ATOM     10  C   UNL     1       1.858   1.666  23.569  0.00  0.00    +0.104 C 
ATOM     11  C   UNL     1      -1.551   2.990  24.148  0.00  0.00    +0.305 C 
ENDROOT
BRANCH   4  12
ATOM     12  C   UNL     1       2.448  -0.406  22.481  0.00  0.00    +0.121 C 
BRANCH  12  14
ATOM      1 CL   UNL     1       4.206   2.123  22.309  0.00  0.00    -0.083 Cl
ATOM     14  C   UNL     1       3.828  -0.466  23.068  0.00  0.00    -0.015 A 
ATOM     16  C   UNL     1       4.687   0.633  23.032  0.00  0.00    +0.045 A 
ATOM     17  C   UNL     1       4.245  -1.659  23.659  0.00  0.00    +0.006 A 
ATOM     22  C   UNL     1       5.962   0.538  23.588  0.00  0.00    +0.020 A 
ATOM     23  C   UNL     1       5.520  -1.752  24.215  0.00  0.00    +0.000 A 
ATOM     25  C   UNL     1       6.379  -0.655  24.179  0.00  0.00    +0.001 A 
ENDBRANCH  12  14
ENDBRANCH   4  12
BRANCH   5  13
ATOM     13  C   UNL     1      -3.990   2.777  23.462  0.00  0.00    +0.144 C 
BRANCH  13  15
ATOM     15  C   UNL     1      -4.926   2.435  24.585  0.00  0.00    -0.030 A 
ATOM     18  C   UNL     1      -5.519   1.174  24.640  0.00  0.00    +0.005 A 
ATOM     19  C   UNL     1      -5.204   3.381  25.573  0.00  0.00    +0.005 A 
ATOM     20  C   UNL     1      -6.391   0.858  25.681  0.00  0.00    +0.003 A 
ATOM     21  C   UNL     1      -6.077   3.064  26.615  0.00  0.00    +0.003 A 
ATOM     24  C   UNL     1      -6.670   1.803  26.668  0.00  0.00    -0.050 A 
ATOM     26  C   UNL     1      -7.603   1.465  27.782  0.00  0.00    +0.044 C 
ENDBRANCH  13  15
ENDBRANCH   5  13
TORSDOF 4
ENDMDL
