MODEL 1
REMARK VINA RESULT:      -4.0      0.000      0.000
REMARK  Name = 51136739
REMARK  8 active torsions:
REMARK  status: ('A' for Active; 'I' for Inactive)
REMARK    1  A    between atoms: O_1  and  C_17
REMARK    2  A    between atoms: N_6  and  C_24
REMARK    3  A    between atoms: C_7  and  C_11
REMARK    4  A    between atoms: C_8  and  C_13
REMARK    5  A    between atoms: C_11  and  C_14
REMARK    6  A    between atoms: C_13  and  C_17
REMARK    7  A    between atoms: C_23  and  C_26
REMARK    8  A    between atoms: C_24  and  C_27
REMARK                            x       y       z     vdW  Elec       q    Type
REMARK                         _______ _______ _______ _____ _____    ______ ____
ROOT
ATOM      2  O   UNL     1      17.386  -6.702  24.551  0.00  0.00    -0.253 OA
ATOM      4  N   UNL     1      15.919  -7.068  26.309  0.00  0.00    -0.285 N 
ATOM      6  N   UNL     1      16.504  -4.880  25.630  0.00  0.00    -0.300 N 
ATOM      7  C   UNL     1      15.494  -7.153  28.750  0.00  0.00    +0.016 C 
ATOM      8  C   UNL     1      15.637  -8.697  28.686  0.00  0.00    +0.006 C 
ATOM      9  C   UNL     1      16.505  -9.141  27.495  0.00  0.00    +0.023 C 
ATOM     10  C   UNL     1      15.023  -6.621  27.386  0.00  0.00    +0.113 C 
ATOM     12  C   UNL     1      16.018  -8.524  26.185  0.00  0.00    +0.109 C 
ATOM     15  C   UNL     1      16.651  -6.248  25.435  0.00  0.00    +0.302 C 
ATOM     28  H   UNL     1      15.962  -4.510  26.398  0.00  0.00    +0.150 HD
ENDROOT
BRANCH   6  24
ATOM     24  C   UNL     1      17.199  -3.909  24.816  0.00  0.00    +0.102 C 
ATOM     27  C   UNL     1      16.234  -2.946  24.156  0.00  0.00    +0.024 C 
ENDBRANCH   6  24
BRANCH   7  11
ATOM     11  C   UNL     1      16.768  -6.426  29.197  0.00  0.00    +0.061 C 
BRANCH  11  14
ATOM      5  N   UNL     1      17.405  -4.736  30.780  0.00  0.00    -0.287 NA
ATOM     14  C   UNL     1      16.450  -5.481  30.330  0.00  0.00    +0.044 C 
ATOM     16  C   UNL     1      15.065  -5.445  30.865  0.00  0.00    -0.001 A 
ATOM     18  C   UNL     1      14.708  -4.321  31.620  0.00  0.00    -0.037 A 
ATOM     19  C   UNL     1      15.725  -3.237  31.824  0.00  0.00    +0.059 C 
ATOM     20  C   UNL     1      17.112  -3.861  31.919  0.00  0.00    +0.146 C 
ATOM     21  C   UNL     1      14.138  -6.464  30.629  0.00  0.00    +0.013 A 
ATOM     22  C   UNL     1      13.406  -4.209  32.117  0.00  0.00    +0.004 A 
ATOM     23  C   UNL     1      12.846  -6.349  31.143  0.00  0.00    -0.050 A 
ATOM     25  C   UNL     1      12.480  -5.224  31.883  0.00  0.00    +0.003 A 
ATOM     26  C   UNL     1      11.850  -7.432  30.897  0.00  0.00    +0.044 C 
ENDBRANCH  11  14
ENDBRANCH   7  11
BRANCH   8  13
ATOM     13  C   UNL     1      16.156  -9.306  29.988  0.00  0.00    +0.124 C 
BRANCH  13  17
ATOM      3  O   UNL     1      15.238 -10.781  31.698  0.00  0.00    -0.251 OA
ATOM     17  C   UNL     1      15.105 -10.141  30.667  0.00  0.00    +0.305 C 
BRANCH  17   1
ATOM      1  O   UNL     1      13.948 -10.085  29.957  0.00  0.00    -0.481 OA
ATOM     29  H   UNL     1      13.990 -10.634  29.146  0.00  0.00    +0.295 HD
ENDBRANCH  17   1
ENDBRANCH  13  17
ENDBRANCH   8  13
TORSDOF 6
ENDMDL
MODEL 2
REMARK VINA RESULT:      -4.0      1.632      2.861
REMARK  Name = 51136739
REMARK  8 active torsions:
REMARK  status: ('A' for Active; 'I' for Inactive)
REMARK    1  A    between atoms: O_1  and  C_17
REMARK    2  A    between atoms: N_6  and  C_24
REMARK    3  A    between atoms: C_7  and  C_11
REMARK    4  A    between atoms: C_8  and  C_13
REMARK    5  A    between atoms: C_11  and  C_14
REMARK    6  A    between atoms: C_13  and  C_17
REMARK    7  A    between atoms: C_23  and  C_26
REMARK    8  A    between atoms: C_24  and  C_27
REMARK                            x       y       z     vdW  Elec       q    Type
REMARK                         _______ _______ _______ _____ _____    ______ ____
ROOT
ATOM      2  O   UNL     1      17.403  -6.725  24.560  0.00  0.00    -0.253 OA
ATOM      4  N   UNL     1      15.918  -7.142  26.291  0.00  0.00    -0.285 N 
ATOM      6  N   UNL     1      16.643  -4.948  25.794  0.00  0.00    -0.300 N 
ATOM      7  C   UNL     1      15.491  -7.405  28.719  0.00  0.00    +0.016 C 
ATOM      8  C   UNL     1      15.533  -8.944  28.525  0.00  0.00    +0.006 C 
ATOM      9  C   UNL     1      16.369  -9.342  27.295  0.00  0.00    +0.023 C 
ATOM     10  C   UNL     1      15.054  -6.731  27.407  0.00  0.00    +0.113 C 
ATOM     12  C   UNL     1      15.921  -8.586  26.044  0.00  0.00    +0.109 C 
ATOM     15  C   UNL     1      16.700  -6.301  25.484  0.00  0.00    +0.302 C 
ATOM     28  H   UNL     1      16.127  -4.609  26.594  0.00  0.00    +0.150 HD
ENDROOT
BRANCH   6  24
ATOM     24  C   UNL     1      17.399  -3.958  25.060  0.00  0.00    +0.102 C 
ATOM     27  C   UNL     1      16.511  -2.833  24.570  0.00  0.00    +0.024 C 
ENDBRANCH   6  24
BRANCH   7  11
ATOM     11  C   UNL     1      16.810  -6.803  29.217  0.00  0.00    +0.061 C 
BRANCH  11  14
ATOM      5  N   UNL     1      16.122  -6.556  31.504  0.00  0.00    -0.287 NA
ATOM     14  C   UNL     1      16.560  -5.961  30.444  0.00  0.00    +0.044 C 
ATOM     16  C   UNL     1      16.832  -4.502  30.380  0.00  0.00    -0.001 A 
ATOM     18  C   UNL     1      16.965  -3.830  31.601  0.00  0.00    -0.037 A 
ATOM     19  C   UNL     1      16.841  -4.615  32.873  0.00  0.00    +0.059 C 
ATOM     20  C   UNL     1      15.821  -5.730  32.678  0.00  0.00    +0.146 C 
ATOM     21  C   UNL     1      16.969  -3.812  29.173  0.00  0.00    +0.013 A 
ATOM     22  C   UNL     1      17.263  -2.464  31.608  0.00  0.00    +0.004 A 
ATOM     23  C   UNL     1      17.250  -2.445  29.191  0.00  0.00    -0.050 A 
ATOM     25  C   UNL     1      17.399  -1.773  30.404  0.00  0.00    +0.003 A 
ATOM     26  C   UNL     1      17.396  -1.700  27.907  0.00  0.00    +0.044 C 
ENDBRANCH  11  14
ENDBRANCH   7  11
BRANCH   8  13
ATOM     13  C   UNL     1      16.012  -9.693  29.767  0.00  0.00    +0.124 C 
BRANCH  13  17
ATOM      3  O   UNL     1      13.796 -10.379  30.515  0.00  0.00    -0.251 OA
ATOM     17  C   UNL     1      14.895  -9.904  30.752  0.00  0.00    +0.305 C 
BRANCH  17   1
ATOM      1  O   UNL     1      15.286  -9.484  31.983  0.00  0.00    -0.481 OA
ATOM     29  H   UNL     1      14.565  -9.566  32.643  0.00  0.00    +0.295 HD
ENDBRANCH  17   1
ENDBRANCH  13  17
ENDBRANCH   8  13
TORSDOF 6
ENDMDL
MODEL 3
REMARK VINA RESULT:      -2.3      1.788      2.337
REMARK  Name = 51136739
REMARK  8 active torsions:
REMARK  status: ('A' for Active; 'I' for Inactive)
REMARK    1  A    between atoms: O_1  and  C_17
REMARK    2  A    between atoms: N_6  and  C_24
REMARK    3  A    between atoms: C_7  and  C_11
REMARK    4  A    between atoms: C_8  and  C_13
REMARK    5  A    between atoms: C_11  and  C_14
REMARK    6  A    between atoms: C_13  and  C_17
REMARK    7  A    between atoms: C_23  and  C_26
REMARK    8  A    between atoms: C_24  and  C_27
REMARK                            x       y       z     vdW  Elec       q    Type
REMARK                         _______ _______ _______ _____ _____    ______ ____
ROOT
ATOM      2  O   UNL     1      17.403  -4.027  23.880  0.00  0.00    -0.253 OA
ATOM      4  N   UNL     1      16.234  -5.499  25.237  0.00  0.00    -0.285 N 
ATOM      6  N   UNL     1      16.507  -3.228  25.834  0.00  0.00    -0.300 N 
ATOM      7  C   UNL     1      16.158  -6.941  27.253  0.00  0.00    +0.016 C 
ATOM      8  C   UNL     1      16.437  -8.167  26.344  0.00  0.00    +0.006 C 
ATOM      9  C   UNL     1      17.173  -7.765  25.052  0.00  0.00    +0.023 C 
ATOM     10  C   UNL     1      15.455  -5.843  26.436  0.00  0.00    +0.113 C 
ATOM     12  C   UNL     1      16.453  -6.627  24.329  0.00  0.00    +0.109 C 
ATOM     15  C   UNL     1      16.756  -4.237  24.912  0.00  0.00    +0.302 C 
ATOM     28  H   UNL     1      16.042  -3.415  26.711  0.00  0.00    +0.150 HD
ENDROOT
BRANCH   6  24
ATOM     24  C   UNL     1      16.987  -1.878  25.645  0.00  0.00    +0.102 C 
ATOM     27  C   UNL     1      15.955  -1.014  24.949  0.00  0.00    +0.024 C 
ENDBRANCH   6  24
BRANCH   7  11
ATOM     11  C   UNL     1      17.405  -6.378  27.944  0.00  0.00    +0.061 C 
BRANCH  11  14
ATOM      5  N   UNL     1      17.359  -4.217  28.989  0.00  0.00    -0.287 NA
ATOM     14  C   UNL     1      16.998  -5.455  29.066  0.00  0.00    +0.044 C 
ATOM     16  C   UNL     1      16.202  -6.005  30.193  0.00  0.00    -0.001 A 
ATOM     18  C   UNL     1      15.522  -5.081  30.997  0.00  0.00    -0.037 A 
ATOM     19  C   UNL     1      15.627  -3.623  30.665  0.00  0.00    +0.059 C 
ATOM     20  C   UNL     1      17.015  -3.333  30.108  0.00  0.00    +0.146 C 
ATOM     21  C   UNL     1      16.107  -7.375  30.453  0.00  0.00    +0.013 A 
ATOM     22  C   UNL     1      14.723  -5.539  32.049  0.00  0.00    +0.004 A 
ATOM     23  C   UNL     1      15.319  -7.820  31.515  0.00  0.00    -0.050 A 
ATOM     25  C   UNL     1      14.627  -6.906  32.309  0.00  0.00    +0.003 A 
ATOM     26  C   UNL     1      15.213  -9.280  31.800  0.00  0.00    +0.044 C 
ENDBRANCH  11  14
ENDBRANCH   7  11
BRANCH   8  13
ATOM     13  C   UNL     1      17.186  -9.288  27.063  0.00  0.00    +0.124 C 
BRANCH  13  17
ATOM      3  O   UNL     1      16.470 -10.709  28.910  0.00  0.00    -0.251 OA
ATOM     17  C   UNL     1      16.247 -10.176  27.834  0.00  0.00    +0.305 C 
BRANCH  17   1
ATOM      1  O   UNL     1      15.079 -10.307  27.153  0.00  0.00    -0.481 OA
ATOM     29  H   UNL     1      14.784  -9.456  26.766  0.00  0.00    +0.295 HD
ENDBRANCH  17   1
ENDBRANCH  13  17
ENDBRANCH   8  13
TORSDOF 6
ENDMDL
MODEL 4
REMARK VINA RESULT:      -1.8     17.476     19.080
REMARK  Name = 51136739
REMARK  8 active torsions:
REMARK  status: ('A' for Active; 'I' for Inactive)
REMARK    1  A    between atoms: O_1  and  C_17
REMARK    2  A    between atoms: N_6  and  C_24
REMARK    3  A    between atoms: C_7  and  C_11
REMARK    4  A    between atoms: C_8  and  C_13
REMARK    5  A    between atoms: C_11  and  C_14
REMARK    6  A    between atoms: C_13  and  C_17
REMARK    7  A    between atoms: C_23  and  C_26
REMARK    8  A    between atoms: C_24  and  C_27
REMARK                            x       y       z     vdW  Elec       q    Type
REMARK                         _______ _______ _______ _____ _____    ______ ____
ROOT
ATOM      2  O   UNL     1       3.220  -1.049  23.408  0.00  0.00    -0.253 OA
ATOM      4  N   UNL     1       1.031  -0.403  22.996  0.00  0.00    -0.285 N 
ATOM      6  N   UNL     1       2.806   1.157  22.937  0.00  0.00    -0.300 N 
ATOM      7  C   UNL     1      -1.062   0.666  23.785  0.00  0.00    +0.016 C 
ATOM      8  C   UNL     1      -1.641  -0.747  24.057  0.00  0.00    +0.006 C 
ATOM      9  C   UNL     1      -0.528  -1.782  24.306  0.00  0.00    +0.023 C 
ATOM     10  C   UNL     1      -0.006   0.585  22.669  0.00  0.00    +0.113 C 
ATOM     12  C   UNL     1       0.517  -1.761  23.191  0.00  0.00    +0.109 C 
ATOM     15  C   UNL     1       2.408  -0.160  23.129  0.00  0.00    +0.302 C 
ATOM     28  H   UNL     1       2.135   1.896  22.781  0.00  0.00    +0.150 HD
ENDROOT
BRANCH   6  24
ATOM     24  C   UNL     1       4.188   1.567  23.048  0.00  0.00    +0.102 C 
ATOM     27  C   UNL     1       5.076   0.414  23.470  0.00  0.00    +0.024 C 
ENDBRANCH   6  24
BRANCH   7  11
ATOM     11  C   UNL     1      -0.477   1.351  25.027  0.00  0.00    +0.061 C 
BRANCH  11  14
ATOM      5  N   UNL     1      -0.068   3.715  25.126  0.00  0.00    -0.287 NA
ATOM     14  C   UNL     1      -0.959   2.779  25.101  0.00  0.00    +0.044 C 
ATOM     16  C   UNL     1      -2.421   3.040  25.133  0.00  0.00    -0.001 A 
ATOM     18  C   UNL     1      -2.837   4.339  24.813  0.00  0.00    -0.037 A 
ATOM     19  C   UNL     1      -1.800   5.360  24.451  0.00  0.00    +0.059 C 
ATOM     20  C   UNL     1      -0.535   5.099  25.259  0.00  0.00    +0.146 C 
ATOM     21  C   UNL     1      -3.357   2.053  25.449  0.00  0.00    +0.013 A 
ATOM     22  C   UNL     1      -4.202   4.638  24.787  0.00  0.00    +0.004 A 
ATOM     23  C   UNL     1      -4.717   2.367  25.435  0.00  0.00    -0.050 A 
ATOM     25  C   UNL     1      -5.139   3.654  25.102  0.00  0.00    +0.003 A 
ATOM     26  C   UNL     1      -5.724   1.319  25.772  0.00  0.00    +0.044 C 
ENDBRANCH  11  14
ENDBRANCH   7  11
BRANCH   8  13
ATOM     13  C   UNL     1      -2.661  -0.769  25.194  0.00  0.00    +0.124 C 
BRANCH  13  17
ATOM      3  O   UNL     1      -3.615  -2.973  25.616  0.00  0.00    -0.251 OA
ATOM     17  C   UNL     1      -3.643  -1.898  25.037  0.00  0.00    +0.305 C 
BRANCH  17   1
ATOM      1  O   UNL     1      -4.598  -1.550  24.136  0.00  0.00    -0.481 OA
ATOM     29  H   UNL     1      -4.238  -1.493  23.226  0.00  0.00    +0.295 HD
ENDBRANCH  17   1
ENDBRANCH  13  17
ENDBRANCH   8  13
TORSDOF 6
ENDMDL
MODEL 5
REMARK VINA RESULT:      -1.8     17.691     19.595
REMARK  Name = 51136739
REMARK  8 active torsions:
REMARK  status: ('A' for Active; 'I' for Inactive)
REMARK    1  A    between atoms: O_1  and  C_17
REMARK    2  A    between atoms: N_6  and  C_24
REMARK    3  A    between atoms: C_7  and  C_11
REMARK    4  A    between atoms: C_8  and  C_13
REMARK    5  A    between atoms: C_11  and  C_14
REMARK    6  A    between atoms: C_13  and  C_17
REMARK    7  A    between atoms: C_23  and  C_26
REMARK    8  A    between atoms: C_24  and  C_27
REMARK                            x       y       z     vdW  Elec       q    Type
REMARK                         _______ _______ _______ _____ _____    ______ ____
ROOT
ATOM      2  O   UNL     1      -2.053  -2.909  23.872  0.00  0.00    -0.253 OA
ATOM      4  N   UNL     1      -0.656  -1.293  24.772  0.00  0.00    -0.285 N 
ATOM      6  N   UNL     1      -2.979  -1.291  25.207  0.00  0.00    -0.300 N 
ATOM      7  C   UNL     1       0.239   1.019  24.729  0.00  0.00    +0.016 C 
ATOM      8  C   UNL     1       1.502   0.479  24.007  0.00  0.00    +0.006 C 
ATOM      9  C   UNL     1       1.209  -0.823  23.239  0.00  0.00    +0.023 C 
ATOM     10  C   UNL     1      -0.383  -0.098  25.585  0.00  0.00    +0.113 C 
ATOM     12  C   UNL     1       0.534  -1.861  24.135  0.00  0.00    +0.109 C 
ATOM     15  C   UNL     1      -1.905  -1.902  24.572  0.00  0.00    +0.302 C 
ATOM     28  H   UNL     1      -2.870  -0.427  25.719  0.00  0.00    +0.150 HD
ENDROOT
BRANCH   6  24
ATOM     24  C   UNL     1      -4.329  -1.794  25.089  0.00  0.00    +0.102 C 
ATOM     27  C   UNL     1      -4.712  -2.023  23.641  0.00  0.00    +0.024 C 
ENDBRANCH   6  24
BRANCH   7  11
ATOM     11  C   UNL     1      -0.812   1.618  23.786  0.00  0.00    +0.061 C 
BRANCH  11  14
ATOM      5  N   UNL     1      -0.451   3.896  24.455  0.00  0.00    -0.287 NA
ATOM     14  C   UNL     1      -1.305   2.933  24.336  0.00  0.00    +0.044 C 
ATOM     16  C   UNL     1      -2.738   3.063  24.706  0.00  0.00    -0.001 A 
ATOM     18  C   UNL     1      -3.242   4.363  24.837  0.00  0.00    -0.037 A 
ATOM     19  C   UNL     1      -2.323   5.521  24.587  0.00  0.00    +0.059 C 
ATOM     20  C   UNL     1      -0.917   5.155  25.046  0.00  0.00    +0.146 C 
ATOM     21  C   UNL     1      -3.569   1.957  24.904  0.00  0.00    +0.013 A 
ATOM     22  C   UNL     1      -4.593   4.551  25.144  0.00  0.00    +0.004 A 
ATOM     23  C   UNL     1      -4.913   2.156  25.225  0.00  0.00    -0.050 A 
ATOM     25  C   UNL     1      -5.424   3.449  25.342  0.00  0.00    +0.003 A 
ATOM     26  C   UNL     1      -5.807   0.982  25.439  0.00  0.00    +0.044 C 
ENDBRANCH  11  14
ENDBRANCH   7  11
BRANCH   8  13
ATOM     13  C   UNL     1       2.154   1.511  23.088  0.00  0.00    +0.124 C 
BRANCH  13  17
ATOM      3  O   UNL     1       4.529   1.053  23.394  0.00  0.00    -0.251 OA
ATOM     17  C   UNL     1       3.540   1.092  22.679  0.00  0.00    +0.305 C 
BRANCH  17   1
ATOM      1  O   UNL     1       3.545   0.750  21.365  0.00  0.00    -0.481 OA
ATOM     29  H   UNL     1       3.249  -0.175  21.227  0.00  0.00    +0.295 HD
ENDBRANCH  17   1
ENDBRANCH  13  17
ENDBRANCH   8  13
TORSDOF 6
ENDMDL
MODEL 6
REMARK VINA RESULT:      -1.4     17.581     19.629
REMARK  Name = 51136739
REMARK  8 active torsions:
REMARK  status: ('A' for Active; 'I' for Inactive)
REMARK    1  A    between atoms: O_1  and  C_17
REMARK    2  A    between atoms: N_6  and  C_24
REMARK    3  A    between atoms: C_7  and  C_11
REMARK    4  A    between atoms: C_8  and  C_13
REMARK    5  A    between atoms: C_11  and  C_14
REMARK    6  A    between atoms: C_13  and  C_17
REMARK    7  A    between atoms: C_23  and  C_26
REMARK    8  A    between atoms: C_24  and  C_27
REMARK                            x       y       z     vdW  Elec       q    Type
REMARK                         _______ _______ _______ _____ _____    ______ ____
ROOT
ATOM      2  O   UNL     1      -1.707  -3.329  24.346  0.00  0.00    -0.253 OA
ATOM      4  N   UNL     1      -0.681  -1.338  24.945  0.00  0.00    -0.285 N 
ATOM      6  N   UNL     1      -3.026  -1.604  25.081  0.00  0.00    -0.300 N 
ATOM      7  C   UNL     1      -0.087   1.005  24.395  0.00  0.00    +0.016 C 
ATOM      8  C   UNL     1       1.332   0.516  24.000  0.00  0.00    +0.006 C 
ATOM      9  C   UNL     1       1.328  -0.964  23.577  0.00  0.00    +0.023 C 
ATOM     10  C   UNL     1      -0.691   0.048  25.436  0.00  0.00    +0.113 C 
ATOM     12  C   UNL     1       0.655  -1.845  24.629  0.00  0.00    +0.109 C 
ATOM     15  C   UNL     1      -1.797  -2.170  24.765  0.00  0.00    +0.302 C 
ATOM     28  H   UNL     1      -3.108  -0.635  25.354  0.00  0.00    +0.150 HD
ENDROOT
BRANCH   6  24
ATOM     24  C   UNL     1      -4.267  -2.332  24.941  0.00  0.00    +0.102 C 
ATOM     27  C   UNL     1      -4.621  -2.549  23.484  0.00  0.00    +0.024 C 
ENDBRANCH   6  24
BRANCH   7  11
ATOM     11  C   UNL     1      -1.042   1.177  23.207  0.00  0.00    +0.061 C 
BRANCH  11  14
ATOM      5  N   UNL     1      -3.395   0.773  23.468  0.00  0.00    -0.287 NA
ATOM     14  C   UNL     1      -2.410   1.577  23.702  0.00  0.00    +0.044 C 
ATOM     16  C   UNL     1      -2.560   2.861  24.435  0.00  0.00    -0.001 A 
ATOM     18  C   UNL     1      -3.720   3.018  25.203  0.00  0.00    -0.037 A 
ATOM     19  C   UNL     1      -4.714   1.896  25.246  0.00  0.00    +0.059 C 
ATOM     20  C   UNL     1      -4.734   1.190  23.896  0.00  0.00    +0.146 C 
ATOM     21  C   UNL     1      -1.597   3.872  24.390  0.00  0.00    +0.013 A 
ATOM     22  C   UNL     1      -3.900   4.187  25.948  0.00  0.00    +0.004 A 
ATOM     23  C   UNL     1      -1.794   5.041  25.125  0.00  0.00    -0.050 A 
ATOM     25  C   UNL     1      -2.941   5.198  25.904  0.00  0.00    +0.003 A 
ATOM     26  C   UNL     1      -0.772   6.127  25.082  0.00  0.00    +0.044 C 
ENDBRANCH  11  14
ENDBRANCH   7  11
BRANCH   8  13
ATOM     13  C   UNL     1       1.986   1.382  22.924  0.00  0.00    +0.124 C 
BRANCH  13  17
ATOM      3  O   UNL     1       4.323   0.931  23.456  0.00  0.00    -0.251 OA
ATOM     17  C   UNL     1       3.403   0.952  22.653  0.00  0.00    +0.305 C 
BRANCH  17   1
ATOM      1  O   UNL     1       3.526   0.577  21.354  0.00  0.00    -0.481 OA
ATOM     29  H   UNL     1       4.324   0.964  20.936  0.00  0.00    +0.295 HD
ENDBRANCH  17   1
ENDBRANCH  13  17
ENDBRANCH   8  13
TORSDOF 6
ENDMDL
MODEL 7
REMARK VINA RESULT:      -1.2     18.557     20.670
REMARK  Name = 51136739
REMARK  8 active torsions:
REMARK  status: ('A' for Active; 'I' for Inactive)
REMARK    1  A    between atoms: O_1  and  C_17
REMARK    2  A    between atoms: N_6  and  C_24
REMARK    3  A    between atoms: C_7  and  C_11
REMARK    4  A    between atoms: C_8  and  C_13
REMARK    5  A    between atoms: C_11  and  C_14
REMARK    6  A    between atoms: C_13  and  C_17
REMARK    7  A    between atoms: C_23  and  C_26
REMARK    8  A    between atoms: C_24  and  C_27
REMARK                            x       y       z     vdW  Elec       q    Type
REMARK                         _______ _______ _______ _____ _____    ______ ____
ROOT
ATOM      2  O   UNL     1       1.490   3.349  23.469  0.00  0.00    -0.253 OA
ATOM      4  N   UNL     1      -0.293   3.137  24.936  0.00  0.00    -0.285 N 
ATOM      6  N   UNL     1       0.892   1.245  24.157  0.00  0.00    -0.300 N 
ATOM      7  C   UNL     1      -2.679   2.588  25.328  0.00  0.00    +0.016 C 
ATOM      8  C   UNL     1      -2.992   4.108  25.333  0.00  0.00    +0.006 C 
ATOM      9  C   UNL     1      -1.950   4.908  24.530  0.00  0.00    +0.023 C 
ATOM     10  C   UNL     1      -1.222   2.360  25.769  0.00  0.00    +0.113 C 
ATOM     12  C   UNL     1      -0.526   4.582  24.978  0.00  0.00    +0.109 C 
ATOM     15  C   UNL     1       0.748   2.627  24.144  0.00  0.00    +0.302 C 
ATOM     28  H   UNL     1       0.241   0.650  24.650  0.00  0.00    +0.150 HD
ENDROOT
BRANCH   6  24
ATOM     24  C   UNL     1       1.912   0.570  23.387  0.00  0.00    +0.102 C 
ATOM     27  C   UNL     1       1.307  -0.277  22.287  0.00  0.00    +0.024 C 
ENDBRANCH   6  24
BRANCH   7  11
ATOM     11  C   UNL     1      -2.946   1.900  23.984  0.00  0.00    +0.061 C 
BRANCH  11  14
ATOM      5  N   UNL     1      -5.071   0.800  24.179  0.00  0.00    -0.287 NA
ATOM     14  C   UNL     1      -3.786   0.665  24.198  0.00  0.00    +0.044 C 
ATOM     16  C   UNL     1      -3.104  -0.638  24.410  0.00  0.00    -0.001 A 
ATOM     18  C   UNL     1      -3.873  -1.792  24.218  0.00  0.00    -0.037 A 
ATOM     19  C   UNL     1      -5.307  -1.643  23.803  0.00  0.00    +0.059 C 
ATOM     20  C   UNL     1      -5.887  -0.389  24.446  0.00  0.00    +0.146 C 
ATOM     21  C   UNL     1      -1.757  -0.734  24.770  0.00  0.00    +0.013 A 
ATOM     22  C   UNL     1      -3.278  -3.049  24.363  0.00  0.00    +0.004 A 
ATOM     23  C   UNL     1      -1.178  -1.994  24.928  0.00  0.00    -0.050 A 
ATOM     25  C   UNL     1      -1.934  -3.148  24.722  0.00  0.00    +0.003 A 
ATOM     26  C   UNL     1       0.259  -2.108  25.313  0.00  0.00    +0.044 C 
ENDBRANCH  11  14
ENDBRANCH   7  11
BRANCH   8  13
ATOM     13  C   UNL     1      -4.406   4.431  24.854  0.00  0.00    +0.124 C 
BRANCH  13  17
ATOM      3  O   UNL     1      -5.393   2.900  26.475  0.00  0.00    -0.251 OA
ATOM     17  C   UNL     1      -5.446   3.928  25.818  0.00  0.00    +0.305 C 
BRANCH  17   1
ATOM      1  O   UNL     1      -6.487   4.799  25.862  0.00  0.00    -0.481 OA
ATOM     29  H   UNL     1      -7.162   4.596  25.180  0.00  0.00    +0.295 HD
ENDBRANCH  17   1
ENDBRANCH  13  17
ENDBRANCH   8  13
TORSDOF 6
ENDMDL
MODEL 8
REMARK VINA RESULT:      -0.0     18.001     19.936
REMARK  Name = 51136739
REMARK  8 active torsions:
REMARK  status: ('A' for Active; 'I' for Inactive)
REMARK    1  A    between atoms: O_1  and  C_17
REMARK    2  A    between atoms: N_6  and  C_24
REMARK    3  A    between atoms: C_7  and  C_11
REMARK    4  A    between atoms: C_8  and  C_13
REMARK    5  A    between atoms: C_11  and  C_14
REMARK    6  A    between atoms: C_13  and  C_17
REMARK    7  A    between atoms: C_23  and  C_26
REMARK    8  A    between atoms: C_24  and  C_27
REMARK                            x       y       z     vdW  Elec       q    Type
REMARK                         _______ _______ _______ _____ _____    ______ ____
ROOT
ATOM      2  O   UNL     1      -4.414  -2.058  24.129  0.00  0.00    -0.253 OA
ATOM      4  N   UNL     1      -2.395  -1.024  24.610  0.00  0.00    -0.285 N 
ATOM      6  N   UNL     1      -4.438   0.160  24.713  0.00  0.00    -0.300 N 
ATOM      7  C   UNL     1      -0.542   0.467  23.910  0.00  0.00    +0.016 C 
ATOM      8  C   UNL     1       0.302  -0.793  23.581  0.00  0.00    +0.006 C 
ATOM      9  C   UNL     1      -0.587  -2.009  23.263  0.00  0.00    +0.023 C 
ATOM     10  C   UNL     1      -1.571   0.128  25.003  0.00  0.00    +0.113 C 
ATOM     12  C   UNL     1      -1.626  -2.245  24.359  0.00  0.00    +0.109 C 
ATOM     15  C   UNL     1      -3.791  -1.044  24.464  0.00  0.00    +0.302 C 
ATOM     28  H   UNL     1      -3.924   1.005  24.915  0.00  0.00    +0.150 HD
ENDROOT
BRANCH   6  24
ATOM     24  C   UNL     1      -5.872   0.300  24.596  0.00  0.00    +0.102 C 
ATOM     27  C   UNL     1      -6.362   1.565  25.272  0.00  0.00    +0.024 C 
ENDBRANCH   6  24
BRANCH   7  11
ATOM     11  C   UNL     1      -1.238   1.088  22.693  0.00  0.00    +0.061 C 
BRANCH  11  14
ATOM      5  N   UNL     1      -3.057   2.609  22.314  0.00  0.00    -0.287 NA
ATOM     14  C   UNL     1      -2.144   2.210  23.137  0.00  0.00    +0.044 C 
ATOM     16  C   UNL     1      -1.952   2.794  24.490  0.00  0.00    -0.001 A 
ATOM     18  C   UNL     1      -3.017   3.536  25.014  0.00  0.00    -0.037 A 
ATOM     19  C   UNL     1      -4.267   3.680  24.198  0.00  0.00    +0.059 C 
ATOM     20  C   UNL     1      -3.898   3.739  22.721  0.00  0.00    +0.146 C 
ATOM     21  C   UNL     1      -0.781   2.613  25.230  0.00  0.00    +0.013 A 
ATOM     22  C   UNL     1      -2.913   4.077  26.299  0.00  0.00    +0.004 A 
ATOM     23  C   UNL     1      -0.682   3.171  26.505  0.00  0.00    -0.050 A 
ATOM     25  C   UNL     1      -1.745   3.899  27.040  0.00  0.00    +0.003 A 
ATOM     26  C   UNL     1       0.565   2.985  27.302  0.00  0.00    +0.044 C 
ENDBRANCH  11  14
ENDBRANCH   7  11
BRANCH   8  13
ATOM     13  C   UNL     1       1.316  -0.560  22.462  0.00  0.00    +0.124 C 
BRANCH  13  17
ATOM      3  O   UNL     1       3.608  -0.819  23.253  0.00  0.00    -0.251 OA
ATOM     17  C   UNL     1       2.645  -0.109  23.004  0.00  0.00    +0.305 C 
BRANCH  17   1
ATOM      1  O   UNL     1       2.633   1.237  23.184  0.00  0.00    -0.481 OA
ATOM     29  H   UNL     1       3.540   1.605  23.246  0.00  0.00    +0.295 HD
ENDBRANCH  17   1
ENDBRANCH  13  17
ENDBRANCH   8  13
TORSDOF 6
ENDMDL
