MODEL 1
REMARK VINA RESULT:       2.9      0.000      0.000
REMARK  Name = 45783519
REMARK  4 active torsions:
REMARK  status: ('A' for Active; 'I' for Inactive)
REMARK    1  A    between atoms: N_3  and  C_13
REMARK    2  A    between atoms: C_9  and  C_14
REMARK    3  A    between atoms: C_13  and  C_15
REMARK    4  A    between atoms: C_16  and  C_21
REMARK                            x       y       z     vdW  Elec       q    Type
REMARK                         _______ _______ _______ _____ _____    ______ ____
ROOT
ATOM      1  O   UNL     1      -3.365   2.263  22.222  0.00  0.00    -0.336 OA
ATOM      4  N   UNL     1      -2.243   1.661  24.065  0.00  0.00    -0.190 NA
ATOM      6  N   UNL     1      -2.060   1.971  21.805  0.00  0.00    -0.056 NA
ATOM     14  C   UNL     1      -3.387   2.055  23.565  0.00  0.00    +0.245 A 
ATOM     16  C   UNL     1      -1.461   1.624  22.948  0.00  0.00    +0.204 A 
ENDROOT
BRANCH  16  21
ATOM      2  O   UNL     1       6.674  -0.269  23.400  0.00  0.00    -0.377 OA
ATOM      5  N   UNL     1       3.907   0.195  23.239  0.00  0.00    -0.311 N 
ATOM      7  N   UNL     1       2.132   1.610  23.910  0.00  0.00    -0.240 NA
ATOM     19  C   UNL     1       4.732   0.213  22.027  0.00  0.00    +0.134 C 
ATOM     20  C   UNL     1       4.631   0.446  24.494  0.00  0.00    +0.134 C 
ATOM     21  C   UNL     1      -0.080   1.237  23.008  0.00  0.00    +0.041 A 
ATOM     22  C   UNL     1       5.962  -0.666  22.228  0.00  0.00    +0.178 C 
ATOM     23  C   UNL     1       5.865  -0.445  24.563  0.00  0.00    +0.178 C 
ATOM     24  C   UNL     1       2.558   0.561  23.172  0.00  0.00    +0.121 A 
ATOM     25  C   UNL     1       0.396   0.164  22.264  0.00  0.00    +0.016 A 
ATOM     26  C   UNL     1       1.739  -0.188  22.341  0.00  0.00    +0.044 A 
ATOM     29  C   UNL     1       0.820   1.922  23.808  0.00  0.00    +0.124 A 
ENDBRANCH  16  21
BRANCH  14   9
ATOM      3  N   UNL     1      -4.830   1.552  25.530  0.00  0.00    -0.287 NA
ATOM      9  C   UNL     1      -4.707   2.305  24.265  0.00  0.00    +0.146 C 
ATOM     10  C   UNL     1      -4.896   3.779  24.667  0.00  0.00    +0.030 C 
ATOM     11  C   UNL     1      -5.181   3.750  26.162  0.00  0.00    +0.017 C 
ATOM     12  C   UNL     1      -5.698   2.345  26.400  0.00  0.00    +0.085 C 
BRANCH   3  13
ATOM     13  C   UNL     1      -5.330   0.197  25.344  0.00  0.00    +0.120 C 
BRANCH  13  15
ATOM      8  N   UNL     1      -2.147  -2.600  24.605  0.00  0.00    -0.263 NA
ATOM     15  C   UNL     1      -4.216  -0.783  25.085  0.00  0.00    -0.030 A 
ATOM     17  C   UNL     1      -4.315  -1.692  24.039  0.00  0.00    +0.024 A 
ATOM     18  C   UNL     1      -3.083  -0.780  25.892  0.00  0.00    +0.024 A 
ATOM     27  C   UNL     1      -3.263  -2.572  23.842  0.00  0.00    +0.111 A 
ATOM     28  C   UNL     1      -2.086  -1.700  25.613  0.00  0.00    +0.111 A 
ENDBRANCH  13  15
ENDBRANCH   3  13
ENDBRANCH  14   9
TORSDOF 4
ENDMDL
MODEL 2
REMARK VINA RESULT:       5.2      0.574      1.293
REMARK  Name = 45783519
REMARK  4 active torsions:
REMARK  status: ('A' for Active; 'I' for Inactive)
REMARK    1  A    between atoms: N_3  and  C_13
REMARK    2  A    between atoms: C_9  and  C_14
REMARK    3  A    between atoms: C_13  and  C_15
REMARK    4  A    between atoms: C_16  and  C_21
REMARK                            x       y       z     vdW  Elec       q    Type
REMARK                         _______ _______ _______ _____ _____    ______ ____
ROOT
ATOM      1  O   UNL     1      -3.387   1.843  22.217  0.00  0.00    -0.336 OA
ATOM      4  N   UNL     1      -2.172   1.786  24.099  0.00  0.00    -0.190 NA
ATOM      6  N   UNL     1      -2.081   1.521  21.827  0.00  0.00    -0.056 NA
ATOM     14  C   UNL     1      -3.353   1.982  23.569  0.00  0.00    +0.245 A 
ATOM     16  C   UNL     1      -1.425   1.506  22.992  0.00  0.00    +0.204 A 
ENDROOT
BRANCH  16  21
ATOM      2  O   UNL     1       6.668  -0.553  23.474  0.00  0.00    -0.377 OA
ATOM      5  N   UNL     1       3.998   0.307  23.297  0.00  0.00    -0.311 N 
ATOM      7  N   UNL     1       1.824  -0.248  22.543  0.00  0.00    -0.240 NA
ATOM     19  C   UNL     1       4.628   0.114  24.607  0.00  0.00    +0.134 C 
ATOM     20  C   UNL     1       4.613  -0.439  22.190  0.00  0.00    +0.134 C 
ATOM     21  C   UNL     1      -0.023   1.217  23.083  0.00  0.00    +0.041 A 
ATOM     22  C   UNL     1       6.137   0.303  24.485  0.00  0.00    +0.178 C 
ATOM     23  C   UNL     1       6.121  -0.220  22.198  0.00  0.00    +0.178 C 
ATOM     24  C   UNL     1       2.632   0.601  23.216  0.00  0.00    +0.121 A 
ATOM     25  C   UNL     1       0.841   2.066  23.766  0.00  0.00    +0.016 A 
ATOM     26  C   UNL     1       2.195   1.760  23.839  0.00  0.00    +0.044 A 
ATOM     29  C   UNL     1       0.514   0.083  22.495  0.00  0.00    +0.124 A 
ENDBRANCH  16  21
BRANCH  14   9
ATOM      3  N   UNL     1      -4.838   1.644  25.537  0.00  0.00    -0.287 NA
ATOM      9  C   UNL     1      -4.662   2.335  24.245  0.00  0.00    +0.146 C 
ATOM     10  C   UNL     1      -4.770   3.832  24.583  0.00  0.00    +0.030 C 
ATOM     11  C   UNL     1      -5.069   3.881  26.076  0.00  0.00    +0.017 C 
ATOM     12  C   UNL     1      -5.667   2.520  26.365  0.00  0.00    +0.085 C 
BRANCH   3  13
ATOM     13  C   UNL     1      -5.413   0.312  25.402  0.00  0.00    +0.120 C 
BRANCH  13  15
ATOM      8  N   UNL     1      -2.412  -2.653  24.562  0.00  0.00    -0.263 NA
ATOM     15  C   UNL     1      -4.362  -0.726  25.108  0.00  0.00    -0.030 A 
ATOM     17  C   UNL     1      -4.545  -1.628  24.065  0.00  0.00    +0.024 A 
ATOM     18  C   UNL     1      -3.206  -0.786  25.878  0.00  0.00    +0.024 A 
ATOM     27  C   UNL     1      -3.549  -2.563  23.836  0.00  0.00    +0.111 A 
ATOM     28  C   UNL     1      -2.270  -1.759  25.567  0.00  0.00    +0.111 A 
ENDBRANCH  13  15
ENDBRANCH   3  13
ENDBRANCH  14   9
TORSDOF 4
ENDMDL
MODEL 3
REMARK VINA RESULT:       5.3      1.664      3.198
REMARK  Name = 45783519
REMARK  4 active torsions:
REMARK  status: ('A' for Active; 'I' for Inactive)
REMARK    1  A    between atoms: N_3  and  C_13
REMARK    2  A    between atoms: C_9  and  C_14
REMARK    3  A    between atoms: C_13  and  C_15
REMARK    4  A    between atoms: C_16  and  C_21
REMARK                            x       y       z     vdW  Elec       q    Type
REMARK                         _______ _______ _______ _____ _____    ______ ____
ROOT
ATOM      1  O   UNL     1      -3.478   1.597  23.043  0.00  0.00    -0.336 OA
ATOM      4  N   UNL     1      -2.092   1.093  24.729  0.00  0.00    -0.190 NA
ATOM      6  N   UNL     1      -2.217   1.404  22.465  0.00  0.00    -0.056 NA
ATOM     14  C   UNL     1      -3.315   1.395  24.378  0.00  0.00    +0.245 A 
ATOM     16  C   UNL     1      -1.454   1.110  23.522  0.00  0.00    +0.204 A 
ENDROOT
BRANCH  16  21
ATOM      2  O   UNL     1       6.794  -0.144  22.925  0.00  0.00    -0.377 OA
ATOM      5  N   UNL     1       4.002   0.103  23.130  0.00  0.00    -0.311 N 
ATOM      7  N   UNL     1       2.225   1.417  23.976  0.00  0.00    -0.240 NA
ATOM     19  C   UNL     1       4.652   0.115  21.815  0.00  0.00    +0.134 C 
ATOM     20  C   UNL     1       4.866   0.476  24.259  0.00  0.00    +0.134 C 
ATOM     21  C   UNL     1      -0.052   0.831  23.408  0.00  0.00    +0.041 A 
ATOM     22  C   UNL     1       5.965  -0.657  21.883  0.00  0.00    +0.178 C 
ATOM     23  C   UNL     1       6.166  -0.315  24.196  0.00  0.00    +0.178 C 
ATOM     24  C   UNL     1       2.631   0.363  23.233  0.00  0.00    +0.121 A 
ATOM     25  C   UNL     1       0.406  -0.243  22.653  0.00  0.00    +0.016 A 
ATOM     26  C   UNL     1       1.771  -0.489  22.559  0.00  0.00    +0.044 A 
ATOM     29  C   UNL     1       0.890   1.624  24.043  0.00  0.00    +0.124 A 
ENDBRANCH  16  21
BRANCH  14   9
ATOM      3  N   UNL     1      -5.053   2.935  25.274  0.00  0.00    -0.287 NA
ATOM      9  C   UNL     1      -4.552   1.547  25.239  0.00  0.00    +0.146 C 
ATOM     10  C   UNL     1      -5.740   0.715  24.723  0.00  0.00    +0.030 C 
ATOM     11  C   UNL     1      -6.880   1.711  24.555  0.00  0.00    +0.017 C 
ATOM     12  C   UNL     1      -6.499   2.848  25.481  0.00  0.00    +0.085 C 
BRANCH   3  13
ATOM     13  C   UNL     1      -4.402   3.755  26.288  0.00  0.00    +0.120 C 
BRANCH  13  15
ATOM      8  N   UNL     1      -0.351   4.719  25.213  0.00  0.00    -0.263 NA
ATOM     15  C   UNL     1      -2.984   4.092  25.911  0.00  0.00    -0.030 A 
ATOM     17  C   UNL     1      -2.729   5.086  24.973  0.00  0.00    +0.024 A 
ATOM     18  C   UNL     1      -1.924   3.412  26.502  0.00  0.00    +0.024 A 
ATOM     27  C   UNL     1      -1.407   5.358  24.660  0.00  0.00    +0.111 A 
ATOM     28  C   UNL     1      -0.638   3.760  26.121  0.00  0.00    +0.111 A 
ENDBRANCH  13  15
ENDBRANCH   3  13
ENDBRANCH  14   9
TORSDOF 4
ENDMDL
