MODEL 1
REMARK VINA RESULT:      14.6      0.000      0.000
REMARK  Name = 7664141
REMARK  5 active torsions:
REMARK  status: ('A' for Active; 'I' for Inactive)
REMARK    1  A    between atoms: N_8  and  C_22
REMARK    2  A    between atoms: N_9  and  C_20
REMARK    3  A    between atoms: C_23  and  C_26
REMARK    4  A    between atoms: C_29  and  C_31
REMARK    5  A    between atoms: C_31  and  C_34
REMARK                            x       y       z     vdW  Elec       q    Type
REMARK                         _______ _______ _______ _____ _____    ______ ____
ROOT
ATOM      1  O   UNL     1       0.263   2.396  26.448  0.00  0.00    -0.266 OA
ATOM      2  O   UNL     1      -4.514   0.289  26.619  0.00  0.00    -0.252 OA
ATOM      6  N   UNL     1      -4.650   2.294  25.473  0.00  0.00    -0.284 N 
ATOM      7  N   UNL     1      -1.621   3.293  25.397  0.00  0.00    -0.310 N 
ATOM      8  N   UNL     1      -4.585   0.246  24.303  0.00  0.00    -0.269 N 
ATOM     10  C   UNL     1      -3.623   4.217  26.695  0.00  0.00    +0.027 C 
ATOM     11  C   UNL     1      -3.660   4.217  24.238  0.00  0.00    +0.054 C 
ATOM     12  C   UNL     1      -3.836   5.099  25.471  0.00  0.00    +0.018 C 
ATOM     13  C   UNL     1      -4.650   3.072  26.714  0.00  0.00    +0.114 C 
ATOM     14  C   UNL     1      -2.180   3.698  26.692  0.00  0.00    +0.130 C 
ATOM     15  C   UNL     1      -4.723   3.098  24.239  0.00  0.00    +0.119 C 
ATOM     16  C   UNL     1      -2.272   3.602  24.198  0.00  0.00    +0.027 A 
ATOM     17  C   UNL     1      -1.688   3.325  23.021  0.00  0.00    +0.024 A 
ATOM     18  C   UNL     1      -0.355   2.673  25.419  0.00  0.00    +0.273 A 
ATOM     19  C   UNL     1      -4.572   0.885  25.541  0.00  0.00    +0.306 C 
ATOM     20  C   UNL     1       0.249   2.358  24.086  0.00  0.00    +0.099 A 
ATOM     21  C   UNL     1      -0.401   2.689  22.967  0.00  0.00    +0.030 A 
ATOM     35  H   UNL     1      -5.057   0.703  23.531  0.00  0.00    +0.156 HD
ENDROOT
BRANCH   8  22
ATOM     22  C   UNL     1      -4.049  -1.028  23.990  0.00  0.00    +0.035 A 
ATOM     24  C   UNL     1      -2.693  -1.275  24.188  0.00  0.00    +0.024 A 
ATOM     25  C   UNL     1      -4.880  -2.025  23.489  0.00  0.00    +0.024 A 
ATOM     27  C   UNL     1      -2.165  -2.529  23.881  0.00  0.00    +0.013 A 
ATOM     28  C   UNL     1      -4.353  -3.279  23.183  0.00  0.00    +0.013 A 
ATOM     29  C   UNL     1      -2.994  -3.532  23.380  0.00  0.00    +0.017 A 
BRANCH  29  31
ATOM      5  O   UNL     1      -3.157  -5.862  23.055  0.00  0.00    -0.292 OA
ATOM     31  C   UNL     1      -2.444  -4.839  23.060  0.00  0.00    +0.160 C 
ATOM     34  C   UNL     1      -0.965  -4.987  22.719  0.00  0.00    +0.091 C 
ENDBRANCH  29  31
ENDBRANCH   8  22
BRANCH  20   9
ATOM      3  O   UNL     1       0.995   0.149  22.439  0.00  0.00    -0.266 OA
ATOM      9  N   UNL     1       1.467   1.744  24.065  0.00  0.00    -0.275 N 
ATOM     23  C   UNL     1       1.769   0.670  23.238  0.00  0.00    +0.284 C 
ATOM     36  H   UNL     1       2.114   1.967  24.818  0.00  0.00    +0.155 HD
BRANCH  23  26
ATOM      4  O   UNL     1       3.261  -1.126  23.716  0.00  0.00    -0.458 OA
ATOM     26  C   UNL     1       3.156   0.147  23.340  0.00  0.00    +0.189 A 
ATOM     30  C   UNL     1       4.315   0.765  23.112  0.00  0.00    +0.054 A 
ATOM     32  C   UNL     1       5.292  -0.227  23.370  0.00  0.00    +0.042 A 
ATOM     33  C   UNL     1       4.600  -1.358  23.734  0.00  0.00    +0.196 A 
ENDBRANCH  23  26
ENDBRANCH  20   9
TORSDOF 4
ENDMDL
