MODEL 1
REMARK VINA RESULT:      -6.3      0.000      0.000
REMARK  Name = 38028609
REMARK  13 active torsions:
REMARK  status: ('A' for Active; 'I' for Inactive)
REMARK    1  A    between atoms: S_1  and  N_5
REMARK    2  A    between atoms: S_1  and  C_20
REMARK    3  A    between atoms: N_5  and  C_14
REMARK    4  A    between atoms: N_6  and  C_21
REMARK    5  A    between atoms: C_7  and  C_11
REMARK    6  A    between atoms: C_8  and  C_14
REMARK    7  A    between atoms: C_10  and  C_15
REMARK    8  A    between atoms: C_11  and  C_16
REMARK    9  A    between atoms: C_11  and  C_17
REMARK   10  A    between atoms: C_12  and  C_18
REMARK   11  A    between atoms: C_15  and  C_19
REMARK   12  A    between atoms: C_21  and  C_27
REMARK   13  A    between atoms: C_26  and  C_28
REMARK                            x       y       z     vdW  Elec       q    Type
REMARK                         _______ _______ _______ _____ _____    ______ ____
ROOT
ATOM      7  C   UNL     1      -2.102  -1.381  24.220  0.00  0.00    +0.000 C 
ATOM      8  C   UNL     1      -2.749  -0.286  25.104  0.00  0.00    +0.030 C 
ATOM      9  C   UNL     1      -0.595  -1.478  24.503  0.00  0.00    +0.012 C 
ATOM     10  C   UNL     1       0.134  -0.146  24.243  0.00  0.00    +0.023 C 
ATOM     12  C   UNL     1      -0.597   1.027  24.864  0.00  0.00    -0.073 C 
ATOM     13  C   UNL     1      -1.881   0.942  25.254  0.00  0.00    -0.023 C 
ATOM     18  C   UNL     1       0.196   2.288  25.068  0.00  0.00    +0.039 C 
ENDROOT
BRANCH   7  11
ATOM     11  C   UNL     1      -2.759  -2.747  24.435  0.00  0.00    -0.013 C 
ATOM     16  C   UNL     1      -3.080  -2.958  25.912  0.00  0.00    +0.007 C 
ATOM     17  C   UNL     1      -4.020  -2.871  23.585  0.00  0.00    +0.007 C 
ENDBRANCH   7  11
BRANCH   8  14
ATOM     14  C   UNL     1      -4.123   0.124  24.561  0.00  0.00    +0.113 C 
BRANCH  14   5
ATOM      5  N   UNL     1      -4.987   0.515  25.685  0.00  0.00    -0.189 NA
ATOM     30  H   UNL     1      -5.441  -0.244  26.208  0.00  0.00    +0.148 HD
BRANCH   5   1
ATOM      1  S   UNL     1      -5.741   2.043  25.695  0.00  0.00    +0.058 S 
ATOM      3  O   UNL     1      -6.264   2.310  27.021  0.00  0.00    -0.153 OA
ATOM      4  O   UNL     1      -6.602   2.155  24.534  0.00  0.00    -0.153 OA
BRANCH   1  20
ATOM     20  C   UNL     1      -4.367   3.123  25.425  0.00  0.00    +0.105 A 
ATOM     22  C   UNL     1      -3.994   3.464  24.124  0.00  0.00    +0.029 A 
ATOM     23  C   UNL     1      -3.656   3.635  26.511  0.00  0.00    +0.029 A 
ATOM     24  C   UNL     1      -2.911   4.316  23.910  0.00  0.00    +0.005 A 
ATOM     25  C   UNL     1      -2.573   4.486  26.297  0.00  0.00    +0.005 A 
ATOM     26  C   UNL     1      -2.200   4.826  24.997  0.00  0.00    -0.050 A 
ATOM     28  C   UNL     1      -1.041   5.738  24.767  0.00  0.00    +0.044 C 
ENDBRANCH   1  20
ENDBRANCH   5   1
ENDBRANCH  14   5
ENDBRANCH   8  14
BRANCH  10  15
ATOM     15  C   UNL     1       0.357   0.078  22.743  0.00  0.00    +0.103 C 
BRANCH  15  19
ATOM      2  O   UNL     1       2.293  -0.731  21.539  0.00  0.00    -0.276 OA
ATOM      6  N   UNL     1       2.544   0.972  23.101  0.00  0.00    -0.304 N 
ATOM     19  C   UNL     1       1.822   0.037  22.374  0.00  0.00    +0.214 C 
ATOM     31  H   UNL     1       2.070   1.562  23.778  0.00  0.00    +0.150 HD
BRANCH   6  21
ATOM     21  C   UNL     1       3.970   1.153  22.956  0.00  0.00    +0.193 C 
BRANCH  21  27
ATOM     27  C   UNL     1       4.709   0.068  23.600  0.00  0.00    -0.087 C 
ATOM     29  C   UNL     1       5.318  -0.821  24.129  0.00  0.00    +0.005 C 
ENDBRANCH  21  27
ENDBRANCH   6  21
ENDBRANCH  15  19
ENDBRANCH  10  15
TORSDOF 9
ENDMDL
MODEL 2
REMARK VINA RESULT:      -4.0      1.509      4.774
REMARK  Name = 38028609
REMARK  13 active torsions:
REMARK  status: ('A' for Active; 'I' for Inactive)
REMARK    1  A    between atoms: S_1  and  N_5
REMARK    2  A    between atoms: S_1  and  C_20
REMARK    3  A    between atoms: N_5  and  C_14
REMARK    4  A    between atoms: N_6  and  C_21
REMARK    5  A    between atoms: C_7  and  C_11
REMARK    6  A    between atoms: C_8  and  C_14
REMARK    7  A    between atoms: C_10  and  C_15
REMARK    8  A    between atoms: C_11  and  C_16
REMARK    9  A    between atoms: C_11  and  C_17
REMARK   10  A    between atoms: C_12  and  C_18
REMARK   11  A    between atoms: C_15  and  C_19
REMARK   12  A    between atoms: C_21  and  C_27
REMARK   13  A    between atoms: C_26  and  C_28
REMARK                            x       y       z     vdW  Elec       q    Type
REMARK                         _______ _______ _______ _____ _____    ______ ____
ROOT
ATOM      7  C   UNL     1      -2.147   3.657  24.993  0.00  0.00    +0.000 C 
ATOM      8  C   UNL     1      -3.327   3.861  24.011  0.00  0.00    +0.030 C 
ATOM      9  C   UNL     1      -0.881   3.233  24.232  0.00  0.00    +0.012 C 
ATOM     10  C   UNL     1      -1.089   1.928  23.440  0.00  0.00    +0.023 C 
ATOM     12  C   UNL     1      -2.380   1.948  22.648  0.00  0.00    -0.073 C 
ATOM     13  C   UNL     1      -3.364   2.827  22.909  0.00  0.00    -0.023 C 
ATOM     18  C   UNL     1      -2.498   0.963  21.518  0.00  0.00    +0.039 C 
ENDROOT
BRANCH   7  11
ATOM     11  C   UNL     1      -1.862   4.921  25.809  0.00  0.00    -0.013 C 
ATOM     16  C   UNL     1      -1.283   6.014  24.914  0.00  0.00    +0.007 C 
ATOM     17  C   UNL     1      -3.132   5.407  26.500  0.00  0.00    +0.007 C 
ENDBRANCH   7  11
BRANCH   8  14
ATOM     14  C   UNL     1      -4.669   3.865  24.751  0.00  0.00    +0.113 C 
BRANCH  14   5
ATOM      5  N   UNL     1      -4.677   2.776  25.739  0.00  0.00    -0.189 NA
ATOM     30  H   UNL     1      -3.784   2.560  26.199  0.00  0.00    +0.148 HD
BRANCH   5   1
ATOM      1  S   UNL     1      -5.833   1.529  25.632  0.00  0.00    +0.058 S 
ATOM      3  O   UNL     1      -6.693   1.769  24.489  0.00  0.00    -0.153 OA
ATOM      4  O   UNL     1      -6.409   1.302  26.944  0.00  0.00    -0.153 OA
BRANCH   1  20
ATOM     20  C   UNL     1      -4.818   0.129  25.265  0.00  0.00    +0.105 A 
ATOM     22  C   UNL     1      -4.888  -0.472  24.008  0.00  0.00    +0.029 A 
ATOM     23  C   UNL     1      -3.948  -0.376  26.231  0.00  0.00    +0.029 A 
ATOM     24  C   UNL     1      -4.088  -1.577  23.717  0.00  0.00    +0.005 A 
ATOM     25  C   UNL     1      -3.148  -1.480  25.941  0.00  0.00    +0.005 A 
ATOM     26  C   UNL     1      -3.219  -2.082  24.684  0.00  0.00    -0.050 A 
ATOM     28  C   UNL     1      -2.362  -3.263  24.373  0.00  0.00    +0.044 C 
ENDBRANCH   1  20
ENDBRANCH   5   1
ENDBRANCH  14   5
ENDBRANCH   8  14
BRANCH  10  15
ATOM     15  C   UNL     1      -1.031   0.706  24.364  0.00  0.00    +0.103 C 
BRANCH  15  19
ATOM      2  O   UNL     1       0.256  -1.338  24.510  0.00  0.00    -0.276 OA
ATOM      6  N   UNL     1       0.875   0.298  22.980  0.00  0.00    -0.304 N 
ATOM     19  C   UNL     1       0.086  -0.241  23.985  0.00  0.00    +0.214 C 
ATOM     31  H   UNL     1       0.662   1.219  22.609  0.00  0.00    +0.150 HD
BRANCH   6  21
ATOM     21  C   UNL     1       2.018  -0.387  22.422  0.00  0.00    +0.193 C 
BRANCH  21  27
ATOM     27  C   UNL     1       3.254   0.351  22.680  0.00  0.00    -0.087 C 
ATOM     29  C   UNL     1       4.270   0.954  22.893  0.00  0.00    +0.005 C 
ENDBRANCH  21  27
ENDBRANCH   6  21
ENDBRANCH  15  19
ENDBRANCH  10  15
TORSDOF 9
ENDMDL
MODEL 3
REMARK VINA RESULT:      -3.7      2.081      6.884
REMARK  Name = 38028609
REMARK  13 active torsions:
REMARK  status: ('A' for Active; 'I' for Inactive)
REMARK    1  A    between atoms: S_1  and  N_5
REMARK    2  A    between atoms: S_1  and  C_20
REMARK    3  A    between atoms: N_5  and  C_14
REMARK    4  A    between atoms: N_6  and  C_21
REMARK    5  A    between atoms: C_7  and  C_11
REMARK    6  A    between atoms: C_8  and  C_14
REMARK    7  A    between atoms: C_10  and  C_15
REMARK    8  A    between atoms: C_11  and  C_16
REMARK    9  A    between atoms: C_11  and  C_17
REMARK   10  A    between atoms: C_12  and  C_18
REMARK   11  A    between atoms: C_15  and  C_19
REMARK   12  A    between atoms: C_21  and  C_27
REMARK   13  A    between atoms: C_26  and  C_28
REMARK                            x       y       z     vdW  Elec       q    Type
REMARK                         _______ _______ _______ _____ _____    ______ ____
ROOT
ATOM      7  C   UNL     1      -3.007  -0.007  25.092  0.00  0.00    +0.000 C 
ATOM      8  C   UNL     1      -1.958   0.716  24.211  0.00  0.00    +0.030 C 
ATOM      9  C   UNL     1      -4.386   0.017  24.415  0.00  0.00    +0.012 C 
ATOM     10  C   UNL     1      -4.878   1.452  24.148  0.00  0.00    +0.023 C 
ATOM     12  C   UNL     1      -3.800   2.310  23.518  0.00  0.00    -0.073 C 
ATOM     13  C   UNL     1      -2.502   1.959  23.545  0.00  0.00    -0.023 C 
ATOM     18  C   UNL     1      -4.253   3.561  22.817  0.00  0.00    +0.039 C 
ENDROOT
BRANCH   7  11
ATOM     11  C   UNL     1      -2.600  -1.453  25.389  0.00  0.00    -0.013 C 
ATOM     16  C   UNL     1      -2.953  -1.822  26.827  0.00  0.00    +0.007 C 
ATOM     17  C   UNL     1      -3.270  -2.407  24.406  0.00  0.00    +0.007 C 
ENDBRANCH   7  11
BRANCH   8  14
ATOM     14  C   UNL     1      -0.708   1.078  25.022  0.00  0.00    +0.113 C 
BRANCH  14   5
ATOM      5  N   UNL     1       0.457   1.100  24.125  0.00  0.00    -0.189 NA
ATOM     30  H   UNL     1       0.738   2.015  23.751  0.00  0.00    +0.148 HD
BRANCH   5   1
ATOM      1  S   UNL     1       0.868  -0.283  23.219  0.00  0.00    +0.058 S 
ATOM      3  O   UNL     1       0.464  -0.090  21.839  0.00  0.00    -0.153 OA
ATOM      4  O   UNL     1       0.448  -1.467  23.943  0.00  0.00    -0.153 OA
BRANCH   1  20
ATOM     20  C   UNL     1       2.634  -0.240  23.279  0.00  0.00    +0.105 A 
ATOM     22  C   UNL     1       3.319   0.901  22.859  0.00  0.00    +0.029 A 
ATOM     23  C   UNL     1       3.344  -1.346  23.747  0.00  0.00    +0.029 A 
ATOM     24  C   UNL     1       4.712   0.936  22.907  0.00  0.00    +0.005 A 
ATOM     25  C   UNL     1       4.737  -1.312  23.794  0.00  0.00    +0.005 A 
ATOM     26  C   UNL     1       5.422  -0.172  23.373  0.00  0.00    -0.050 A 
ATOM     28  C   UNL     1       6.912  -0.134  23.425  0.00  0.00    +0.044 C 
ENDBRANCH   1  20
ENDBRANCH   5   1
ENDBRANCH  14   5
ENDBRANCH   8  14
BRANCH  10  15
ATOM     15  C   UNL     1      -5.416   2.099  25.430  0.00  0.00    +0.103 C 
BRANCH  15  19
ATOM      2  O   UNL     1      -5.515   4.516  25.402  0.00  0.00    -0.276 OA
ATOM      6  N   UNL     1      -3.570   3.458  26.106  0.00  0.00    -0.304 N 
ATOM     19  C   UNL     1      -4.873   3.495  25.633  0.00  0.00    +0.214 C 
ATOM     31  H   UNL     1      -3.114   2.564  26.261  0.00  0.00    +0.150 HD
BRANCH   6  21
ATOM     21  C   UNL     1      -2.798   4.646  26.388  0.00  0.00    +0.193 C 
BRANCH  21  27
ATOM     27  C   UNL     1      -1.689   4.792  25.445  0.00  0.00    -0.087 C 
ATOM     29  C   UNL     1      -0.780   4.910  24.670  0.00  0.00    +0.005 C 
ENDBRANCH  21  27
ENDBRANCH   6  21
ENDBRANCH  15  19
ENDBRANCH  10  15
TORSDOF 9
ENDMDL
