MODEL 1
REMARK VINA RESULT:      -4.1      0.000      0.000
REMARK  Name = 25314954
REMARK  5 active torsions:
REMARK  status: ('A' for Active; 'I' for Inactive)
REMARK    1  A    between atoms: O_3  and  C_10
REMARK    2  A    between atoms: N_6  and  C_9
REMARK    3  A    between atoms: N_7  and  C_11
REMARK    4  A    between atoms: N_8  and  C_20
REMARK    5  A    between atoms: C_20  and  C_21
REMARK                            x       y       z     vdW  Elec       q    Type
REMARK                         _______ _______ _______ _____ _____    ______ ____
ROOT
ATOM      1  O   UNL     1      -2.602  -0.424  23.568  0.00  0.00    -0.342 OA
ATOM      2  O   UNL     1      -3.389  -1.478  25.479  0.00  0.00    -0.347 OA
ATOM      9  C   UNL     1      -2.281   0.661  25.698  0.00  0.00    +0.144 C 
ATOM     10  C   UNL     1      -0.915  -0.041  25.872  0.00  0.00    +0.159 C 
ATOM     11  C   UNL     1      -0.490  -0.873  24.642  0.00  0.00    +0.136 C 
ATOM     12  C   UNL     1      -1.685  -1.478  23.875  0.00  0.00    +0.170 C 
ATOM     13  C   UNL     1      -3.226  -0.201  24.840  0.00  0.00    +0.270 C 
ATOM     14  C   UNL     1      -2.569  -2.378  24.717  0.00  0.00    +0.196 C 
ENDROOT
BRANCH   9   6
ATOM      4  O   UNL     1      -2.032   4.813  25.142  0.00  0.00    -0.377 OA
ATOM      6  N   UNL     1      -2.098   1.969  25.071  0.00  0.00    -0.288 NA
ATOM     15  C   UNL     1      -0.985   2.696  25.698  0.00  0.00    +0.113 C 
ATOM     16  C   UNL     1      -3.331   2.764  25.156  0.00  0.00    +0.113 C 
ATOM     17  C   UNL     1      -0.822   4.062  25.036  0.00  0.00    +0.175 C 
ATOM     18  C   UNL     1      -3.112   4.128  24.507  0.00  0.00    +0.175 C 
ENDBRANCH   9   6
BRANCH  11   7
ATOM      5  O   UNL     1       2.235  -1.356  23.827  0.00  0.00    -0.253 OA
ATOM      7  N   UNL     1       0.308  -0.064  23.745  0.00  0.00    -0.291 N 
ATOM      8  N   UNL     1       2.151   0.567  22.531  0.00  0.00    -0.296 N 
ATOM     19  C   UNL     1       1.621  -0.376  23.408  0.00  0.00    +0.300 C 
ATOM     23  H   UNL     1      -0.083   0.809  23.407  0.00  0.00    +0.151 HD
ATOM     25  H   UNL     1       1.560   1.332  22.221  0.00  0.00    +0.151 HD
BRANCH   8  20
ATOM     20  C   UNL     1       3.499   0.487  22.018  0.00  0.00    +0.132 C 
BRANCH  20  21
ATOM     21  C   UNL     1       4.458   0.818  23.113  0.00  0.00    -0.016 C 
ATOM     22  C   UNL     1       5.458   0.016  23.495  0.00  0.00    +0.005 C 
ENDBRANCH  20  21
ENDBRANCH   8  20
ENDBRANCH  11   7
BRANCH  10   3
ATOM      3  O   UNL     1      -1.013  -0.913  27.006  0.00  0.00    -0.388 OA
ATOM     24  H   UNL     1      -0.352  -1.617  26.893  0.00  0.00    +0.210 HD
ENDBRANCH  10   3
TORSDOF 5
ENDMDL
MODEL 2
REMARK VINA RESULT:      -3.8      2.957      5.277
REMARK  Name = 25314954
REMARK  5 active torsions:
REMARK  status: ('A' for Active; 'I' for Inactive)
REMARK    1  A    between atoms: O_3  and  C_10
REMARK    2  A    between atoms: N_6  and  C_9
REMARK    3  A    between atoms: N_7  and  C_11
REMARK    4  A    between atoms: N_8  and  C_20
REMARK    5  A    between atoms: C_20  and  C_21
REMARK                            x       y       z     vdW  Elec       q    Type
REMARK                         _______ _______ _______ _____ _____    ______ ____
ROOT
ATOM      1  O   UNL     1      -1.487   3.351  26.548  0.00  0.00    -0.342 OA
ATOM      2  O   UNL     1      -1.003   5.008  24.999  0.00  0.00    -0.347 OA
ATOM      9  C   UNL     1      -2.796   3.455  24.527  0.00  0.00    +0.144 C 
ATOM     10  C   UNL     1      -1.811   2.500  23.815  0.00  0.00    +0.159 C 
ATOM     11  C   UNL     1      -0.705   1.955  24.745  0.00  0.00    +0.136 C 
ATOM     12  C   UNL     1      -0.302   2.947  25.857  0.00  0.00    +0.170 C 
ATOM     13  C   UNL     1      -2.071   4.269  25.614  0.00  0.00    +0.270 C 
ATOM     14  C   UNL     1       0.190   4.287  25.344  0.00  0.00    +0.196 C 
ENDROOT
BRANCH   9   6
ATOM      4  O   UNL     1      -6.554   1.689  25.140  0.00  0.00    -0.377 OA
ATOM      6  N   UNL     1      -3.891   2.694  25.125  0.00  0.00    -0.288 NA
ATOM     15  C   UNL     1      -4.300   1.590  24.246  0.00  0.00    +0.113 C 
ATOM     16  C   UNL     1      -5.039   3.566  25.408  0.00  0.00    +0.113 C 
ATOM     17  C   UNL     1      -5.452   0.818  24.886  0.00  0.00    +0.175 C 
ATOM     18  C   UNL     1      -6.173   2.747  26.021  0.00  0.00    +0.175 C 
ENDBRANCH   9   6
BRANCH  11   7
ATOM      5  O   UNL     1      -1.047  -0.572  23.395  0.00  0.00    -0.253 OA
ATOM      7  N   UNL     1      -1.122   0.701  25.335  0.00  0.00    -0.291 N 
ATOM      8  N   UNL     1      -1.673  -1.526  25.415  0.00  0.00    -0.296 N 
ATOM     19  C   UNL     1      -1.260  -0.473  24.602  0.00  0.00    +0.300 C 
ATOM     23  H   UNL     1      -1.398   0.697  26.312  0.00  0.00    +0.151 HD
ATOM     25  H   UNL     1      -1.804  -1.354  26.408  0.00  0.00    +0.151 HD
BRANCH   8  20
ATOM     20  C   UNL     1      -1.896  -2.861  24.913  0.00  0.00    +0.132 C 
BRANCH  20  21
ATOM     21  C   UNL     1      -3.361  -3.072  24.719  0.00  0.00    -0.016 C 
ATOM     22  C   UNL     1      -4.119  -2.332  23.902  0.00  0.00    +0.005 C 
ENDBRANCH  20  21
ENDBRANCH   8  20
ENDBRANCH  11   7
BRANCH  10   3
ATOM      3  O   UNL     1      -1.195   3.227  22.743  0.00  0.00    -0.388 OA
ATOM     24  H   UNL     1      -1.183   2.645  21.964  0.00  0.00    +0.210 HD
ENDBRANCH  10   3
TORSDOF 5
ENDMDL
MODEL 3
REMARK VINA RESULT:      -3.5      3.180      5.272
REMARK  Name = 25314954
REMARK  5 active torsions:
REMARK  status: ('A' for Active; 'I' for Inactive)
REMARK    1  A    between atoms: O_3  and  C_10
REMARK    2  A    between atoms: N_6  and  C_9
REMARK    3  A    between atoms: N_7  and  C_11
REMARK    4  A    between atoms: N_8  and  C_20
REMARK    5  A    between atoms: C_20  and  C_21
REMARK                            x       y       z     vdW  Elec       q    Type
REMARK                         _______ _______ _______ _____ _____    ______ ____
ROOT
ATOM      1  O   UNL     1      -4.058   1.967  25.651  0.00  0.00    -0.342 OA
ATOM      2  O   UNL     1      -5.023   2.587  23.635  0.00  0.00    -0.347 OA
ATOM      9  C   UNL     1      -3.527   0.687  23.678  0.00  0.00    +0.144 C 
ATOM     10  C   UNL     1      -2.318   1.604  23.384  0.00  0.00    +0.159 C 
ATOM     11  C   UNL     1      -2.065   2.659  24.484  0.00  0.00    +0.136 C 
ATOM     12  C   UNL     1      -3.357   3.125  25.188  0.00  0.00    +0.170 C 
ATOM     13  C   UNL     1      -4.622   1.462  24.434  0.00  0.00    +0.270 C 
ATOM     14  C   UNL     1      -4.392   3.720  24.253  0.00  0.00    +0.196 C 
ENDROOT
BRANCH   9   6
ATOM      4  O   UNL     1      -2.052  -3.100  24.727  0.00  0.00    -0.377 OA
ATOM      6  N   UNL     1      -3.102  -0.467  24.468  0.00  0.00    -0.288 NA
ATOM     15  C   UNL     1      -1.676  -0.750  24.253  0.00  0.00    +0.113 C 
ATOM     16  C   UNL     1      -3.907  -1.650  24.136  0.00  0.00    +0.113 C 
ATOM     17  C   UNL     1      -1.259  -1.965  25.078  0.00  0.00    +0.175 C 
ATOM     18  C   UNL     1      -3.437  -2.844  24.964  0.00  0.00    +0.175 C 
ENDBRANCH   9   6
BRANCH  11   7
ATOM      5  O   UNL     1      -0.015   4.136  25.877  0.00  0.00    -0.253 OA
ATOM      7  N   UNL     1      -1.132   2.143  25.463  0.00  0.00    -0.291 N 
ATOM      8  N   UNL     1       0.590   2.187  26.981  0.00  0.00    -0.296 N 
ATOM     19  C   UNL     1      -0.173   2.934  26.086  0.00  0.00    +0.300 C 
ATOM     23  H   UNL     1      -1.129   1.145  25.647  0.00  0.00    +0.151 HD
ATOM     25  H   UNL     1       0.372   1.202  27.104  0.00  0.00    +0.151 HD
BRANCH   8  20
ATOM     20  C   UNL     1       1.659   2.758  27.764  0.00  0.00    +0.132 C 
BRANCH  20  21
ATOM     21  C   UNL     1       1.309   2.661  29.212  0.00  0.00    -0.016 C 
ATOM     22  C   UNL     1       1.998   1.933  30.098  0.00  0.00    +0.005 C 
ENDBRANCH  20  21
ENDBRANCH   8  20
ENDBRANCH  11   7
BRANCH  10   3
ATOM      3  O   UNL     1      -2.575   2.282  22.147  0.00  0.00    -0.388 OA
ATOM     24  H   UNL     1      -2.270   3.200  22.246  0.00  0.00    +0.210 HD
ENDBRANCH  10   3
TORSDOF 5
ENDMDL
MODEL 4
REMARK VINA RESULT:      -3.4      1.917      4.248
REMARK  Name = 25314954
REMARK  5 active torsions:
REMARK  status: ('A' for Active; 'I' for Inactive)
REMARK    1  A    between atoms: O_3  and  C_10
REMARK    2  A    between atoms: N_6  and  C_9
REMARK    3  A    between atoms: N_7  and  C_11
REMARK    4  A    between atoms: N_8  and  C_20
REMARK    5  A    between atoms: C_20  and  C_21
REMARK                            x       y       z     vdW  Elec       q    Type
REMARK                         _______ _______ _______ _____ _____    ______ ____
ROOT
ATOM      1  O   UNL     1      -1.636   1.522  25.570  0.00  0.00    -0.342 OA
ATOM      2  O   UNL     1      -3.334   3.101  25.586  0.00  0.00    -0.347 OA
ATOM      9  C   UNL     1      -3.567   1.150  24.175  0.00  0.00    +0.144 C 
ATOM     10  C   UNL     1      -2.887   1.891  23.002  0.00  0.00    +0.159 C 
ATOM     11  C   UNL     1      -1.431   2.309  23.301  0.00  0.00    +0.136 C 
ATOM     12  C   UNL     1      -1.184   2.632  24.790  0.00  0.00    +0.170 C 
ATOM     13  C   UNL     1      -3.059   1.692  25.524  0.00  0.00    +0.270 C 
ATOM     14  C   UNL     1      -2.069   3.735  25.340  0.00  0.00    +0.196 C 
ENDROOT
BRANCH   9   6
ATOM      4  O   UNL     1      -3.494  -2.952  25.059  0.00  0.00    -0.377 OA
ATOM      6  N   UNL     1      -3.301  -0.284  24.086  0.00  0.00    -0.288 NA
ATOM     15  C   UNL     1      -4.557  -1.043  24.004  0.00  0.00    +0.113 C 
ATOM     16  C   UNL     1      -2.510  -0.740  25.238  0.00  0.00    +0.113 C 
ATOM     17  C   UNL     1      -4.254  -2.538  23.924  0.00  0.00    +0.175 C 
ATOM     18  C   UNL     1      -2.256  -2.242  25.129  0.00  0.00    +0.175 C 
ENDBRANCH   9   6
BRANCH  11   7
ATOM      5  O   UNL     1       1.191   1.749  24.367  0.00  0.00    -0.253 OA
ATOM      7  N   UNL     1      -0.516   1.276  22.866  0.00  0.00    -0.291 N 
ATOM      8  N   UNL     1       1.406   0.020  22.834  0.00  0.00    -0.296 N 
ATOM     19  C   UNL     1       0.735   1.079  23.442  0.00  0.00    +0.300 C 
ATOM     23  H   UNL     1      -0.767   0.719  22.055  0.00  0.00    +0.151 HD
ATOM     25  H   UNL     1       0.940  -0.491  22.090  0.00  0.00    +0.151 HD
BRANCH   8  20
ATOM     20  C   UNL     1       2.727  -0.402  23.236  0.00  0.00    +0.132 C 
BRANCH  20  21
ATOM     21  C   UNL     1       3.726   0.599  22.759  0.00  0.00    -0.016 C 
ATOM     22  C   UNL     1       4.987   0.663  23.200  0.00  0.00    +0.005 C 
ENDBRANCH  20  21
ENDBRANCH   8  20
ENDBRANCH  11   7
BRANCH  10   3
ATOM      3  O   UNL     1      -3.656   3.069  22.723  0.00  0.00    -0.388 OA
ATOM     24  H   UNL     1      -3.031   3.794  22.551  0.00  0.00    +0.210 HD
ENDBRANCH  10   3
TORSDOF 5
ENDMDL
MODEL 5
REMARK VINA RESULT:      -2.7      2.289      6.334
REMARK  Name = 25314954
REMARK  5 active torsions:
REMARK  status: ('A' for Active; 'I' for Inactive)
REMARK    1  A    between atoms: O_3  and  C_10
REMARK    2  A    between atoms: N_6  and  C_9
REMARK    3  A    between atoms: N_7  and  C_11
REMARK    4  A    between atoms: N_8  and  C_20
REMARK    5  A    between atoms: C_20  and  C_21
REMARK                            x       y       z     vdW  Elec       q    Type
REMARK                         _______ _______ _______ _____ _____    ______ ____
ROOT
ATOM      1  O   UNL     1      -0.447   1.160  22.824  0.00  0.00    -0.342 OA
ATOM      2  O   UNL     1       1.584   1.043  23.937  0.00  0.00    -0.347 OA
ATOM      9  C   UNL     1      -0.400   0.206  25.037  0.00  0.00    +0.144 C 
ATOM     10  C   UNL     1      -0.665   1.594  25.663  0.00  0.00    +0.159 C 
ATOM     11  C   UNL     1      -0.918   2.702  24.617  0.00  0.00    +0.136 C 
ATOM     12  C   UNL     1      -0.151   2.477  23.297  0.00  0.00    +0.170 C 
ATOM     13  C   UNL     1       0.348   0.350  23.699  0.00  0.00    +0.270 C 
ATOM     14  C   UNL     1       1.354   2.379  23.463  0.00  0.00    +0.196 C 
ENDROOT
BRANCH   9   6
ATOM      4  O   UNL     1      -3.547  -2.541  25.441  0.00  0.00    -0.377 OA
ATOM      6  N   UNL     1      -1.663  -0.499  24.825  0.00  0.00    -0.288 NA
ATOM     15  C   UNL     1      -2.507  -0.428  26.026  0.00  0.00    +0.113 C 
ATOM     16  C   UNL     1      -1.421  -1.902  24.460  0.00  0.00    +0.113 C 
ATOM     17  C   UNL     1      -3.813  -1.181  25.785  0.00  0.00    +0.175 C 
ATOM     18  C   UNL     1      -2.753  -2.620  24.256  0.00  0.00    +0.175 C 
ENDBRANCH   9   6
BRANCH  11   7
ATOM      5  O   UNL     1      -2.943   3.758  26.380  0.00  0.00    -0.253 OA
ATOM      7  N   UNL     1      -2.335   2.818  24.346  0.00  0.00    -0.291 N 
ATOM      8  N   UNL     1      -4.535   3.337  24.746  0.00  0.00    -0.296 N 
ATOM     19  C   UNL     1      -3.241   3.343  25.261  0.00  0.00    +0.300 C 
ATOM     23  H   UNL     1      -2.693   2.429  23.480  0.00  0.00    +0.151 HD
ATOM     25  H   UNL     1      -4.682   2.993  23.801  0.00  0.00    +0.151 HD
BRANCH   8  20
ATOM     20  C   UNL     1      -5.674   3.826  25.485  0.00  0.00    +0.132 C 
BRANCH  20  21
ATOM     21  C   UNL     1      -6.310   2.688  26.212  0.00  0.00    -0.016 C 
ATOM     22  C   UNL     1      -6.293   1.424  25.778  0.00  0.00    +0.005 C 
ENDBRANCH  20  21
ENDBRANCH   8  20
ENDBRANCH  11   7
BRANCH  10   3
ATOM      3  O   UNL     1       0.487   1.950  26.441  0.00  0.00    -0.388 OA
ATOM     24  H   UNL     1       0.383   1.546  27.320  0.00  0.00    +0.210 HD
ENDBRANCH  10   3
TORSDOF 5
ENDMDL
MODEL 6
REMARK VINA RESULT:      -2.7      2.030      4.500
REMARK  Name = 25314954
REMARK  5 active torsions:
REMARK  status: ('A' for Active; 'I' for Inactive)
REMARK    1  A    between atoms: O_3  and  C_10
REMARK    2  A    between atoms: N_6  and  C_9
REMARK    3  A    between atoms: N_7  and  C_11
REMARK    4  A    between atoms: N_8  and  C_20
REMARK    5  A    between atoms: C_20  and  C_21
REMARK                            x       y       z     vdW  Elec       q    Type
REMARK                         _______ _______ _______ _____ _____    ______ ____
ROOT
ATOM      1  O   UNL     1      -3.155   2.432  26.147  0.00  0.00    -0.342 OA
ATOM      2  O   UNL     1      -4.966   3.410  25.076  0.00  0.00    -0.347 OA
ATOM      9  C   UNL     1      -4.047   1.359  24.180  0.00  0.00    +0.144 C 
ATOM     10  C   UNL     1      -3.080   2.161  23.280  0.00  0.00    +0.159 C 
ATOM     11  C   UNL     1      -2.081   3.031  24.073  0.00  0.00    +0.136 C 
ATOM     12  C   UNL     1      -2.653   3.550  25.409  0.00  0.00    +0.170 C 
ATOM     13  C   UNL     1      -4.381   2.153  25.456  0.00  0.00    +0.270 C 
ATOM     14  C   UNL     1      -3.918   4.374  25.262  0.00  0.00    +0.196 C 
ENDROOT
BRANCH   9   6
ATOM      4  O   UNL     1      -3.627  -2.670  25.278  0.00  0.00    -0.377 OA
ATOM      6  N   UNL     1      -3.452   0.073  24.538  0.00  0.00    -0.288 NA
ATOM     15  C   UNL     1      -3.824  -0.962  23.565  0.00  0.00    +0.113 C 
ATOM     16  C   UNL     1      -3.864  -0.333  25.889  0.00  0.00    +0.113 C 
ATOM     17  C   UNL     1      -3.202  -2.298  23.966  0.00  0.00    +0.175 C 
ATOM     18  C   UNL     1      -3.240  -1.683  26.236  0.00  0.00    +0.175 C 
ENDBRANCH   9   6
BRANCH  11   7
ATOM      5  O   UNL     1      -0.997   0.887  22.475  0.00  0.00    -0.253 OA
ATOM      7  N   UNL     1      -0.861   2.291  24.319  0.00  0.00    -0.291 N 
ATOM      8  N   UNL     1       0.781   0.728  23.957  0.00  0.00    -0.296 N 
ATOM     19  C   UNL     1      -0.415   1.268  23.489  0.00  0.00    +0.300 C 
ATOM     23  H   UNL     1      -0.349   2.477  25.175  0.00  0.00    +0.151 HD
ATOM     25  H   UNL     1       1.201   1.123  24.793  0.00  0.00    +0.151 HD
BRANCH   8  20
ATOM     20  C   UNL     1       1.468  -0.350  23.286  0.00  0.00    +0.132 C 
BRANCH  20  21
ATOM     21  C   UNL     1       2.520   0.220  22.395  0.00  0.00    -0.016 C 
ATOM     22  C   UNL     1       3.603   0.867  22.839  0.00  0.00    +0.005 C 
ENDBRANCH  20  21
ENDBRANCH   8  20
ENDBRANCH  11   7
BRANCH  10   3
ATOM      3  O   UNL     1      -3.869   3.015  22.441  0.00  0.00    -0.388 OA
ATOM     24  H   UNL     1      -3.425   3.071  21.578  0.00  0.00    +0.210 HD
ENDBRANCH  10   3
TORSDOF 5
ENDMDL
MODEL 7
REMARK VINA RESULT:      -2.4      2.966      5.459
REMARK  Name = 25314954
REMARK  5 active torsions:
REMARK  status: ('A' for Active; 'I' for Inactive)
REMARK    1  A    between atoms: O_3  and  C_10
REMARK    2  A    between atoms: N_6  and  C_9
REMARK    3  A    between atoms: N_7  and  C_11
REMARK    4  A    between atoms: N_8  and  C_20
REMARK    5  A    between atoms: C_20  and  C_21
REMARK                            x       y       z     vdW  Elec       q    Type
REMARK                         _______ _______ _______ _____ _____    ______ ____
ROOT
ATOM      1  O   UNL     1      -2.519  -1.049  26.237  0.00  0.00    -0.342 OA
ATOM      2  O   UNL     1      -1.975  -2.431  24.456  0.00  0.00    -0.347 OA
ATOM      9  C   UNL     1      -1.958  -0.036  24.122  0.00  0.00    +0.144 C 
ATOM     10  C   UNL     1      -3.442  -0.063  23.693  0.00  0.00    +0.159 C 
ATOM     11  C   UNL     1      -4.394  -0.560  24.803  0.00  0.00    +0.136 C 
ATOM     12  C   UNL     1      -3.743  -1.597  25.743  0.00  0.00    +0.170 C 
ATOM     13  C   UNL     1      -1.657  -1.187  25.100  0.00  0.00    +0.270 C 
ATOM     14  C   UNL     1      -3.226  -2.835  25.035  0.00  0.00    +0.196 C 
ENDROOT
BRANCH   9   6
ATOM      4  O   UNL     1       0.128   3.394  25.346  0.00  0.00    -0.377 OA
ATOM      6  N   UNL     1      -1.640   1.245  24.752  0.00  0.00    -0.288 NA
ATOM     15  C   UNL     1      -1.284   2.249  23.740  0.00  0.00    +0.113 C 
ATOM     16  C   UNL     1      -0.543   1.092  25.718  0.00  0.00    +0.113 C 
ATOM     17  C   UNL     1      -0.945   3.572  24.421  0.00  0.00    +0.175 C 
ATOM     18  C   UNL     1      -0.221   2.443  26.353  0.00  0.00    +0.175 C 
ENDBRANCH   9   6
BRANCH  11   7
ATOM      5  O   UNL     1      -4.740   2.158  23.899  0.00  0.00    -0.253 OA
ATOM      7  N   UNL     1      -4.885   0.561  25.577  0.00  0.00    -0.291 N 
ATOM      8  N   UNL     1      -5.512   2.726  26.012  0.00  0.00    -0.296 N 
ATOM     19  C   UNL     1      -5.019   1.843  25.054  0.00  0.00    +0.300 C 
ATOM     23  H   UNL     1      -5.069   0.420  26.565  0.00  0.00    +0.151 HD
ATOM     25  H   UNL     1      -5.735   2.369  26.936  0.00  0.00    +0.151 HD
BRANCH   8  20
ATOM     20  C   UNL     1      -5.748   4.124  25.739  0.00  0.00    +0.132 C 
BRANCH  20  21
ATOM     21  C   UNL     1      -4.436   4.819  25.581  0.00  0.00    -0.016 C 
ATOM     22  C   UNL     1      -3.349   4.532  26.304  0.00  0.00    +0.005 C 
ENDBRANCH  20  21
ENDBRANCH   8  20
ENDBRANCH  11   7
BRANCH  10   3
ATOM      3  O   UNL     1      -3.555  -0.940  22.564  0.00  0.00    -0.388 OA
ATOM     24  H   UNL     1      -3.520  -1.853  22.897  0.00  0.00    +0.210 HD
ENDBRANCH  10   3
TORSDOF 5
ENDMDL
MODEL 8
REMARK VINA RESULT:      -2.2      2.721      3.566
REMARK  Name = 25314954
REMARK  5 active torsions:
REMARK  status: ('A' for Active; 'I' for Inactive)
REMARK    1  A    between atoms: O_3  and  C_10
REMARK    2  A    between atoms: N_6  and  C_9
REMARK    3  A    between atoms: N_7  and  C_11
REMARK    4  A    between atoms: N_8  and  C_20
REMARK    5  A    between atoms: C_20  and  C_21
REMARK                            x       y       z     vdW  Elec       q    Type
REMARK                         _______ _______ _______ _____ _____    ______ ____
ROOT
ATOM      1  O   UNL     1      -3.069  -1.179  23.392  0.00  0.00    -0.342 OA
ATOM      2  O   UNL     1      -3.091  -2.712  25.133  0.00  0.00    -0.347 OA
ATOM      9  C   UNL     1      -3.531  -0.384  25.621  0.00  0.00    +0.144 C 
ATOM     10  C   UNL     1      -2.026  -0.128  25.863  0.00  0.00    +0.159 C 
ATOM     11  C   UNL     1      -1.152  -0.378  24.616  0.00  0.00    +0.136 C 
ATOM     12  C   UNL     1      -1.706  -1.488  23.697  0.00  0.00    +0.170 C 
ATOM     13  C   UNL     1      -3.729  -1.533  24.615  0.00  0.00    +0.270 C 
ATOM     14  C   UNL     1      -1.873  -2.832  24.381  0.00  0.00    +0.196 C 
ENDROOT
BRANCH   9   6
ATOM      4  O   UNL     1      -5.603   3.264  25.483  0.00  0.00    -0.377 OA
ATOM      6  N   UNL     1      -4.173   0.829  25.119  0.00  0.00    -0.288 NA
ATOM     15  C   UNL     1      -3.522   2.028  25.665  0.00  0.00    +0.113 C 
ATOM     16  C   UNL     1      -5.605   0.837  25.452  0.00  0.00    +0.113 C 
ATOM     17  C   UNL     1      -4.218   3.281  25.137  0.00  0.00    +0.175 C 
ATOM     18  C   UNL     1      -6.251   2.117  24.929  0.00  0.00    +0.175 C 
ENDBRANCH   9   6
BRANCH  11   7
ATOM      5  O   UNL     1      -0.048   2.114  25.561  0.00  0.00    -0.253 OA
ATOM      7  N   UNL     1      -0.995   0.847  23.862  0.00  0.00    -0.291 N 
ATOM      8  N   UNL     1      -0.417   3.033  23.463  0.00  0.00    -0.296 N 
ATOM     19  C   UNL     1      -0.450   2.007  24.404  0.00  0.00    +0.300 C 
ATOM     23  H   UNL     1      -1.370   0.884  22.919  0.00  0.00    +0.151 HD
ATOM     25  H   UNL     1      -0.752   2.844  22.522  0.00  0.00    +0.151 HD
BRANCH   8  20
ATOM     20  C   UNL     1       0.100   4.348  23.758  0.00  0.00    +0.132 C 
BRANCH  20  21
ATOM     21  C   UNL     1      -0.567   4.871  24.987  0.00  0.00    -0.016 C 
ATOM     22  C   UNL     1      -1.674   5.620  24.973  0.00  0.00    +0.005 C 
ENDBRANCH  20  21
ENDBRANCH   8  20
ENDBRANCH  11   7
BRANCH  10   3
ATOM      3  O   UNL     1      -1.596  -1.007  26.911  0.00  0.00    -0.388 OA
ATOM     24  H   UNL     1      -1.437  -0.465  27.702  0.00  0.00    +0.210 HD
ENDBRANCH  10   3
TORSDOF 5
ENDMDL
MODEL 9
REMARK VINA RESULT:      -1.6      1.882      5.040
REMARK  Name = 25314954
REMARK  5 active torsions:
REMARK  status: ('A' for Active; 'I' for Inactive)
REMARK    1  A    between atoms: O_3  and  C_10
REMARK    2  A    between atoms: N_6  and  C_9
REMARK    3  A    between atoms: N_7  and  C_11
REMARK    4  A    between atoms: N_8  and  C_20
REMARK    5  A    between atoms: C_20  and  C_21
REMARK                            x       y       z     vdW  Elec       q    Type
REMARK                         _______ _______ _______ _____ _____    ______ ____
ROOT
ATOM      1  O   UNL     1      -1.797  -1.402  26.013  0.00  0.00    -0.342 OA
ATOM      2  O   UNL     1      -2.714  -2.828  24.430  0.00  0.00    -0.347 OA
ATOM      9  C   UNL     1      -1.397  -0.942  23.680  0.00  0.00    +0.144 C 
ATOM     10  C   UNL     1      -2.662  -0.057  23.617  0.00  0.00    +0.159 C 
ATOM     11  C   UNL     1      -3.349   0.132  24.987  0.00  0.00    +0.136 C 
ATOM     12  C   UNL     1      -3.189  -1.087  25.920  0.00  0.00    +0.170 C 
ATOM     13  C   UNL     1      -1.557  -2.038  24.750  0.00  0.00    +0.270 C 
ATOM     14  C   UNL     1      -3.728  -2.384  25.344  0.00  0.00    +0.196 C 
ENDROOT
BRANCH   9   6
ATOM      4  O   UNL     1       1.726   1.837  23.305  0.00  0.00    -0.377 OA
ATOM      6  N   UNL     1      -0.224  -0.123  23.981  0.00  0.00    -0.288 NA
ATOM     15  C   UNL     1      -0.559   1.307  23.927  0.00  0.00    +0.113 C 
ATOM     16  C   UNL     1       0.872  -0.421  23.049  0.00  0.00    +0.113 C 
ATOM     17  C   UNL     1       0.683   2.141  24.232  0.00  0.00    +0.175 C 
ATOM     18  C   UNL     1       2.080   0.454  23.375  0.00  0.00    +0.175 C 
ENDBRANCH   9   6
BRANCH  11   7
ATOM      5  O   UNL     1      -4.123   2.864  24.477  0.00  0.00    -0.253 OA
ATOM      7  N   UNL     1      -2.841   1.318  25.641  0.00  0.00    -0.291 N 
ATOM      8  N   UNL     1      -2.623   3.556  26.106  0.00  0.00    -0.296 N 
ATOM     19  C   UNL     1      -3.275   2.602  25.328  0.00  0.00    +0.300 C 
ATOM     23  H   UNL     1      -2.080   1.214  26.305  0.00  0.00    +0.151 HD
ATOM     25  H   UNL     1      -1.952   3.243  26.801  0.00  0.00    +0.151 HD
BRANCH   8  20
ATOM     20  C   UNL     1      -2.882   4.971  25.988  0.00  0.00    +0.132 C 
BRANCH  20  21
ATOM     21  C   UNL     1      -1.823   5.593  25.139  0.00  0.00    -0.016 C 
ATOM     22  C   UNL     1      -0.669   4.993  24.830  0.00  0.00    +0.005 C 
ENDBRANCH  20  21
ENDBRANCH   8  20
ENDBRANCH  11   7
BRANCH  10   3
ATOM      3  O   UNL     1      -3.589  -0.682  22.719  0.00  0.00    -0.388 OA
ATOM     24  H   UNL     1      -3.174  -1.497  22.390  0.00  0.00    +0.210 HD
ENDBRANCH  10   3
TORSDOF 5
ENDMDL
MODEL 10
REMARK VINA RESULT:      -1.6     13.139     17.289
REMARK  Name = 25314954
REMARK  5 active torsions:
REMARK  status: ('A' for Active; 'I' for Inactive)
REMARK    1  A    between atoms: O_3  and  C_10
REMARK    2  A    between atoms: N_6  and  C_9
REMARK    3  A    between atoms: N_7  and  C_11
REMARK    4  A    between atoms: N_8  and  C_20
REMARK    5  A    between atoms: C_20  and  C_21
REMARK                            x       y       z     vdW  Elec       q    Type
REMARK                         _______ _______ _______ _____ _____    ______ ____
ROOT
ATOM      1  O   UNL     1      15.944   9.094  20.226  0.00  0.00    -0.342 OA
ATOM      2  O   UNL     1      17.333   7.276  19.842  0.00  0.00    -0.347 OA
ATOM      9  C   UNL     1      15.033   7.165  19.102  0.00  0.00    +0.144 C 
ATOM     10  C   UNL     1      14.605   6.554  20.455  0.00  0.00    +0.159 C 
ATOM     11  C   UNL     1      14.858   7.487  21.659  0.00  0.00    +0.136 C 
ATOM     12  C   UNL     1      16.086   8.403  21.471  0.00  0.00    +0.170 C 
ATOM     13  C   UNL     1      16.270   8.064  19.282  0.00  0.00    +0.270 C 
ATOM     14  C   UNL     1      17.384   7.656  21.226  0.00  0.00    +0.196 C 
ENDROOT
BRANCH   9   6
ATOM      4  O   UNL     1      11.838   8.341  16.648  0.00  0.00    -0.377 OA
ATOM      6  N   UNL     1      13.935   7.942  18.531  0.00  0.00    -0.288 NA
ATOM     15  C   UNL     1      12.669   7.201  18.622  0.00  0.00    +0.113 C 
ATOM     16  C   UNL     1      14.216   8.290  17.131  0.00  0.00    +0.113 C 
ATOM     17  C   UNL     1      11.541   8.027  18.009  0.00  0.00    +0.175 C 
ATOM     18  C   UNL     1      13.051   9.090  16.553  0.00  0.00    +0.175 C 
ENDBRANCH   9   6
BRANCH  11   7
ATOM      5  O   UNL     1      12.115   6.592  21.720  0.00  0.00    -0.253 OA
ATOM      7  N   UNL     1      13.684   8.292  21.921  0.00  0.00    -0.291 N 
ATOM      8  N   UNL     1      11.455   8.762  22.209  0.00  0.00    -0.296 N 
ATOM     19  C   UNL     1      12.394   7.772  21.930  0.00  0.00    +0.300 C 
ATOM     23  H   UNL     1      13.801   9.295  22.029  0.00  0.00    +0.151 HD
ATOM     25  H   UNL     1      11.781   9.707  22.391  0.00  0.00    +0.151 HD
BRANCH   8  20
ATOM     20  C   UNL     1      10.037   8.498  22.279  0.00  0.00    +0.132 C 
BRANCH  20  21
ATOM     21  C   UNL     1       9.812   7.024  22.228  0.00  0.00    -0.016 C 
ATOM     22  C   UNL     1       8.709   6.422  22.687  0.00  0.00    +0.005 C 
ENDBRANCH  20  21
ENDBRANCH   8  20
ENDBRANCH  11   7
BRANCH  10   3
ATOM      3  O   UNL     1      15.352   5.345  20.645  0.00  0.00    -0.388 OA
ATOM     24  H   UNL     1      14.747   4.681  21.018  0.00  0.00    +0.210 HD
ENDBRANCH  10   3
TORSDOF 5
ENDMDL
