MODEL 1
REMARK VINA RESULT:      -2.9      0.000      0.000
REMARK  Name = 75367657
REMARK  7 active torsions:
REMARK  status: ('A' for Active; 'I' for Inactive)
REMARK    1  A    between atoms: O_5  and  C_9
REMARK    2  A    between atoms: O_5  and  C_15
REMARK    3  A    between atoms: O_6  and  C_22
REMARK    4  A    between atoms: O_6  and  C_27
REMARK    5  A    between atoms: N_7  and  C_12
REMARK    6  A    between atoms: C_12  and  C_14
REMARK    7  A    between atoms: C_25  and  C_26
REMARK                            x       y       z     vdW  Elec       q    Type
REMARK                         _______ _______ _______ _____ _____    ______ ____
ROOT
ATOM      4  O   UNL     1      -1.436  -3.224  25.181  0.00  0.00    -0.375 OA
ATOM      7  N   UNL     1      -3.061  -1.242  23.871  0.00  0.00    -0.292 NA
ATOM      8  C   UNL     1      -2.043  -0.370  24.456  0.00  0.00    +0.131 C 
ATOM      9  C   UNL     1      -0.655  -1.022  24.388  0.00  0.00    +0.213 C 
ATOM     10  C   UNL     1      -3.631  -2.222  24.802  0.00  0.00    +0.113 C 
ATOM     11  C   UNL     1      -0.443  -2.214  25.317  0.00  0.00    +0.205 C 
ATOM     13  C   UNL     1      -2.665  -2.860  25.798  0.00  0.00    +0.175 C 
ENDROOT
BRANCH   9   5
ATOM      5  O   UNL     1       0.316  -0.024  24.703  0.00  0.00    -0.485 OA
BRANCH   5  15
ATOM     15  C   UNL     1      -0.140   1.263  24.794  0.00  0.00    +0.121 A 
ATOM     18  C   UNL     1      -0.631   1.744  26.008  0.00  0.00    +0.046 A 
ATOM     19  C   UNL     1      -0.114   2.094  23.674  0.00  0.00    +0.046 A 
ATOM     23  C   UNL     1      -1.097   3.055  26.102  0.00  0.00    +0.016 A 
ATOM     24  C   UNL     1      -0.580   3.405  23.768  0.00  0.00    +0.016 A 
ATOM     25  C   UNL     1      -1.071   3.886  24.982  0.00  0.00    +0.055 A 
BRANCH  25  26
ATOM      1  F   UNL     1      -2.361   5.512  26.171  0.00  0.00    -0.166 F 
ATOM      2  F   UNL     1      -2.321   5.679  24.009  0.00  0.00    -0.166 F 
ATOM      3  F   UNL     1      -0.557   6.199  25.170  0.00  0.00    -0.166 F 
ATOM     26  C   UNL     1      -1.569   5.288  25.081  0.00  0.00    +0.417 C 
ENDBRANCH  25  26
ENDBRANCH   5  15
ENDBRANCH   9   5
BRANCH   7  12
ATOM     12  C   UNL     1      -4.132  -0.468  23.242  0.00  0.00    +0.119 C 
BRANCH  12  14
ATOM     14  C   UNL     1      -4.431   0.796  24.002  0.00  0.00    -0.033 A 
ATOM     16  C   UNL     1      -5.198   0.746  25.165  0.00  0.00    +0.008 A 
ATOM     17  C   UNL     1      -3.942   2.019  23.541  0.00  0.00    +0.008 A 
ATOM     20  C   UNL     1      -5.476   1.918  25.869  0.00  0.00    +0.046 A 
ATOM     21  C   UNL     1      -4.220   3.191  24.245  0.00  0.00    +0.046 A 
ATOM     22  C   UNL     1      -4.987   3.140  25.409  0.00  0.00    +0.120 A 
BRANCH  22   6
ATOM      6  O   UNL     1      -5.259   4.284  26.095  0.00  0.00    -0.495 OA
ATOM     27  C   UNL     1      -6.155   5.211  25.482  0.00  0.00    +0.277 C 
ENDBRANCH  22   6
ENDBRANCH  12  14
ENDBRANCH   7  12
TORSDOF 6
ENDMDL
MODEL 2
REMARK VINA RESULT:      -2.8      2.969      5.663
REMARK  Name = 75367657
REMARK  7 active torsions:
REMARK  status: ('A' for Active; 'I' for Inactive)
REMARK    1  A    between atoms: O_5  and  C_9
REMARK    2  A    between atoms: O_5  and  C_15
REMARK    3  A    between atoms: O_6  and  C_22
REMARK    4  A    between atoms: O_6  and  C_27
REMARK    5  A    between atoms: N_7  and  C_12
REMARK    6  A    between atoms: C_12  and  C_14
REMARK    7  A    between atoms: C_25  and  C_26
REMARK                            x       y       z     vdW  Elec       q    Type
REMARK                         _______ _______ _______ _____ _____    ______ ____
ROOT
ATOM      4  O   UNL     1      -5.214   4.197  26.586  0.00  0.00    -0.375 OA
ATOM      7  N   UNL     1      -5.104   1.680  25.195  0.00  0.00    -0.292 NA
ATOM      8  C   UNL     1      -4.116   2.427  24.418  0.00  0.00    +0.131 C 
ATOM      9  C   UNL     1      -3.276   3.335  25.327  0.00  0.00    +0.213 C 
ATOM     10  C   UNL     1      -6.369   2.391  25.416  0.00  0.00    +0.113 C 
ATOM     11  C   UNL     1      -4.009   4.539  25.911  0.00  0.00    +0.205 C 
ATOM     13  C   UNL     1      -6.270   3.891  25.684  0.00  0.00    +0.175 C 
ENDROOT
BRANCH   9   5
ATOM      5  O   UNL     1      -2.163   3.807  24.568  0.00  0.00    -0.485 OA
BRANCH   5  15
ATOM     15  C   UNL     1      -1.276   2.862  24.131  0.00  0.00    +0.121 A 
ATOM     18  C   UNL     1      -1.669   1.929  23.171  0.00  0.00    +0.046 A 
ATOM     19  C   UNL     1       0.020   2.830  24.645  0.00  0.00    +0.046 A 
ATOM     23  C   UNL     1      -0.766   0.963  22.727  0.00  0.00    +0.016 A 
ATOM     24  C   UNL     1       0.923   1.864  24.201  0.00  0.00    +0.016 A 
ATOM     25  C   UNL     1       0.530   0.931  23.241  0.00  0.00    +0.055 A 
BRANCH  25  26
ATOM      1  F   UNL     1       2.781   0.352  22.676  0.00  0.00    -0.166 F 
ATOM      2  F   UNL     1       1.205  -0.595  21.526  0.00  0.00    -0.166 F 
ATOM      3  F   UNL     1       1.549  -1.189  23.589  0.00  0.00    -0.166 F 
ATOM     26  C   UNL     1       1.496  -0.101  22.766  0.00  0.00    +0.417 C 
ENDBRANCH  25  26
ENDBRANCH   5  15
ENDBRANCH   9   5
BRANCH   7  12
ATOM     12  C   UNL     1      -5.366   0.365  24.606  0.00  0.00    +0.119 C 
BRANCH  12  14
ATOM     14  C   UNL     1      -4.167  -0.540  24.700  0.00  0.00    -0.033 A 
ATOM     16  C   UNL     1      -3.103  -0.205  25.537  0.00  0.00    +0.008 A 
ATOM     17  C   UNL     1      -4.119  -1.714  23.948  0.00  0.00    +0.008 A 
ATOM     20  C   UNL     1      -1.992  -1.043  25.624  0.00  0.00    +0.046 A 
ATOM     21  C   UNL     1      -3.008  -2.552  24.034  0.00  0.00    +0.046 A 
ATOM     22  C   UNL     1      -1.944  -2.217  24.872  0.00  0.00    +0.120 A 
BRANCH  22   6
ATOM      6  O   UNL     1      -0.860  -3.034  24.955  0.00  0.00    -0.495 OA
ATOM     27  C   UNL     1       0.263  -2.550  25.692  0.00  0.00    +0.277 C 
ENDBRANCH  22   6
ENDBRANCH  12  14
ENDBRANCH   7  12
TORSDOF 6
ENDMDL
MODEL 3
REMARK VINA RESULT:      -1.8      3.113      5.563
REMARK  Name = 75367657
REMARK  7 active torsions:
REMARK  status: ('A' for Active; 'I' for Inactive)
REMARK    1  A    between atoms: O_5  and  C_9
REMARK    2  A    between atoms: O_5  and  C_15
REMARK    3  A    between atoms: O_6  and  C_22
REMARK    4  A    between atoms: O_6  and  C_27
REMARK    5  A    between atoms: N_7  and  C_12
REMARK    6  A    between atoms: C_12  and  C_14
REMARK    7  A    between atoms: C_25  and  C_26
REMARK                            x       y       z     vdW  Elec       q    Type
REMARK                         _______ _______ _______ _____ _____    ______ ____
ROOT
ATOM      4  O   UNL     1      -3.121   5.215  24.732  0.00  0.00    -0.375 OA
ATOM      7  N   UNL     1      -4.424   2.705  25.270  0.00  0.00    -0.292 NA
ATOM      8  C   UNL     1      -3.029   2.286  25.409  0.00  0.00    +0.131 C 
ATOM      9  C   UNL     1      -2.194   3.378  26.093  0.00  0.00    +0.213 C 
ATOM     10  C   UNL     1      -4.708   3.484  24.059  0.00  0.00    +0.113 C 
ATOM     11  C   UNL     1      -1.936   4.628  25.257  0.00  0.00    +0.205 C 
ATOM     13  C   UNL     1      -3.640   4.486  23.627  0.00  0.00    +0.175 C 
ENDROOT
BRANCH   9   5
ATOM      5  O   UNL     1      -0.936   2.807  26.454  0.00  0.00    -0.485 OA
BRANCH   5  15
ATOM     15  C   UNL     1      -0.292   2.088  25.485  0.00  0.00    +0.121 A 
ATOM     18  C   UNL     1       0.629   2.716  24.647  0.00  0.00    +0.046 A 
ATOM     19  C   UNL     1      -0.555   0.726  25.335  0.00  0.00    +0.046 A 
ATOM     23  C   UNL     1       1.285   1.984  23.657  0.00  0.00    +0.016 A 
ATOM     24  C   UNL     1       0.101  -0.006  24.346  0.00  0.00    +0.016 A 
ATOM     25  C   UNL     1       1.021   0.623  23.507  0.00  0.00    +0.055 A 
BRANCH  25  26
ATOM      1  F   UNL     1       2.711   0.536  21.816  0.00  0.00    -0.166 F 
ATOM      2  F   UNL     1       0.897  -0.594  21.451  0.00  0.00    -0.166 F 
ATOM      3  F   UNL     1       2.323  -1.284  22.940  0.00  0.00    -0.166 F 
ATOM     26  C   UNL     1       1.722  -0.161  22.450  0.00  0.00    +0.417 C 
ENDBRANCH  25  26
ENDBRANCH   5  15
ENDBRANCH   9   5
BRANCH   7  12
ATOM     12  C   UNL     1      -5.336   1.563  25.356  0.00  0.00    +0.119 C 
BRANCH  12  14
ATOM     14  C   UNL     1      -4.627   0.259  25.111  0.00  0.00    -0.033 A 
ATOM     16  C   UNL     1      -3.970  -0.386  26.160  0.00  0.00    +0.008 A 
ATOM     17  C   UNL     1      -4.624  -0.306  23.836  0.00  0.00    +0.008 A 
ATOM     20  C   UNL     1      -3.312  -1.594  25.933  0.00  0.00    +0.046 A 
ATOM     21  C   UNL     1      -3.966  -1.514  23.608  0.00  0.00    +0.046 A 
ATOM     22  C   UNL     1      -3.310  -2.158  24.658  0.00  0.00    +0.120 A 
BRANCH  22   6
ATOM      6  O   UNL     1      -2.667  -3.337  24.436  0.00  0.00    -0.495 OA
ATOM     27  C   UNL     1      -1.329  -3.264  23.944  0.00  0.00    +0.277 C 
ENDBRANCH  22   6
ENDBRANCH  12  14
ENDBRANCH   7  12
TORSDOF 6
ENDMDL
MODEL 4
REMARK VINA RESULT:      -1.8      3.520      6.904
REMARK  Name = 75367657
REMARK  7 active torsions:
REMARK  status: ('A' for Active; 'I' for Inactive)
REMARK    1  A    between atoms: O_5  and  C_9
REMARK    2  A    between atoms: O_5  and  C_15
REMARK    3  A    between atoms: O_6  and  C_22
REMARK    4  A    between atoms: O_6  and  C_27
REMARK    5  A    between atoms: N_7  and  C_12
REMARK    6  A    between atoms: C_12  and  C_14
REMARK    7  A    between atoms: C_25  and  C_26
REMARK                            x       y       z     vdW  Elec       q    Type
REMARK                         _______ _______ _______ _____ _____    ______ ____
ROOT
ATOM      4  O   UNL     1      -2.999   5.946  23.870  0.00  0.00    -0.375 OA
ATOM      7  N   UNL     1      -1.024   3.972  24.570  0.00  0.00    -0.292 NA
ATOM      8  C   UNL     1      -2.203   3.359  25.182  0.00  0.00    +0.131 C 
ATOM      9  C   UNL     1      -3.444   3.558  24.300  0.00  0.00    +0.213 C 
ATOM     10  C   UNL     1      -0.845   5.394  24.883  0.00  0.00    +0.113 C 
ATOM     11  C   UNL     1      -3.982   4.984  24.234  0.00  0.00    +0.205 C 
ATOM     13  C   UNL     1      -2.113   6.244  24.942  0.00  0.00    +0.175 C 
ENDROOT
BRANCH   9   5
ATOM      5  O   UNL     1      -4.477   2.706  24.798  0.00  0.00    -0.485 OA
BRANCH   5  15
ATOM     15  C   UNL     1      -4.278   1.360  24.660  0.00  0.00    +0.121 A 
ATOM     18  C   UNL     1      -3.847   0.840  23.439  0.00  0.00    +0.046 A 
ATOM     19  C   UNL     1      -4.506   0.507  25.740  0.00  0.00    +0.046 A 
ATOM     23  C   UNL     1      -3.646  -0.532  23.297  0.00  0.00    +0.016 A 
ATOM     24  C   UNL     1      -4.305  -0.866  25.597  0.00  0.00    +0.016 A 
ATOM     25  C   UNL     1      -3.875  -1.386  24.377  0.00  0.00    +0.055 A 
BRANCH  25  26
ATOM      1  F   UNL     1      -3.543  -3.515  25.415  0.00  0.00    -0.166 F 
ATOM      2  F   UNL     1      -2.528  -3.173  23.529  0.00  0.00    -0.166 F 
ATOM      3  F   UNL     1      -4.682  -3.469  23.564  0.00  0.00    -0.166 F 
ATOM     26  C   UNL     1      -3.660  -2.853  24.226  0.00  0.00    +0.417 C 
ENDBRANCH  25  26
ENDBRANCH   5  15
ENDBRANCH   9   5
BRANCH   7  12
ATOM     12  C   UNL     1       0.195   3.231  24.898  0.00  0.00    +0.119 C 
BRANCH  12  14
ATOM     14  C   UNL     1      -0.043   1.745  24.929  0.00  0.00    -0.033 A 
ATOM     16  C   UNL     1      -0.616   1.154  26.055  0.00  0.00    +0.008 A 
ATOM     17  C   UNL     1       0.311   0.958  23.833  0.00  0.00    +0.008 A 
ATOM     20  C   UNL     1      -0.836  -0.223  26.085  0.00  0.00    +0.046 A 
ATOM     21  C   UNL     1       0.091  -0.419  23.862  0.00  0.00    +0.046 A 
ATOM     22  C   UNL     1      -0.482  -1.009  24.988  0.00  0.00    +0.120 A 
BRANCH  22   6
ATOM      6  O   UNL     1      -0.696  -2.353  25.017  0.00  0.00    -0.495 OA
ATOM     27  C   UNL     1       0.360  -3.167  25.527  0.00  0.00    +0.277 C 
ENDBRANCH  22   6
ENDBRANCH  12  14
ENDBRANCH   7  12
TORSDOF 6
ENDMDL
MODEL 5
REMARK VINA RESULT:      -1.7      3.501      5.916
REMARK  Name = 75367657
REMARK  7 active torsions:
REMARK  status: ('A' for Active; 'I' for Inactive)
REMARK    1  A    between atoms: O_5  and  C_9
REMARK    2  A    between atoms: O_5  and  C_15
REMARK    3  A    between atoms: O_6  and  C_22
REMARK    4  A    between atoms: O_6  and  C_27
REMARK    5  A    between atoms: N_7  and  C_12
REMARK    6  A    between atoms: C_12  and  C_14
REMARK    7  A    between atoms: C_25  and  C_26
REMARK                            x       y       z     vdW  Elec       q    Type
REMARK                         _______ _______ _______ _____ _____    ______ ____
ROOT
ATOM      4  O   UNL     1      -1.597   6.133  24.960  0.00  0.00    -0.375 OA
ATOM      7  N   UNL     1      -3.326   3.899  25.510  0.00  0.00    -0.292 NA
ATOM      8  C   UNL     1      -2.201   3.188  24.902  0.00  0.00    +0.131 C 
ATOM      9  C   UNL     1      -0.864   3.807  25.332  0.00  0.00    +0.213 C 
ATOM     10  C   UNL     1      -3.786   5.070  24.755  0.00  0.00    +0.113 C 
ATOM     11  C   UNL     1      -0.559   5.184  24.748  0.00  0.00    +0.205 C 
ATOM     13  C   UNL     1      -2.706   5.924  24.095  0.00  0.00    +0.175 C 
ENDROOT
BRANCH   9   5
ATOM      5  O   UNL     1       0.179   2.911  24.947  0.00  0.00    -0.485 OA
BRANCH   5  15
ATOM     15  C   UNL     1      -0.132   1.579  24.944  0.00  0.00    +0.121 A 
ATOM     18  C   UNL     1       0.163   0.797  23.827  0.00  0.00    +0.046 A 
ATOM     19  C   UNL     1      -0.743   1.002  26.057  0.00  0.00    +0.046 A 
ATOM     23  C   UNL     1      -0.156  -0.561  23.822  0.00  0.00    +0.016 A 
ATOM     24  C   UNL     1      -1.062  -0.356  26.052  0.00  0.00    +0.016 A 
ATOM     25  C   UNL     1      -0.767  -1.138  24.935  0.00  0.00    +0.055 A 
BRANCH  25  26
ATOM      1  F   UNL     1      -1.250  -3.115  23.679  0.00  0.00    -0.166 F 
ATOM      2  F   UNL     1      -2.279  -2.879  25.573  0.00  0.00    -0.166 F 
ATOM      3  F   UNL     1      -0.157  -3.353  25.543  0.00  0.00    -0.166 F 
ATOM     26  C   UNL     1      -1.108  -2.589  24.931  0.00  0.00    +0.417 C 
ENDBRANCH  25  26
ENDBRANCH   5  15
ENDBRANCH   9   5
BRANCH   7  12
ATOM     12  C   UNL     1      -4.450   2.998  25.771  0.00  0.00    +0.119 C 
BRANCH  12  14
ATOM     14  C   UNL     1      -4.292   1.683  25.056  0.00  0.00    -0.033 A 
ATOM     16  C   UNL     1      -3.780   1.650  23.759  0.00  0.00    +0.008 A 
ATOM     17  C   UNL     1      -4.660   0.496  25.690  0.00  0.00    +0.008 A 
ATOM     20  C   UNL     1      -3.634   0.432  23.097  0.00  0.00    +0.046 A 
ATOM     21  C   UNL     1      -4.515  -0.723  25.028  0.00  0.00    +0.046 A 
ATOM     22  C   UNL     1      -4.002  -0.755  23.731  0.00  0.00    +0.120 A 
BRANCH  22   6
ATOM      6  O   UNL     1      -3.861  -1.944  23.085  0.00  0.00    -0.495 OA
ATOM     27  C   UNL     1      -4.602  -3.052  23.595  0.00  0.00    +0.277 C 
ENDBRANCH  22   6
ENDBRANCH  12  14
ENDBRANCH   7  12
TORSDOF 6
ENDMDL
MODEL 6
REMARK VINA RESULT:      -1.6      3.479      6.439
REMARK  Name = 75367657
REMARK  7 active torsions:
REMARK  status: ('A' for Active; 'I' for Inactive)
REMARK    1  A    between atoms: O_5  and  C_9
REMARK    2  A    between atoms: O_5  and  C_15
REMARK    3  A    between atoms: O_6  and  C_22
REMARK    4  A    between atoms: O_6  and  C_27
REMARK    5  A    between atoms: N_7  and  C_12
REMARK    6  A    between atoms: C_12  and  C_14
REMARK    7  A    between atoms: C_25  and  C_26
REMARK                            x       y       z     vdW  Elec       q    Type
REMARK                         _______ _______ _______ _____ _____    ______ ____
ROOT
ATOM      4  O   UNL     1      -5.821   3.747  26.397  0.00  0.00    -0.375 OA
ATOM      7  N   UNL     1      -3.817   3.638  24.333  0.00  0.00    -0.292 NA
ATOM      8  C   UNL     1      -4.053   2.207  24.515  0.00  0.00    +0.131 C 
ATOM      9  C   UNL     1      -5.542   1.923  24.761  0.00  0.00    +0.213 C 
ATOM     10  C   UNL     1      -3.609   4.384  25.580  0.00  0.00    +0.113 C 
ATOM     11  C   UNL     1      -6.083   2.378  26.113  0.00  0.00    +0.205 C 
ATOM     13  C   UNL     1      -4.468   3.972  26.773  0.00  0.00    +0.175 C 
ENDROOT
BRANCH   9   5
ATOM      5  O   UNL     1      -5.745   0.514  24.643  0.00  0.00    -0.485 OA
BRANCH   5  15
ATOM     15  C   UNL     1      -4.626  -0.271  24.693  0.00  0.00    +0.121 A 
ATOM     18  C   UNL     1      -3.613   0.016  25.608  0.00  0.00    +0.046 A 
ATOM     19  C   UNL     1      -4.497  -1.357  23.827  0.00  0.00    +0.046 A 
ATOM     23  C   UNL     1      -2.471  -0.783  25.658  0.00  0.00    +0.016 A 
ATOM     24  C   UNL     1      -3.354  -2.156  23.877  0.00  0.00    +0.016 A 
ATOM     25  C   UNL     1      -2.341  -1.869  24.792  0.00  0.00    +0.055 A 
BRANCH  25  26
ATOM      1  F   UNL     1      -1.253  -3.819  25.650  0.00  0.00    -0.166 F 
ATOM      2  F   UNL     1      -0.015  -2.071  25.312  0.00  0.00    -0.166 F 
ATOM      3  F   UNL     1      -0.768  -3.211  23.620  0.00  0.00    -0.166 F 
ATOM     26  C   UNL     1      -1.121  -2.724  24.845  0.00  0.00    +0.417 C 
ENDBRANCH  25  26
ENDBRANCH   5  15
ENDBRANCH   9   5
BRANCH   7  12
ATOM     12  C   UNL     1      -2.708   3.886  23.411  0.00  0.00    +0.119 C 
BRANCH  12  14
ATOM     14  C   UNL     1      -1.696   2.771  23.439  0.00  0.00    -0.033 A 
ATOM     16  C   UNL     1      -1.908   1.618  22.685  0.00  0.00    +0.008 A 
ATOM     17  C   UNL     1      -0.548   2.891  24.222  0.00  0.00    +0.008 A 
ATOM     20  C   UNL     1      -0.971   0.585  22.711  0.00  0.00    +0.046 A 
ATOM     21  C   UNL     1       0.389   1.858  24.250  0.00  0.00    +0.046 A 
ATOM     22  C   UNL     1       0.177   0.705  23.494  0.00  0.00    +0.120 A 
BRANCH  22   6
ATOM      6  O   UNL     1       1.091  -0.303  23.521  0.00  0.00    -0.495 OA
ATOM     27  C   UNL     1       2.274  -0.129  22.741  0.00  0.00    +0.277 C 
ENDBRANCH  22   6
ENDBRANCH  12  14
ENDBRANCH   7  12
TORSDOF 6
ENDMDL
MODEL 7
REMARK VINA RESULT:      -0.8      3.118      5.550
REMARK  Name = 75367657
REMARK  7 active torsions:
REMARK  status: ('A' for Active; 'I' for Inactive)
REMARK    1  A    between atoms: O_5  and  C_9
REMARK    2  A    between atoms: O_5  and  C_15
REMARK    3  A    between atoms: O_6  and  C_22
REMARK    4  A    between atoms: O_6  and  C_27
REMARK    5  A    between atoms: N_7  and  C_12
REMARK    6  A    between atoms: C_12  and  C_14
REMARK    7  A    between atoms: C_25  and  C_26
REMARK                            x       y       z     vdW  Elec       q    Type
REMARK                         _______ _______ _______ _____ _____    ______ ____
ROOT
ATOM      4  O   UNL     1      -6.734   1.604  24.934  0.00  0.00    -0.375 OA
ATOM      7  N   UNL     1      -4.338   3.184  24.713  0.00  0.00    -0.292 NA
ATOM      8  C   UNL     1      -3.741   1.886  25.025  0.00  0.00    +0.131 C 
ATOM      9  C   UNL     1      -4.501   0.750  24.325  0.00  0.00    +0.213 C 
ATOM     10  C   UNL     1      -5.446   3.572  25.593  0.00  0.00    +0.113 C 
ATOM     11  C   UNL     1      -5.895   0.457  24.872  0.00  0.00    +0.205 C 
ATOM     13  C   UNL     1      -6.400   2.459  26.020  0.00  0.00    +0.175 C 
ENDROOT
BRANCH   9   5
ATOM      5  O   UNL     1      -3.713  -0.436  24.431  0.00  0.00    -0.485 OA
BRANCH   5  15
ATOM     15  C   UNL     1      -2.395  -0.327  24.082  0.00  0.00    +0.121 A 
ATOM     18  C   UNL     1      -1.995   0.644  23.164  0.00  0.00    +0.046 A 
ATOM     19  C   UNL     1      -1.451  -1.188  24.643  0.00  0.00    +0.046 A 
ATOM     23  C   UNL     1      -0.651   0.754  22.806  0.00  0.00    +0.016 A 
ATOM     24  C   UNL     1      -0.108  -1.078  24.285  0.00  0.00    +0.016 A 
ATOM     25  C   UNL     1       0.293  -0.107  23.367  0.00  0.00    +0.055 A 
BRANCH  25  26
ATOM      1  F   UNL     1       2.283   1.218  23.302  0.00  0.00    -0.166 F 
ATOM      2  F   UNL     1       1.954  -0.143  21.646  0.00  0.00    -0.166 F 
ATOM      3  F   UNL     1       2.513  -0.924  23.597  0.00  0.00    -0.166 F 
ATOM     26  C   UNL     1       1.729   0.010  22.985  0.00  0.00    +0.417 C 
ENDBRANCH  25  26
ENDBRANCH   5  15
ENDBRANCH   9   5
BRANCH   7  12
ATOM     12  C   UNL     1      -3.328   4.244  24.683  0.00  0.00    +0.119 C 
BRANCH  12  14
ATOM     14  C   UNL     1      -2.046   3.816  25.346  0.00  0.00    -0.033 A 
ATOM     16  C   UNL     1      -0.851   3.828  24.627  0.00  0.00    +0.008 A 
ATOM     17  C   UNL     1      -2.054   3.405  26.679  0.00  0.00    +0.008 A 
ATOM     20  C   UNL     1       0.336   3.431  25.241  0.00  0.00    +0.046 A 
ATOM     21  C   UNL     1      -0.866   3.007  27.293  0.00  0.00    +0.046 A 
ATOM     22  C   UNL     1       0.329   3.020  26.574  0.00  0.00    +0.120 A 
BRANCH  22   6
ATOM      6  O   UNL     1       1.488   2.632  27.173  0.00  0.00    -0.495 OA
ATOM     27  C   UNL     1       1.483   2.542  28.598  0.00  0.00    +0.277 C 
ENDBRANCH  22   6
ENDBRANCH  12  14
ENDBRANCH   7  12
TORSDOF 6
ENDMDL
MODEL 8
REMARK VINA RESULT:      -0.8      2.491      4.473
REMARK  Name = 75367657
REMARK  7 active torsions:
REMARK  status: ('A' for Active; 'I' for Inactive)
REMARK    1  A    between atoms: O_5  and  C_9
REMARK    2  A    between atoms: O_5  and  C_15
REMARK    3  A    between atoms: O_6  and  C_22
REMARK    4  A    between atoms: O_6  and  C_27
REMARK    5  A    between atoms: N_7  and  C_12
REMARK    6  A    between atoms: C_12  and  C_14
REMARK    7  A    between atoms: C_25  and  C_26
REMARK                            x       y       z     vdW  Elec       q    Type
REMARK                         _______ _______ _______ _____ _____    ______ ____
ROOT
ATOM      4  O   UNL     1       1.773  -0.721  23.215  0.00  0.00    -0.375 OA
ATOM      7  N   UNL     1       0.593   1.326  24.859  0.00  0.00    -0.292 NA
ATOM      8  C   UNL     1      -0.621   0.631  24.432  0.00  0.00    +0.131 C 
ATOM      9  C   UNL     1      -0.395  -0.886  24.380  0.00  0.00    +0.213 C 
ATOM     10  C   UNL     1       1.526   1.644  23.772  0.00  0.00    +0.113 C 
ATOM     11  C   UNL     1       0.512  -1.377  23.255  0.00  0.00    +0.205 C 
ATOM     13  C   UNL     1       1.682   0.592  22.677  0.00  0.00    +0.175 C 
ENDROOT
BRANCH   9   5
ATOM      5  O   UNL     1      -1.670  -1.515  24.241  0.00  0.00    -0.485 OA
BRANCH   5  15
ATOM     15  C   UNL     1      -2.756  -0.788  24.644  0.00  0.00    +0.121 A 
ATOM     18  C   UNL     1      -3.416   0.040  23.736  0.00  0.00    +0.046 A 
ATOM     19  C   UNL     1      -3.204  -0.875  25.962  0.00  0.00    +0.046 A 
ATOM     23  C   UNL     1      -4.522   0.783  24.146  0.00  0.00    +0.016 A 
ATOM     24  C   UNL     1      -4.311  -0.132  26.372  0.00  0.00    +0.016 A 
ATOM     25  C   UNL     1      -4.971   0.697  25.465  0.00  0.00    +0.055 A 
BRANCH  25  26
ATOM      1  F   UNL     1      -7.013   1.801  24.889  0.00  0.00    -0.166 F 
ATOM      2  F   UNL     1      -5.828   2.690  26.473  0.00  0.00    -0.166 F 
ATOM      3  F   UNL     1      -6.908   0.837  26.835  0.00  0.00    -0.166 F 
ATOM     26  C   UNL     1      -6.153   1.491  25.904  0.00  0.00    +0.417 C 
ENDBRANCH  25  26
ENDBRANCH   5  15
ENDBRANCH   9   5
BRANCH   7  12
ATOM     12  C   UNL     1       0.278   2.538  25.618  0.00  0.00    +0.119 C 
BRANCH  12  14
ATOM     14  C   UNL     1      -1.088   3.072  25.280  0.00  0.00    -0.033 A 
ATOM     16  C   UNL     1      -1.937   3.510  26.295  0.00  0.00    +0.008 A 
ATOM     17  C   UNL     1      -1.506   3.126  23.950  0.00  0.00    +0.008 A 
ATOM     20  C   UNL     1      -3.203   4.004  25.982  0.00  0.00    +0.046 A 
ATOM     21  C   UNL     1      -2.772   3.620  23.636  0.00  0.00    +0.046 A 
ATOM     22  C   UNL     1      -3.621   4.059  24.653  0.00  0.00    +0.120 A 
BRANCH  22   6
ATOM      6  O   UNL     1      -4.857   4.540  24.347  0.00  0.00    -0.495 OA
ATOM     27  C   UNL     1      -5.642   5.046  25.426  0.00  0.00    +0.277 C 
ENDBRANCH  22   6
ENDBRANCH  12  14
ENDBRANCH   7  12
TORSDOF 6
ENDMDL
MODEL 9
REMARK VINA RESULT:      -0.6      2.534      4.594
REMARK  Name = 75367657
REMARK  7 active torsions:
REMARK  status: ('A' for Active; 'I' for Inactive)
REMARK    1  A    between atoms: O_5  and  C_9
REMARK    2  A    between atoms: O_5  and  C_15
REMARK    3  A    between atoms: O_6  and  C_22
REMARK    4  A    between atoms: O_6  and  C_27
REMARK    5  A    between atoms: N_7  and  C_12
REMARK    6  A    between atoms: C_12  and  C_14
REMARK    7  A    between atoms: C_25  and  C_26
REMARK                            x       y       z     vdW  Elec       q    Type
REMARK                         _______ _______ _______ _____ _____    ______ ____
ROOT
ATOM      4  O   UNL     1       2.199  -1.098  23.844  0.00  0.00    -0.375 OA
ATOM      7  N   UNL     1       1.087   1.558  23.845  0.00  0.00    -0.292 NA
ATOM      8  C   UNL     1      -0.090   0.805  23.413  0.00  0.00    +0.131 C 
ATOM      9  C   UNL     1      -0.184  -0.538  24.151  0.00  0.00    +0.213 C 
ATOM     10  C   UNL     1       2.319   1.231  23.118  0.00  0.00    +0.113 C 
ATOM     11  C   UNL     1       0.862  -1.578  23.760  0.00  0.00    +0.205 C 
ATOM     13  C   UNL     1       2.533  -0.238  22.762  0.00  0.00    +0.175 C 
ENDROOT
BRANCH   9   5
ATOM      5  O   UNL     1      -1.480  -1.085  23.904  0.00  0.00    -0.485 OA
BRANCH   5  15
ATOM     15  C   UNL     1      -2.548  -0.309  24.263  0.00  0.00    +0.121 A 
ATOM     18  C   UNL     1      -2.866   0.827  23.518  0.00  0.00    +0.046 A 
ATOM     19  C   UNL     1      -3.319  -0.653  25.373  0.00  0.00    +0.046 A 
ATOM     23  C   UNL     1      -3.954   1.619  23.884  0.00  0.00    +0.016 A 
ATOM     24  C   UNL     1      -4.407   0.140  25.739  0.00  0.00    +0.016 A 
ATOM     25  C   UNL     1      -4.725   1.276  24.995  0.00  0.00    +0.055 A 
BRANCH  25  26
ATOM      1  F   UNL     1      -5.681   3.459  25.199  0.00  0.00    -0.166 F 
ATOM      2  F   UNL     1      -6.237   1.998  26.702  0.00  0.00    -0.166 F 
ATOM      3  F   UNL     1      -7.016   1.824  24.679  0.00  0.00    -0.166 F 
ATOM     26  C   UNL     1      -5.888   2.122  25.386  0.00  0.00    +0.417 C 
ENDBRANCH  25  26
ENDBRANCH   5  15
ENDBRANCH   9   5
BRANCH   7  12
ATOM     12  C   UNL     1       0.846   3.001  23.799  0.00  0.00    +0.119 C 
BRANCH  12  14
ATOM     14  C   UNL     1      -0.337   3.399  24.640  0.00  0.00    -0.033 A 
ATOM     16  C   UNL     1      -1.096   4.516  24.292  0.00  0.00    +0.008 A 
ATOM     17  C   UNL     1      -0.674   2.652  25.769  0.00  0.00    +0.008 A 
ATOM     20  C   UNL     1      -2.192   4.886  25.071  0.00  0.00    +0.046 A 
ATOM     21  C   UNL     1      -1.769   3.021  26.549  0.00  0.00    +0.046 A 
ATOM     22  C   UNL     1      -2.529   4.138  26.200  0.00  0.00    +0.120 A 
BRANCH  22   6
ATOM      6  O   UNL     1      -3.597   4.499  26.961  0.00  0.00    -0.495 OA
ATOM     27  C   UNL     1      -3.597   4.073  28.324  0.00  0.00    +0.277 C 
ENDBRANCH  22   6
ENDBRANCH  12  14
ENDBRANCH   7  12
TORSDOF 6
ENDMDL
MODEL 10
REMARK VINA RESULT:       0.5      3.939      4.693
REMARK  Name = 75367657
REMARK  7 active torsions:
REMARK  status: ('A' for Active; 'I' for Inactive)
REMARK    1  A    between atoms: O_5  and  C_9
REMARK    2  A    between atoms: O_5  and  C_15
REMARK    3  A    between atoms: O_6  and  C_22
REMARK    4  A    between atoms: O_6  and  C_27
REMARK    5  A    between atoms: N_7  and  C_12
REMARK    6  A    between atoms: C_12  and  C_14
REMARK    7  A    between atoms: C_25  and  C_26
REMARK                            x       y       z     vdW  Elec       q    Type
REMARK                         _______ _______ _______ _____ _____    ______ ____
ROOT
ATOM      4  O   UNL     1      -0.436  -1.870  25.585  0.00  0.00    -0.375 OA
ATOM      7  N   UNL     1      -2.777  -0.788  24.305  0.00  0.00    -0.292 NA
ATOM      8  C   UNL     1      -1.756   0.064  23.698  0.00  0.00    +0.131 C 
ATOM      9  C   UNL     1      -0.482  -0.737  23.394  0.00  0.00    +0.213 C 
ATOM     10  C   UNL     1      -2.677  -0.913  25.764  0.00  0.00    +0.113 C 
ATOM     11  C   UNL     1       0.329  -1.168  24.612  0.00  0.00    +0.205 C 
ATOM     13  C   UNL     1      -1.268  -1.002  26.346  0.00  0.00    +0.175 C 
ENDROOT
BRANCH   9   5
ATOM      5  O   UNL     1       0.351   0.064  22.555  0.00  0.00    -0.485 OA
BRANCH   5  15
ATOM     15  C   UNL     1       1.691   0.044  22.828  0.00  0.00    +0.121 A 
ATOM     18  C   UNL     1       2.428   1.227  22.790  0.00  0.00    +0.046 A 
ATOM     19  C   UNL     1       2.321  -1.160  23.143  0.00  0.00    +0.046 A 
ATOM     23  C   UNL     1       3.795   1.207  23.066  0.00  0.00    +0.016 A 
ATOM     24  C   UNL     1       3.688  -1.181  23.418  0.00  0.00    +0.016 A 
ATOM     25  C   UNL     1       4.425   0.003  23.381  0.00  0.00    +0.055 A 
BRANCH  25  26
ATOM      1  F   UNL     1       6.386   1.191  24.063  0.00  0.00    -0.166 F 
ATOM      2  F   UNL     1       6.655  -0.397  22.610  0.00  0.00    -0.166 F 
ATOM      3  F   UNL     1       6.206  -0.886  24.681  0.00  0.00    -0.166 F 
ATOM     26  C   UNL     1       5.886  -0.020  23.676  0.00  0.00    +0.417 C 
ENDBRANCH  25  26
ENDBRANCH   5  15
ENDBRANCH   9   5
BRANCH   7  12
ATOM     12  C   UNL     1      -4.126  -0.358  23.932  0.00  0.00    +0.119 C 
BRANCH  12  14
ATOM     14  C   UNL     1      -4.433   1.025  24.438  0.00  0.00    -0.033 A 
ATOM     16  C   UNL     1      -5.516   1.231  25.293  0.00  0.00    +0.008 A 
ATOM     17  C   UNL     1      -3.636   2.103  24.051  0.00  0.00    +0.008 A 
ATOM     20  C   UNL     1      -5.801   2.513  25.762  0.00  0.00    +0.046 A 
ATOM     21  C   UNL     1      -3.921   3.385  24.520  0.00  0.00    +0.046 A 
ATOM     22  C   UNL     1      -5.004   3.590  25.375  0.00  0.00    +0.120 A 
BRANCH  22   6
ATOM      6  O   UNL     1      -5.282   4.842  25.832  0.00  0.00    -0.495 OA
ATOM     27  C   UNL     1      -6.537   5.407  25.451  0.00  0.00    +0.277 C 
ENDBRANCH  22   6
ENDBRANCH  12  14
ENDBRANCH   7  12
TORSDOF 6
ENDMDL
