MODEL 1
REMARK VINA RESULT:      -2.9      0.000      0.000
REMARK  Name = 11882077
REMARK  9 active torsions:
REMARK  status: ('A' for Active; 'I' for Inactive)
REMARK    1  A    between atoms: N_6  and  C_12
REMARK    2  A    between atoms: N_7  and  C_18
REMARK    3  A    between atoms: N_8  and  C_25
REMARK    4  A    between atoms: C_13  and  C_16
REMARK    5  A    between atoms: C_17  and  C_20
REMARK    6  A    between atoms: C_18  and  C_21
REMARK    7  A    between atoms: C_18  and  C_22
REMARK    8  A    between atoms: C_21  and  C_23
REMARK    9  A    between atoms: C_25  and  C_30
REMARK                            x       y       z     vdW  Elec       q    Type
REMARK                         _______ _______ _______ _____ _____    ______ ____
ROOT
ATOM      2  O   UNL     1       0.030   3.773  25.602  0.00  0.00    -0.268 OA
ATOM      5  N   UNL     1      -0.195   1.454  25.568  0.00  0.00    -0.283 N 
ATOM     12  C   UNL     1      -0.396  -0.144  23.827  0.00  0.00    +0.105 C 
ATOM     13  C   UNL     1      -0.572   1.338  24.163  0.00  0.00    +0.182 C 
ATOM     14  C   UNL     1      -0.619  -0.842  25.170  0.00  0.00    +0.043 C 
ATOM     15  C   UNL     1      -0.050   0.138  26.189  0.00  0.00    +0.111 C 
ATOM     17  C   UNL     1       0.157   2.673  26.134  0.00  0.00    +0.267 C 
ENDROOT
BRANCH  12   6
ATOM      3  O   UNL     1       1.773   1.742  23.557  0.00  0.00    -0.253 OA
ATOM      6  N   UNL     1       0.929  -0.409  23.320  0.00  0.00    -0.294 N 
ATOM      8  N   UNL     1       3.098   0.040  22.702  0.00  0.00    -0.296 N 
ATOM     19  C   UNL     1       1.920   0.567  23.224  0.00  0.00    +0.300 C 
ATOM     35  H   UNL     1       1.175  -1.365  23.079  0.00  0.00    +0.151 HD
ATOM     37  H   UNL     1       3.132  -0.948  22.473  0.00  0.00    +0.151 HD
BRANCH   8  25
ATOM     25  C   UNL     1       4.286   0.836  22.496  0.00  0.00    +0.132 C 
BRANCH  25  30
ATOM     30  C   UNL     1       5.327   0.421  23.481  0.00  0.00    -0.016 C 
ATOM     34  C   UNL     1       5.301  -0.736  24.153  0.00  0.00    +0.005 C 
ENDBRANCH  25  30
ENDBRANCH   8  25
ENDBRANCH  12   6
BRANCH  17  20
ATOM      9  N   UNL     1       2.073   2.795  27.569  0.00  0.00    -0.247 NA
ATOM     11  N   UNL     1       0.472   2.431  29.843  0.00  0.00    -0.259 NA
ATOM     20  C   UNL     1       0.738   2.641  27.483  0.00  0.00    +0.144 A 
ATOM     24  C   UNL     1      -0.049   2.462  28.599  0.00  0.00    +0.143 A 
ATOM     28  C   UNL     1       2.594   2.765  28.811  0.00  0.00    +0.131 A 
ATOM     29  C   UNL     1       1.808   2.586  29.928  0.00  0.00    +0.130 A 
ENDBRANCH  17  20
BRANCH  13  16
ATOM      1  O   UNL     1      -2.547   2.002  22.996  0.00  0.00    -0.274 OA
ATOM      7  N   UNL     1      -2.605   1.854  25.320  0.00  0.00    -0.302 N 
ATOM     16  C   UNL     1      -2.008   1.759  24.074  0.00  0.00    +0.236 C 
ATOM     36  H   UNL     1      -2.075   1.576  26.141  0.00  0.00    +0.150 HD
BRANCH   7  18
ATOM     18  C   UNL     1      -3.978   2.262  25.510  0.00  0.00    +0.163 C 
BRANCH  18  22
ATOM      4  O   UNL     1      -5.167   4.092  24.443  0.00  0.00    -0.274 OA
ATOM     10  N   UNL     1      -2.954   4.388  24.982  0.00  0.00    -0.328 N 
ATOM     22  C   UNL     1      -4.119   3.653  24.907  0.00  0.00    +0.231 C 
ATOM     38  H   UNL     1      -2.915   5.338  24.629  0.00  0.00    +0.145 HD
ATOM     39  H   UNL     1      -2.101   4.019  25.391  0.00  0.00    +0.145 HD
ENDBRANCH  18  22
BRANCH  18  21
ATOM     21  C   UNL     1      -4.967   1.293  24.854  0.00  0.00    +0.067 C 
BRANCH  21  23
ATOM     23  C   UNL     1      -4.468  -0.131  24.842  0.00  0.00    -0.045 A 
ATOM     26  C   UNL     1      -3.924  -0.690  25.998  0.00  0.00    +0.004 A 
ATOM     27  C   UNL     1      -4.550  -0.889  23.673  0.00  0.00    +0.004 A 
ATOM     31  C   UNL     1      -3.462  -2.006  25.985  0.00  0.00    +0.000 A 
ATOM     32  C   UNL     1      -4.088  -2.205  23.660  0.00  0.00    +0.000 A 
ATOM     33  C   UNL     1      -3.544  -2.764  24.817  0.00  0.00    +0.000 A 
ENDBRANCH  21  23
ENDBRANCH  18  21
ENDBRANCH   7  18
ENDBRANCH  13  16
TORSDOF 9
ENDMDL
MODEL 2
REMARK VINA RESULT:      -1.5      2.364      4.613
REMARK  Name = 11882077
REMARK  9 active torsions:
REMARK  status: ('A' for Active; 'I' for Inactive)
REMARK    1  A    between atoms: N_6  and  C_12
REMARK    2  A    between atoms: N_7  and  C_18
REMARK    3  A    between atoms: N_8  and  C_25
REMARK    4  A    between atoms: C_13  and  C_16
REMARK    5  A    between atoms: C_17  and  C_20
REMARK    6  A    between atoms: C_18  and  C_21
REMARK    7  A    between atoms: C_18  and  C_22
REMARK    8  A    between atoms: C_21  and  C_23
REMARK    9  A    between atoms: C_25  and  C_30
REMARK                            x       y       z     vdW  Elec       q    Type
REMARK                         _______ _______ _______ _____ _____    ______ ____
ROOT
ATOM      2  O   UNL     1      -1.668  -0.579  26.687  0.00  0.00    -0.268 OA
ATOM      5  N   UNL     1      -1.139   0.311  24.600  0.00  0.00    -0.283 N 
ATOM     12  C   UNL     1       0.719   1.522  23.762  0.00  0.00    +0.105 C 
ATOM     13  C   UNL     1      -0.023   1.140  25.043  0.00  0.00    +0.182 C 
ATOM     14  C   UNL     1      -0.375   1.491  22.694  0.00  0.00    +0.043 C 
ATOM     15  C   UNL     1      -1.294   0.363  23.147  0.00  0.00    +0.111 C 
ATOM     17  C   UNL     1      -1.807  -0.545  25.467  0.00  0.00    +0.267 C 
ENDROOT
BRANCH  12   6
ATOM      3  O   UNL     1       3.390   2.107  22.838  0.00  0.00    -0.253 OA
ATOM      6  N   UNL     1       1.762   0.572  23.461  0.00  0.00    -0.294 N 
ATOM      8  N   UNL     1       3.838  -0.169  22.803  0.00  0.00    -0.296 N 
ATOM     19  C   UNL     1       3.030   0.944  23.017  0.00  0.00    +0.300 C 
ATOM     35  H   UNL     1       1.589  -0.413  23.640  0.00  0.00    +0.151 HD
ATOM     37  H   UNL     1       3.460  -1.091  22.996  0.00  0.00    +0.151 HD
BRANCH   8  25
ATOM     25  C   UNL     1       5.202  -0.068  22.340  0.00  0.00    +0.132 C 
BRANCH  25  30
ATOM     30  C   UNL     1       6.124  -0.226  23.502  0.00  0.00    -0.016 C 
ATOM     34  C   UNL     1       5.729  -0.610  24.722  0.00  0.00    +0.005 C 
ENDBRANCH  25  30
ENDBRANCH   8  25
ENDBRANCH  12   6
BRANCH  17  20
ATOM      9  N   UNL     1      -2.349  -2.777  24.782  0.00  0.00    -0.247 NA
ATOM     11  N   UNL     1      -4.874  -1.954  23.880  0.00  0.00    -0.259 NA
ATOM     20  C   UNL     1      -2.755  -1.496  24.872  0.00  0.00    +0.144 A 
ATOM     24  C   UNL     1      -3.995  -1.091  24.429  0.00  0.00    +0.143 A 
ATOM     28  C   UNL     1      -3.227  -3.640  24.234  0.00  0.00    +0.131 A 
ATOM     29  C   UNL     1      -4.467  -3.236  23.791  0.00  0.00    +0.130 A 
ENDBRANCH  17  20
BRANCH  13  16
ATOM      1  O   UNL     1      -0.330   2.655  26.863  0.00  0.00    -0.274 OA
ATOM      7  N   UNL     1      -1.536   2.991  24.899  0.00  0.00    -0.302 N 
ATOM     16  C   UNL     1      -0.626   2.338  25.713  0.00  0.00    +0.236 C 
ATOM     36  H   UNL     1      -1.661   2.669  23.944  0.00  0.00    +0.150 HD
BRANCH   7  18
ATOM     18  C   UNL     1      -2.272   4.162  25.317  0.00  0.00    +0.163 C 
BRANCH  18  22
ATOM      4  O   UNL     1      -1.733   6.530  25.241  0.00  0.00    -0.274 OA
ATOM     10  N   UNL     1      -0.128   5.018  24.596  0.00  0.00    -0.328 N 
ATOM     22  C   UNL     1      -1.386   5.369  25.044  0.00  0.00    +0.231 C 
ATOM     38  H   UNL     1       0.567   5.728  24.390  0.00  0.00    +0.145 HD
ATOM     39  H   UNL     1       0.152   4.052  24.461  0.00  0.00    +0.145 HD
ENDBRANCH  18  22
BRANCH  18  21
ATOM     21  C   UNL     1      -3.607   4.302  24.578  0.00  0.00    +0.067 C 
BRANCH  21  23
ATOM     23  C   UNL     1      -4.629   3.283  25.022  0.00  0.00    -0.045 A 
ATOM     26  C   UNL     1      -5.050   2.287  24.141  0.00  0.00    +0.004 A 
ATOM     27  C   UNL     1      -5.153   3.339  26.314  0.00  0.00    +0.004 A 
ATOM     31  C   UNL     1      -5.994   1.347  24.551  0.00  0.00    +0.000 A 
ATOM     32  C   UNL     1      -6.097   2.398  26.725  0.00  0.00    +0.000 A 
ATOM     33  C   UNL     1      -6.518   1.401  25.843  0.00  0.00    +0.000 A 
ENDBRANCH  21  23
ENDBRANCH  18  21
ENDBRANCH   7  18
ENDBRANCH  13  16
TORSDOF 9
ENDMDL
MODEL 3
REMARK VINA RESULT:       1.1      2.563      4.591
REMARK  Name = 11882077
REMARK  9 active torsions:
REMARK  status: ('A' for Active; 'I' for Inactive)
REMARK    1  A    between atoms: N_6  and  C_12
REMARK    2  A    between atoms: N_7  and  C_18
REMARK    3  A    between atoms: N_8  and  C_25
REMARK    4  A    between atoms: C_13  and  C_16
REMARK    5  A    between atoms: C_17  and  C_20
REMARK    6  A    between atoms: C_18  and  C_21
REMARK    7  A    between atoms: C_18  and  C_22
REMARK    8  A    between atoms: C_21  and  C_23
REMARK    9  A    between atoms: C_25  and  C_30
REMARK                            x       y       z     vdW  Elec       q    Type
REMARK                         _______ _______ _______ _____ _____    ______ ____
ROOT
ATOM      2  O   UNL     1      -2.382   0.270  26.060  0.00  0.00    -0.268 OA
ATOM      5  N   UNL     1      -1.218   0.129  24.047  0.00  0.00    -0.283 N 
ATOM     12  C   UNL     1       0.875   0.961  23.306  0.00  0.00    +0.105 C 
ATOM     13  C   UNL     1      -0.227   1.158  24.347  0.00  0.00    +0.182 C 
ATOM     14  C   UNL     1       0.136   0.347  22.116  0.00  0.00    +0.043 C 
ATOM     15  C   UNL     1      -0.943  -0.512  22.762  0.00  0.00    +0.111 C 
ATOM     17  C   UNL     1      -2.160  -0.278  24.983  0.00  0.00    +0.267 C 
ENDROOT
BRANCH  12   6
ATOM      3  O   UNL     1       3.434   0.419  22.088  0.00  0.00    -0.253 OA
ATOM      6  N   UNL     1       1.899   0.069  23.795  0.00  0.00    -0.294 N 
ATOM      8  N   UNL     1       3.912  -1.042  23.825  0.00  0.00    -0.296 N 
ATOM     19  C   UNL     1       3.112  -0.134  23.138  0.00  0.00    +0.300 C 
ATOM     35  H   UNL     1       1.760  -0.386  24.691  0.00  0.00    +0.151 HD
ATOM     37  H   UNL     1       3.570  -1.434  24.696  0.00  0.00    +0.151 HD
BRANCH   8  25
ATOM     25  C   UNL     1       5.224  -1.433  23.364  0.00  0.00    +0.132 C 
BRANCH  25  30
ATOM     30  C   UNL     1       6.152  -0.272  23.489  0.00  0.00    -0.016 C 
ATOM     34  C   UNL     1       5.950   0.758  24.320  0.00  0.00    +0.005 C 
ENDBRANCH  25  30
ENDBRANCH   8  25
ENDBRANCH  12   6
BRANCH  17  20
ATOM      9  N   UNL     1      -3.957  -1.308  23.776  0.00  0.00    -0.247 NA
ATOM     11  N   UNL     1      -3.401  -3.795  24.947  0.00  0.00    -0.259 NA
ATOM     20  C   UNL     1      -2.953  -1.471  24.660  0.00  0.00    +0.144 A 
ATOM     24  C   UNL     1      -2.680  -2.692  25.235  0.00  0.00    +0.143 A 
ATOM     28  C   UNL     1      -4.678  -2.409  23.488  0.00  0.00    +0.131 A 
ATOM     29  C   UNL     1      -4.405  -3.631  24.063  0.00  0.00    +0.130 A 
ENDBRANCH  17  20
BRANCH  13  16
ATOM      1  O   UNL     1      -0.978   3.044  23.088  0.00  0.00    -0.274 OA
ATOM      7  N   UNL     1      -1.444   2.951  25.368  0.00  0.00    -0.302 N 
ATOM     16  C   UNL     1      -0.921   2.476  24.177  0.00  0.00    +0.236 C 
ATOM     36  H   UNL     1      -1.383   2.369  26.198  0.00  0.00    +0.150 HD
BRANCH   7  18
ATOM     18  C   UNL     1      -2.142   4.212  25.478  0.00  0.00    +0.163 C 
BRANCH  18  22
ATOM      4  O   UNL     1       0.054   5.131  24.993  0.00  0.00    -0.274 OA
ATOM     10  N   UNL     1      -1.779   6.500  24.786  0.00  0.00    -0.328 N 
ATOM     22  C   UNL     1      -1.158   5.304  25.083  0.00  0.00    +0.231 C 
ATOM     38  H   UNL     1      -1.239   7.308  24.494  0.00  0.00    +0.145 HD
ATOM     39  H   UNL     1      -2.786   6.620  24.841  0.00  0.00    +0.145 HD
ENDBRANCH  18  22
BRANCH  18  21
ATOM     21  C   UNL     1      -3.386   4.266  24.585  0.00  0.00    +0.067 C 
BRANCH  21  23
ATOM     23  C   UNL     1      -4.425   3.240  24.969  0.00  0.00    -0.045 A 
ATOM     26  C   UNL     1      -5.130   3.374  26.165  0.00  0.00    +0.004 A 
ATOM     27  C   UNL     1      -4.679   2.156  24.127  0.00  0.00    +0.004 A 
ATOM     31  C   UNL     1      -6.088   2.425  26.519  0.00  0.00    +0.000 A 
ATOM     32  C   UNL     1      -5.638   1.208  24.481  0.00  0.00    +0.000 A 
ATOM     33  C   UNL     1      -6.344   1.342  25.678  0.00  0.00    +0.000 A 
ENDBRANCH  21  23
ENDBRANCH  18  21
ENDBRANCH   7  18
ENDBRANCH  13  16
TORSDOF 9
ENDMDL
