MODEL 1
REMARK VINA RESULT:      -4.3      0.000      0.000
REMARK  Name = 45783771
REMARK  8 active torsions:
REMARK  status: ('A' for Active; 'I' for Inactive)
REMARK    1  A    between atoms: O_3  and  C_21
REMARK    2  A    between atoms: N_4  and  C_13
REMARK    3  A    between atoms: N_8  and  C_25
REMARK    4  A    between atoms: N_8  and  C_26
REMARK    5  A    between atoms: C_9  and  C_14
REMARK    6  A    between atoms: C_13  and  C_15
REMARK    7  A    between atoms: C_17  and  C_20
REMARK    8  A    between atoms: C_18  and  C_21
REMARK                            x       y       z     vdW  Elec       q    Type
REMARK                         _______ _______ _______ _____ _____    ______ ____
ROOT
ATOM      4  N   UNL     1      -4.919   1.201  24.938  0.00  0.00    -0.284 NA
ATOM      9  C   UNL     1      -4.187   2.337  24.341  0.00  0.00    +0.146 C 
ATOM     10  C   UNL     1      -4.713   3.577  25.089  0.00  0.00    +0.030 C 
ATOM     11  C   UNL     1      -5.779   3.046  26.037  0.00  0.00    +0.017 C 
ATOM     12  C   UNL     1      -6.197   1.734  25.406  0.00  0.00    +0.085 C 
ENDROOT
BRANCH   9  14
ATOM      1  O   UNL     1      -2.100   2.722  25.554  0.00  0.00    -0.336 OA
ATOM      5  N   UNL     1      -1.846   1.603  23.630  0.00  0.00    -0.190 NA
ATOM      6  N   UNL     1      -0.729   2.459  25.434  0.00  0.00    -0.056 NA
ATOM     14  C   UNL     1      -2.684   2.184  24.451  0.00  0.00    +0.245 A 
ATOM     17  C   UNL     1      -0.660   1.797  24.274  0.00  0.00    +0.204 A 
BRANCH  17  20
ATOM      7  N   UNL     1       2.935   1.677  23.331  0.00  0.00    -0.240 NA
ATOM     20  C   UNL     1       0.578   1.316  23.735  0.00  0.00    +0.041 A 
ATOM     22  C   UNL     1       0.655   0.075  23.112  0.00  0.00    +0.016 A 
ATOM     23  C   UNL     1       1.737   2.071  23.818  0.00  0.00    +0.124 A 
ATOM     24  C   UNL     1       1.869  -0.366  22.598  0.00  0.00    +0.044 A 
ATOM     25  C   UNL     1       2.970   0.465  22.732  0.00  0.00    +0.118 A 
BRANCH  25   8
ATOM      8  N   UNL     1       4.200   0.002  22.204  0.00  0.00    -0.332 N 
ATOM     26  C   UNL     1       5.416   0.025  22.951  0.00  0.00    +0.127 C 
ATOM     28  H   UNL     1       4.250  -0.137  21.201  0.00  0.00    +0.147 HD
ENDBRANCH  25   8
ENDBRANCH  17  20
ENDBRANCH   9  14
BRANCH   4  13
ATOM     13  C   UNL     1      -5.094   0.086  24.017  0.00  0.00    +0.159 C 
BRANCH  13  15
ATOM      2  O   UNL     1      -2.954  -0.678  24.894  0.00  0.00    -0.461 OA
ATOM     15  C   UNL     1      -4.124  -1.032  24.299  0.00  0.00    +0.119 A 
ATOM     16  C   UNL     1      -4.163  -2.389  24.077  0.00  0.00    +0.046 A 
ATOM     18  C   UNL     1      -2.239  -1.822  25.054  0.00  0.00    +0.131 A 
ATOM     19  C   UNL     1      -2.938  -2.902  24.568  0.00  0.00    +0.047 A 
BRANCH  18  21
ATOM     21  C   UNL     1      -0.920  -1.681  25.688  0.00  0.00    +0.230 C 
BRANCH  21   3
ATOM      3  O   UNL     1      -0.878  -0.493  26.483  0.00  0.00    -0.387 OA
ATOM     27  H   UNL     1       0.060  -0.269  26.610  0.00  0.00    +0.210 HD
ENDBRANCH  21   3
ENDBRANCH  18  21
ENDBRANCH  13  15
ENDBRANCH   4  13
TORSDOF 7
ENDMDL
MODEL 2
REMARK VINA RESULT:      -2.8      1.879      3.412
REMARK  Name = 45783771
REMARK  8 active torsions:
REMARK  status: ('A' for Active; 'I' for Inactive)
REMARK    1  A    between atoms: O_3  and  C_21
REMARK    2  A    between atoms: N_4  and  C_13
REMARK    3  A    between atoms: N_8  and  C_25
REMARK    4  A    between atoms: N_8  and  C_26
REMARK    5  A    between atoms: C_9  and  C_14
REMARK    6  A    between atoms: C_13  and  C_15
REMARK    7  A    between atoms: C_17  and  C_20
REMARK    8  A    between atoms: C_18  and  C_21
REMARK                            x       y       z     vdW  Elec       q    Type
REMARK                         _______ _______ _______ _____ _____    ______ ____
ROOT
ATOM      4  N   UNL     1      -4.844   2.832  25.230  0.00  0.00    -0.284 NA
ATOM      9  C   UNL     1      -4.175   1.515  25.275  0.00  0.00    +0.146 C 
ATOM     10  C   UNL     1      -5.278   0.505  24.907  0.00  0.00    +0.030 C 
ATOM     11  C   UNL     1      -6.540   1.339  24.736  0.00  0.00    +0.017 C 
ATOM     12  C   UNL     1      -6.252   2.591  25.539  0.00  0.00    +0.085 C 
ENDROOT
BRANCH   9  14
ATOM      1  O   UNL     1      -3.179   1.849  23.068  0.00  0.00    -0.336 OA
ATOM      5  N   UNL     1      -1.762   1.026  24.595  0.00  0.00    -0.190 NA
ATOM      6  N   UNL     1      -1.951   1.685  22.413  0.00  0.00    -0.056 NA
ATOM     14  C   UNL     1      -2.980   1.437  24.348  0.00  0.00    +0.245 A 
ATOM     17  C   UNL     1      -1.168   1.196  23.380  0.00  0.00    +0.204 A 
BRANCH  17  20
ATOM      7  N   UNL     1       2.542   1.432  23.473  0.00  0.00    -0.240 NA
ATOM     20  C   UNL     1       0.211   0.870  23.162  0.00  0.00    +0.041 A 
ATOM     22  C   UNL     1       0.574  -0.276  22.460  0.00  0.00    +0.016 A 
ATOM     23  C   UNL     1       1.224   1.682  23.644  0.00  0.00    +0.124 A 
ATOM     24  C   UNL     1       1.919  -0.567  22.264  0.00  0.00    +0.044 A 
ATOM     25  C   UNL     1       2.856   0.311  22.786  0.00  0.00    +0.118 A 
BRANCH  25   8
ATOM      8  N   UNL     1       4.222  -0.000  22.579  0.00  0.00    -0.332 N 
ATOM     26  C   UNL     1       5.232   0.284  23.546  0.00  0.00    +0.127 C 
ATOM     28  H   UNL     1       4.507  -0.224  21.632  0.00  0.00    +0.147 HD
ENDBRANCH  25   8
ENDBRANCH  17  20
ENDBRANCH   9  14
BRANCH   4  13
ATOM     13  C   UNL     1      -4.244   3.810  26.129  0.00  0.00    +0.159 C 
BRANCH  13  15
ATOM      2  O   UNL     1      -1.869   3.329  26.371  0.00  0.00    -0.461 OA
ATOM     15  C   UNL     1      -2.812   4.100  25.767  0.00  0.00    +0.119 A 
ATOM     16  C   UNL     1      -2.221   5.013  24.925  0.00  0.00    +0.046 A 
ATOM     18  C   UNL     1      -0.665   3.754  25.909  0.00  0.00    +0.131 A 
ATOM     19  C   UNL     1      -0.826   4.788  25.017  0.00  0.00    +0.047 A 
BRANCH  18  21
ATOM     21  C   UNL     1       0.517   3.053  26.433  0.00  0.00    +0.230 C 
BRANCH  21   3
ATOM      3  O   UNL     1       0.158   1.742  26.875  0.00  0.00    -0.387 OA
ATOM     27  H   UNL     1       0.893   1.416  27.422  0.00  0.00    +0.210 HD
ENDBRANCH  21   3
ENDBRANCH  18  21
ENDBRANCH  13  15
ENDBRANCH   4  13
TORSDOF 7
ENDMDL
MODEL 3
REMARK VINA RESULT:      -1.9      1.703      3.917
REMARK  Name = 45783771
REMARK  8 active torsions:
REMARK  status: ('A' for Active; 'I' for Inactive)
REMARK    1  A    between atoms: O_3  and  C_21
REMARK    2  A    between atoms: N_4  and  C_13
REMARK    3  A    between atoms: N_8  and  C_25
REMARK    4  A    between atoms: N_8  and  C_26
REMARK    5  A    between atoms: C_9  and  C_14
REMARK    6  A    between atoms: C_13  and  C_15
REMARK    7  A    between atoms: C_17  and  C_20
REMARK    8  A    between atoms: C_18  and  C_21
REMARK                            x       y       z     vdW  Elec       q    Type
REMARK                         _______ _______ _______ _____ _____    ______ ____
ROOT
ATOM      4  N   UNL     1      -3.870  -0.411  24.496  0.00  0.00    -0.284 NA
ATOM      9  C   UNL     1      -2.633  -1.155  24.813  0.00  0.00    +0.146 C 
ATOM     10  C   UNL     1      -2.861  -2.560  24.225  0.00  0.00    +0.030 C 
ATOM     11  C   UNL     1      -4.273  -2.529  23.657  0.00  0.00    +0.017 C 
ATOM     12  C   UNL     1      -4.941  -1.404  24.421  0.00  0.00    +0.085 C 
ENDROOT
BRANCH   9  14
ATOM      1  O   UNL     1      -1.575   0.718  23.652  0.00  0.00    -0.336 OA
ATOM      5  N   UNL     1      -0.150  -0.894  24.275  0.00  0.00    -0.190 NA
ATOM      6  N   UNL     1      -0.306   1.133  23.227  0.00  0.00    -0.056 NA
ATOM     14  C   UNL     1      -1.393  -0.485  24.259  0.00  0.00    +0.245 A 
ATOM     17  C   UNL     1       0.479   0.130  23.631  0.00  0.00    +0.204 A 
BRANCH  17  20
ATOM      7  N   UNL     1       3.987  -1.091  23.437  0.00  0.00    -0.240 NA
ATOM     20  C   UNL     1       1.896   0.123  23.407  0.00  0.00    +0.041 A 
ATOM     22  C   UNL     1       2.556   1.263  22.958  0.00  0.00    +0.016 A 
ATOM     23  C   UNL     1       2.650  -1.018  23.629  0.00  0.00    +0.124 A 
ATOM     24  C   UNL     1       3.930   1.227  22.750  0.00  0.00    +0.044 A 
ATOM     25  C   UNL     1       4.594   0.036  23.001  0.00  0.00    +0.118 A 
BRANCH  25   8
ATOM      8  N   UNL     1       5.993   0.015  22.784  0.00  0.00    -0.332 N 
ATOM     26  C   UNL     1       6.899  -0.647  23.665  0.00  0.00    +0.127 C 
ATOM     28  H   UNL     1       6.366   0.675  22.110  0.00  0.00    +0.147 HD
ENDBRANCH  25   8
ENDBRANCH  17  20
ENDBRANCH   9  14
BRANCH   4  13
ATOM     13  C   UNL     1      -4.166   0.643  25.457  0.00  0.00    +0.159 C 
BRANCH  13  15
ATOM      2  O   UNL     1      -2.892   2.718  25.512  0.00  0.00    -0.461 OA
ATOM     15  C   UNL     1      -3.876   2.011  24.897  0.00  0.00    +0.119 A 
ATOM     16  C   UNL     1      -4.411   2.733  23.856  0.00  0.00    +0.046 A 
ATOM     18  C   UNL     1      -2.798   3.904  24.856  0.00  0.00    +0.131 A 
ATOM     19  C   UNL     1      -3.710   3.963  23.830  0.00  0.00    +0.047 A 
BRANCH  18  21
ATOM     21  C   UNL     1      -1.783   4.844  25.355  0.00  0.00    +0.230 C 
BRANCH  21   3
ATOM      3  O   UNL     1      -0.532   4.614  24.700  0.00  0.00    -0.387 OA
ATOM     27  H   UNL     1       0.167   4.858  25.330  0.00  0.00    +0.210 HD
ENDBRANCH  21   3
ENDBRANCH  18  21
ENDBRANCH  13  15
ENDBRANCH   4  13
TORSDOF 7
ENDMDL
