MODEL 1
REMARK VINA RESULT:      -3.7      0.000      0.000
REMARK  Name = 38027389
REMARK  17 active torsions:
REMARK  status: ('A' for Active; 'I' for Inactive)
REMARK    1  A    between atoms: S_1  and  N_6
REMARK    2  A    between atoms: S_1  and  C_22
REMARK    3  A    between atoms: O_5  and  C_29
REMARK    4  A    between atoms: O_5  and  C_32
REMARK    5  A    between atoms: N_6  and  C_16
REMARK    6  A    between atoms: N_7  and  C_23
REMARK    7  A    between atoms: N_8  and  C_24
REMARK    8  A    between atoms: N_8  and  C_30
REMARK    9  A    between atoms: N_8  and  C_31
REMARK   10  A    between atoms: C_9  and  C_13
REMARK   11  A    between atoms: C_10  and  C_16
REMARK   12  A    between atoms: C_12  and  C_17
REMARK   13  A    between atoms: C_13  and  C_18
REMARK   14  A    between atoms: C_13  and  C_19
REMARK   15  A    between atoms: C_14  and  C_20
REMARK   16  A    between atoms: C_17  and  C_21
REMARK   17  A    between atoms: C_23  and  C_24
REMARK                            x       y       z     vdW  Elec       q    Type
REMARK                         _______ _______ _______ _____ _____    ______ ____
ROOT
ATOM      9  C   UNL     1      -2.291  -1.355  24.209  0.00  0.00    +0.000 C 
ATOM     10  C   UNL     1      -2.987  -0.505  25.302  0.00  0.00    +0.030 C 
ATOM     11  C   UNL     1      -0.778  -1.424  24.466  0.00  0.00    +0.012 C 
ATOM     12  C   UNL     1      -0.126  -0.029  24.488  0.00  0.00    +0.023 C 
ATOM     14  C   UNL     1      -0.913   0.947  25.339  0.00  0.00    -0.073 C 
ATOM     15  C   UNL     1      -2.186   0.711  25.703  0.00  0.00    -0.023 C 
ATOM     20  C   UNL     1      -0.188   2.181  25.799  0.00  0.00    +0.039 C 
ENDROOT
BRANCH   9  13
ATOM     13  C   UNL     1      -2.871  -2.772  24.135  0.00  0.00    -0.013 C 
ATOM     18  C   UNL     1      -3.069  -3.339  25.537  0.00  0.00    +0.007 C 
ATOM     19  C   UNL     1      -4.186  -2.768  23.362  0.00  0.00    +0.007 C 
ENDBRANCH   9  13
BRANCH  10  16
ATOM     16  C   UNL     1      -4.388  -0.069  24.855  0.00  0.00    +0.113 C 
BRANCH  16   6
ATOM      6  N   UNL     1      -5.100   0.533  25.938  0.00  0.00    -0.189 NA
ATOM     33  H   UNL     1      -5.465  -0.089  26.668  0.00  0.00    +0.148 HD
BRANCH   6   1
ATOM      1  S   UNL     1      -5.886   2.059  25.758  0.00  0.00    +0.058 S 
ATOM      3  O   UNL     1      -6.502   2.412  27.022  0.00  0.00    -0.153 OA
ATOM      4  O   UNL     1      -6.666   2.081  24.534  0.00  0.00    -0.153 OA
BRANCH   1  22
ATOM     22  C   UNL     1      -4.502   3.130  25.508  0.00  0.00    +0.105 A 
ATOM     25  C   UNL     1      -4.030   3.369  24.217  0.00  0.00    +0.032 A 
ATOM     26  C   UNL     1      -3.881   3.733  26.600  0.00  0.00    +0.032 A 
ATOM     27  C   UNL     1      -2.936   4.212  24.019  0.00  0.00    +0.047 A 
ATOM     28  C   UNL     1      -2.786   4.576  26.403  0.00  0.00    +0.047 A 
ATOM     29  C   UNL     1      -2.315   4.816  25.113  0.00  0.00    +0.120 A 
BRANCH  29   5
ATOM      5  O   UNL     1      -1.248   5.638  24.920  0.00  0.00    -0.495 OA
ATOM     32  C   UNL     1      -0.157   5.118  24.160  0.00  0.00    +0.277 C 
ENDBRANCH  29   5
ENDBRANCH   1  22
ENDBRANCH   6   1
ENDBRANCH  16   6
ENDBRANCH  10  16
BRANCH  12  17
ATOM     17  C   UNL     1       0.066   0.513  23.067  0.00  0.00    +0.103 C 
BRANCH  17  21
ATOM      2  O   UNL     1       1.508  -0.808  21.644  0.00  0.00    -0.276 OA
ATOM      7  N   UNL     1       2.432   0.850  22.985  0.00  0.00    -0.314 N 
ATOM     21  C   UNL     1       1.390   0.091  22.472  0.00  0.00    +0.214 C 
ATOM     34  H   UNL     1       2.234   1.576  23.667  0.00  0.00    +0.149 HD
BRANCH   7  23
ATOM     23  C   UNL     1       3.810   0.665  22.595  0.00  0.00    +0.119 C 
BRANCH  23  24
ATOM     24  C   UNL     1       4.745   0.812  23.785  0.00  0.00    +0.102 C 
BRANCH  24   8
ATOM      8  N   UNL     1       5.497  -0.419  23.994  0.00  0.00    -0.307 NA
ATOM     30  C   UNL     1       4.618  -1.585  23.891  0.00  0.00    +0.104 C 
ATOM     31  C   UNL     1       6.594  -0.524  23.030  0.00  0.00    +0.104 C 
ENDBRANCH  24   8
ENDBRANCH  23  24
ENDBRANCH   7  23
ENDBRANCH  17  21
ENDBRANCH  12  17
TORSDOF 11
ENDMDL
MODEL 2
REMARK VINA RESULT:      -2.5      1.792      4.793
REMARK  Name = 38027389
REMARK  17 active torsions:
REMARK  status: ('A' for Active; 'I' for Inactive)
REMARK    1  A    between atoms: S_1  and  N_6
REMARK    2  A    between atoms: S_1  and  C_22
REMARK    3  A    between atoms: O_5  and  C_29
REMARK    4  A    between atoms: O_5  and  C_32
REMARK    5  A    between atoms: N_6  and  C_16
REMARK    6  A    between atoms: N_7  and  C_23
REMARK    7  A    between atoms: N_8  and  C_24
REMARK    8  A    between atoms: N_8  and  C_30
REMARK    9  A    between atoms: N_8  and  C_31
REMARK   10  A    between atoms: C_9  and  C_13
REMARK   11  A    between atoms: C_10  and  C_16
REMARK   12  A    between atoms: C_12  and  C_17
REMARK   13  A    between atoms: C_13  and  C_18
REMARK   14  A    between atoms: C_13  and  C_19
REMARK   15  A    between atoms: C_14  and  C_20
REMARK   16  A    between atoms: C_17  and  C_21
REMARK   17  A    between atoms: C_23  and  C_24
REMARK                            x       y       z     vdW  Elec       q    Type
REMARK                         _______ _______ _______ _____ _____    ______ ____
ROOT
ATOM      9  C   UNL     1      -2.163   3.504  24.962  0.00  0.00    +0.000 C 
ATOM     10  C   UNL     1      -3.315   3.804  23.969  0.00  0.00    +0.030 C 
ATOM     11  C   UNL     1      -0.893   3.093  24.203  0.00  0.00    +0.012 C 
ATOM     12  C   UNL     1      -1.116   1.848  23.324  0.00  0.00    +0.023 C 
ATOM     14  C   UNL     1      -2.388   1.956  22.507  0.00  0.00    -0.073 C 
ATOM     15  C   UNL     1      -3.353   2.846  22.803  0.00  0.00    -0.023 C 
ATOM     20  C   UNL     1      -2.505   1.049  21.314  0.00  0.00    +0.039 C 
ENDROOT
BRANCH   9  13
ATOM     13  C   UNL     1      -1.863   4.705  25.865  0.00  0.00    -0.013 C 
ATOM     18  C   UNL     1      -1.656   5.962  25.026  0.00  0.00    +0.007 C 
ATOM     19  C   UNL     1      -2.991   4.908  26.873  0.00  0.00    +0.007 C 
ENDBRANCH   9  13
BRANCH  10  16
ATOM     16  C   UNL     1      -4.673   3.800  24.679  0.00  0.00    +0.113 C 
BRANCH  16   6
ATOM      6  N   UNL     1      -4.723   2.773  25.672  0.00  0.00    -0.189 NA
ATOM     33  H   UNL     1      -3.861   2.578  26.194  0.00  0.00    +0.148 HD
BRANCH   6   1
ATOM      1  S   UNL     1      -5.880   1.495  25.586  0.00  0.00    +0.058 S 
ATOM      3  O   UNL     1      -6.687   1.684  24.397  0.00  0.00    -0.153 OA
ATOM      4  O   UNL     1      -6.515   1.305  26.877  0.00  0.00    -0.153 OA
BRANCH   1  22
ATOM     22  C   UNL     1      -4.830   0.099  25.316  0.00  0.00    +0.105 A 
ATOM     25  C   UNL     1      -4.842  -0.555  24.084  0.00  0.00    +0.032 A 
ATOM     26  C   UNL     1      -3.991  -0.350  26.335  0.00  0.00    +0.032 A 
ATOM     27  C   UNL     1      -4.016  -1.658  23.871  0.00  0.00    +0.047 A 
ATOM     28  C   UNL     1      -3.164  -1.454  26.123  0.00  0.00    +0.047 A 
ATOM     29  C   UNL     1      -3.176  -2.107  24.892  0.00  0.00    +0.120 A 
BRANCH  29   5
ATOM      5  O   UNL     1      -2.370  -3.183  24.684  0.00  0.00    -0.495 OA
ATOM     32  C   UNL     1      -1.801  -3.327  23.382  0.00  0.00    +0.277 C 
ENDBRANCH  29   5
ENDBRANCH   1  22
ENDBRANCH   6   1
ENDBRANCH  16   6
ENDBRANCH  10  16
BRANCH  12  17
ATOM     17  C   UNL     1      -1.113   0.569  24.168  0.00  0.00    +0.103 C 
BRANCH  17  21
ATOM      2  O   UNL     1       0.381  -1.293  24.554  0.00  0.00    -0.276 OA
ATOM      7  N   UNL     1       0.937   0.308  22.964  0.00  0.00    -0.314 N 
ATOM     21  C   UNL     1       0.132  -0.259  23.942  0.00  0.00    +0.214 C 
ATOM     34  H   UNL     1       0.644   1.168  22.510  0.00  0.00    +0.149 HD
BRANCH   7  23
ATOM     23  C   UNL     1       2.192  -0.270  22.544  0.00  0.00    +0.119 C 
BRANCH  23  24
ATOM     24  C   UNL     1       3.363   0.634  22.902  0.00  0.00    +0.102 C 
BRANCH  24   8
ATOM      8  N   UNL     1       4.569  -0.158  23.107  0.00  0.00    -0.307 NA
ATOM     30  C   UNL     1       5.557   0.596  23.881  0.00  0.00    +0.104 C 
ATOM     31  C   UNL     1       4.250  -1.418  23.782  0.00  0.00    +0.104 C 
ENDBRANCH  24   8
ENDBRANCH  23  24
ENDBRANCH   7  23
ENDBRANCH  17  21
ENDBRANCH  12  17
TORSDOF 11
ENDMDL
MODEL 3
REMARK VINA RESULT:      -0.2     13.488     15.941
REMARK  Name = 38027389
REMARK  17 active torsions:
REMARK  status: ('A' for Active; 'I' for Inactive)
REMARK    1  A    between atoms: S_1  and  N_6
REMARK    2  A    between atoms: S_1  and  C_22
REMARK    3  A    between atoms: O_5  and  C_29
REMARK    4  A    between atoms: O_5  and  C_32
REMARK    5  A    between atoms: N_6  and  C_16
REMARK    6  A    between atoms: N_7  and  C_23
REMARK    7  A    between atoms: N_8  and  C_24
REMARK    8  A    between atoms: N_8  and  C_30
REMARK    9  A    between atoms: N_8  and  C_31
REMARK   10  A    between atoms: C_9  and  C_13
REMARK   11  A    between atoms: C_10  and  C_16
REMARK   12  A    between atoms: C_12  and  C_17
REMARK   13  A    between atoms: C_13  and  C_18
REMARK   14  A    between atoms: C_13  and  C_19
REMARK   15  A    between atoms: C_14  and  C_20
REMARK   16  A    between atoms: C_17  and  C_21
REMARK   17  A    between atoms: C_23  and  C_24
REMARK                            x       y       z     vdW  Elec       q    Type
REMARK                         _______ _______ _______ _____ _____    ______ ____
ROOT
ATOM      9  C   UNL     1      -3.957  -9.714  10.658  0.00  0.00    +0.000 C 
ATOM     10  C   UNL     1      -4.754 -10.273  11.864  0.00  0.00    +0.030 C 
ATOM     11  C   UNL     1      -2.564 -10.357  10.591  0.00  0.00    +0.012 C 
ATOM     12  C   UNL     1      -1.746 -10.111  11.873  0.00  0.00    +0.023 C 
ATOM     14  C   UNL     1      -2.559 -10.386  13.122  0.00  0.00    -0.073 C 
ATOM     15  C   UNL     1      -3.902 -10.468  13.095  0.00  0.00    -0.023 C 
ATOM     20  C   UNL     1      -1.790 -10.611  14.394  0.00  0.00    +0.039 C 
ENDROOT
BRANCH   9  13
ATOM     13  C   UNL     1      -4.696  -9.938   9.335  0.00  0.00    -0.013 C 
ATOM     18  C   UNL     1      -5.973 -10.739   9.568  0.00  0.00    +0.007 C 
ATOM     19  C   UNL     1      -5.010  -8.601   8.668  0.00  0.00    +0.007 C 
ENDBRANCH   9  13
BRANCH  10  16
ATOM     16  C   UNL     1      -5.946  -9.371  12.205  0.00  0.00    +0.113 C 
BRANCH  16   6
ATOM      6  N   UNL     1      -6.286  -9.484  13.589  0.00  0.00    -0.189 NA
ATOM     33  H   UNL     1      -5.575  -9.869  14.221  0.00  0.00    +0.148 HD
BRANCH   6   1
ATOM      1  S   UNL     1      -7.929  -9.613  14.102  0.00  0.00    +0.058 S 
ATOM      3  O   UNL     1      -8.516 -10.781  13.475  0.00  0.00    -0.153 OA
ATOM      4  O   UNL     1      -8.588  -8.324  14.008  0.00  0.00    -0.153 OA
BRANCH   1  22
ATOM     22  C   UNL     1      -7.723  -9.965  15.822  0.00  0.00    +0.105 A 
ATOM     25  C   UNL     1      -8.824  -9.926  16.679  0.00  0.00    +0.032 A 
ATOM     26  C   UNL     1      -6.460 -10.277  16.324  0.00  0.00    +0.032 A 
ATOM     27  C   UNL     1      -8.662 -10.199  18.036  0.00  0.00    +0.047 A 
ATOM     28  C   UNL     1      -6.298 -10.552  17.682  0.00  0.00    +0.047 A 
ATOM     29  C   UNL     1      -7.398 -10.513  18.538  0.00  0.00    +0.120 A 
BRANCH  29   5
ATOM      5  O   UNL     1      -7.239 -10.781  19.863  0.00  0.00    -0.495 OA
ATOM     32  C   UNL     1      -5.912 -10.716  20.384  0.00  0.00    +0.277 C 
ENDBRANCH  29   5
ENDBRANCH   1  22
ENDBRANCH   6   1
ENDBRANCH  16   6
ENDBRANCH  10  16
BRANCH  12  17
ATOM     17  C   UNL     1      -1.169  -8.692  11.896  0.00  0.00    +0.103 C 
BRANCH  17  21
ATOM      2  O   UNL     1       0.710  -9.408  10.551  0.00  0.00    -0.276 OA
ATOM      7  N   UNL     1       0.979  -7.654  12.052  0.00  0.00    -0.314 N 
ATOM     21  C   UNL     1       0.261  -8.650  11.407  0.00  0.00    +0.214 C 
ATOM     34  H   UNL     1       0.519  -7.074  12.747  0.00  0.00    +0.149 HD
BRANCH   7  23
ATOM     23  C   UNL     1       2.373  -7.387  11.783  0.00  0.00    +0.119 C 
BRANCH  23  24
ATOM     24  C   UNL     1       2.787  -6.025  12.319  0.00  0.00    +0.102 C 
BRANCH  24   8
ATOM      8  N   UNL     1       4.234  -5.867  12.236  0.00  0.00    -0.307 NA
ATOM     30  C   UNL     1       4.688  -4.795  13.124  0.00  0.00    +0.104 C 
ATOM     31  C   UNL     1       4.910  -7.122  12.570  0.00  0.00    +0.104 C 
ENDBRANCH  24   8
ENDBRANCH  23  24
ENDBRANCH   7  23
ENDBRANCH  17  21
ENDBRANCH  12  17
TORSDOF 11
ENDMDL
MODEL 4
REMARK VINA RESULT:      -0.0      2.364      7.060
REMARK  Name = 38027389
REMARK  17 active torsions:
REMARK  status: ('A' for Active; 'I' for Inactive)
REMARK    1  A    between atoms: S_1  and  N_6
REMARK    2  A    between atoms: S_1  and  C_22
REMARK    3  A    between atoms: O_5  and  C_29
REMARK    4  A    between atoms: O_5  and  C_32
REMARK    5  A    between atoms: N_6  and  C_16
REMARK    6  A    between atoms: N_7  and  C_23
REMARK    7  A    between atoms: N_8  and  C_24
REMARK    8  A    between atoms: N_8  and  C_30
REMARK    9  A    between atoms: N_8  and  C_31
REMARK   10  A    between atoms: C_9  and  C_13
REMARK   11  A    between atoms: C_10  and  C_16
REMARK   12  A    between atoms: C_12  and  C_17
REMARK   13  A    between atoms: C_13  and  C_18
REMARK   14  A    between atoms: C_13  and  C_19
REMARK   15  A    between atoms: C_14  and  C_20
REMARK   16  A    between atoms: C_17  and  C_21
REMARK   17  A    between atoms: C_23  and  C_24
REMARK                            x       y       z     vdW  Elec       q    Type
REMARK                         _______ _______ _______ _____ _____    ______ ____
ROOT
ATOM      9  C   UNL     1      -3.167  -0.260  24.930  0.00  0.00    +0.000 C 
ATOM     10  C   UNL     1      -2.110   0.455  24.051  0.00  0.00    +0.030 C 
ATOM     11  C   UNL     1      -4.568  -0.098  24.323  0.00  0.00    +0.012 C 
ATOM     12  C   UNL     1      -4.973   1.382  24.179  0.00  0.00    +0.023 C 
ATOM     14  C   UNL     1      -3.866   2.210  23.558  0.00  0.00    -0.073 C 
ATOM     15  C   UNL     1      -2.596   1.773  23.498  0.00  0.00    -0.023 C 
ATOM     20  C   UNL     1      -4.263   3.534  22.966  0.00  0.00    +0.039 C 
ENDROOT
BRANCH   9  13
ATOM     13  C   UNL     1      -2.847  -1.748  25.107  0.00  0.00    -0.013 C 
ATOM     18  C   UNL     1      -3.082  -2.174  26.553  0.00  0.00    +0.007 C 
ATOM     19  C   UNL     1      -3.687  -2.590  24.151  0.00  0.00    +0.007 C 
ENDBRANCH   9  13
BRANCH  10  16
ATOM     16  C   UNL     1      -0.804   0.674  24.823  0.00  0.00    +0.113 C 
BRANCH  16   6
ATOM      6  N   UNL     1       0.294   0.845  23.925  0.00  0.00    -0.189 NA
ATOM     33  H   UNL     1       0.476   1.793  23.575  0.00  0.00    +0.148 HD
BRANCH   6   1
ATOM      1  S   UNL     1       0.874  -0.460  22.956  0.00  0.00    +0.058 S 
ATOM      3  O   UNL     1       0.565  -0.177  21.569  0.00  0.00    -0.153 OA
ATOM      4  O   UNL     1       0.494  -1.731  23.545  0.00  0.00    -0.153 OA
BRANCH   1  22
ATOM     22  C   UNL     1       2.621  -0.295  23.170  0.00  0.00    +0.105 A 
ATOM     25  C   UNL     1       3.362  -1.351  23.701  0.00  0.00    +0.032 A 
ATOM     26  C   UNL     1       3.258   0.893  22.811  0.00  0.00    +0.032 A 
ATOM     27  C   UNL     1       4.740  -1.220  23.872  0.00  0.00    +0.047 A 
ATOM     28  C   UNL     1       4.637   1.024  22.983  0.00  0.00    +0.047 A 
ATOM     29  C   UNL     1       5.377  -0.031  23.513  0.00  0.00    +0.120 A 
BRANCH  29   5
ATOM      5  O   UNL     1       6.721   0.097  23.680  0.00  0.00    -0.495 OA
ATOM     32  C   UNL     1       7.559  -0.662  22.807  0.00  0.00    +0.277 C 
ENDBRANCH  29   5
ENDBRANCH   1  22
ENDBRANCH   6   1
ENDBRANCH  16   6
ENDBRANCH  10  16
BRANCH  12  17
ATOM     17  C   UNL     1      -5.409   1.968  25.525  0.00  0.00    +0.103 C 
BRANCH  17  21
ATOM      2  O   UNL     1      -5.536   4.384  25.501  0.00  0.00    -0.276 OA
ATOM      7  N   UNL     1      -3.581   3.348  26.212  0.00  0.00    -0.314 N 
ATOM     21  C   UNL     1      -4.883   3.370  25.733  0.00  0.00    +0.214 C 
ATOM     34  H   UNL     1      -3.122   2.457  26.375  0.00  0.00    +0.149 HD
BRANCH   7  23
ATOM     23  C   UNL     1      -2.826   4.545  26.500  0.00  0.00    +0.119 C 
BRANCH  23  24
ATOM     24  C   UNL     1      -1.963   4.953  25.315  0.00  0.00    +0.102 C 
BRANCH  24   8
ATOM      8  N   UNL     1      -1.031   3.886  24.977  0.00  0.00    -0.307 NA
ATOM     30  C   UNL     1      -0.116   4.315  23.917  0.00  0.00    +0.104 C 
ATOM     31  C   UNL     1      -0.275   3.467  26.159  0.00  0.00    +0.104 C 
ENDBRANCH  24   8
ENDBRANCH  23  24
ENDBRANCH   7  23
ENDBRANCH  17  21
ENDBRANCH  12  17
TORSDOF 11
ENDMDL
