MODEL 1
REMARK VINA RESULT:      -4.1      0.000      0.000
REMARK  Name = 45783306
REMARK  2 active torsions:
REMARK  status: ('A' for Active; 'I' for Inactive)
REMARK    1  A    between atoms: C_8  and  C_12
REMARK    2  A    between atoms: C_18  and  C_19
REMARK                            x       y       z     vdW  Elec       q    Type
REMARK                         _______ _______ _______ _____ _____    ______ ____
ROOT
ATOM      2  O   UNL     1       8.414 -10.504  32.232  0.00  0.00    -0.377 OA
ATOM      4  N   UNL     1      10.162  -8.313  32.028  0.00  0.00    -0.311 N 
ATOM      7  N   UNL     1      10.695  -6.167  32.872  0.00  0.00    -0.240 NA
ATOM     13  C   UNL     1      10.673  -9.636  32.401  0.00  0.00    +0.134 C 
ATOM     14  C   UNL     1       8.731  -8.100  32.283  0.00  0.00    +0.134 C 
ATOM     15  C   UNL     1       9.766 -10.719  31.829  0.00  0.00    +0.178 C 
ATOM     16  C   UNL     1       7.928  -9.264  31.716  0.00  0.00    +0.178 C 
ATOM     17  C   UNL     1      11.012  -7.202  32.062  0.00  0.00    +0.122 A 
ATOM     19  C   UNL     1      12.988  -6.140  31.273  0.00  0.00    +0.027 A 
ATOM     20  C   UNL     1      12.135  -7.237  31.250  0.00  0.00    +0.055 A 
ATOM     21  C   UNL     1      12.696  -5.056  32.094  0.00  0.00    +0.031 A 
ATOM     22  C   UNL     1      11.548  -5.118  32.867  0.00  0.00    +0.113 A 
ENDROOT
BRANCH  19  18
ATOM      1  O   UNL     1      16.063  -5.596  29.623  0.00  0.00    -0.336 OA
ATOM      5  N   UNL     1      14.348  -7.027  29.446  0.00  0.00    -0.190 NA
ATOM      6  N   UNL     1      15.149  -5.236  30.622  0.00  0.00    -0.056 NA
ATOM     12  C   UNL     1      15.514  -6.658  28.977  0.00  0.00    +0.245 A 
ATOM     18  C   UNL     1      14.166  -6.125  30.453  0.00  0.00    +0.202 A 
BRANCH  12   8
ATOM      3  N   UNL     1      16.404  -8.710  27.924  0.00  0.00    -0.305 NA
ATOM      8  C   UNL     1      16.318  -7.242  27.838  0.00  0.00    +0.143 C 
ATOM      9  C   UNL     1      15.733  -6.949  26.448  0.00  0.00    +0.029 C 
ATOM     10  C   UNL     1      15.567  -8.314  25.796  0.00  0.00    +0.017 C 
ATOM     11  C   UNL     1      16.539  -9.193  26.554  0.00  0.00    +0.081 C 
ATOM     23  H   UNL     1      15.525  -9.071  28.299  0.00  0.00    +0.123 HD
ENDBRANCH  12   8
ENDBRANCH  19  18
TORSDOF 2
ENDMDL
MODEL 2
REMARK VINA RESULT:      -3.9     16.120     17.537
REMARK  Name = 45783306
REMARK  2 active torsions:
REMARK  status: ('A' for Active; 'I' for Inactive)
REMARK    1  A    between atoms: C_8  and  C_12
REMARK    2  A    between atoms: C_18  and  C_19
REMARK                            x       y       z     vdW  Elec       q    Type
REMARK                         _______ _______ _______ _____ _____    ______ ____
ROOT
ATOM      2  O   UNL     1      -6.458   3.501  25.767  0.00  0.00    -0.377 OA
ATOM      4  N   UNL     1      -4.455   1.645  25.100  0.00  0.00    -0.311 N 
ATOM      7  N   UNL     1      -4.006  -0.603  24.515  0.00  0.00    -0.240 NA
ATOM     13  C   UNL     1      -4.688   2.821  24.255  0.00  0.00    +0.134 C 
ATOM     14  C   UNL     1      -5.594   1.240  25.936  0.00  0.00    +0.134 C 
ATOM     15  C   UNL     1      -5.284   3.947  25.089  0.00  0.00    +0.178 C 
ATOM     16  C   UNL     1      -6.141   2.451  26.683  0.00  0.00    +0.178 C 
ATOM     17  C   UNL     1      -3.553   0.658  24.690  0.00  0.00    +0.122 A 
ATOM     19  C   UNL     1      -1.328   0.074  24.084  0.00  0.00    +0.027 A 
ATOM     20  C   UNL     1      -2.237   1.045  24.491  0.00  0.00    +0.055 A 
ATOM     21  C   UNL     1      -1.757  -1.235  23.892  0.00  0.00    +0.031 A 
ATOM     22  C   UNL     1      -3.094  -1.519  24.119  0.00  0.00    +0.113 A 
ENDROOT
BRANCH  19  18
ATOM      1  O   UNL     1       1.875   1.519  23.738  0.00  0.00    -0.336 OA
ATOM      5  N   UNL     1       0.949  -0.492  23.398  0.00  0.00    -0.190 NA
ATOM      6  N   UNL     1       0.525   1.648  24.088  0.00  0.00    -0.056 NA
ATOM     12  C   UNL     1       2.040   0.230  23.343  0.00  0.00    +0.245 A 
ATOM     18  C   UNL     1       0.046   0.421  23.861  0.00  0.00    +0.202 A 
BRANCH  12   8
ATOM      3  N   UNL     1       4.402   0.920  23.115  0.00  0.00    -0.305 NA
ATOM      8  C   UNL     1       3.432  -0.168  22.908  0.00  0.00    +0.143 C 
ATOM      9  C   UNL     1       4.002  -1.373  23.672  0.00  0.00    +0.029 C 
ATOM     10  C   UNL     1       5.329  -0.886  24.239  0.00  0.00    +0.017 C 
ATOM     11  C   UNL     1       5.693   0.279  23.345  0.00  0.00    +0.081 C 
ATOM     23  H   UNL     1       4.150   1.432  23.961  0.00  0.00    +0.123 HD
ENDBRANCH  12   8
ENDBRANCH  19  18
TORSDOF 2
ENDMDL
MODEL 3
REMARK VINA RESULT:      -2.3     16.154     17.353
REMARK  Name = 45783306
REMARK  2 active torsions:
REMARK  status: ('A' for Active; 'I' for Inactive)
REMARK    1  A    between atoms: C_8  and  C_12
REMARK    2  A    between atoms: C_18  and  C_19
REMARK                            x       y       z     vdW  Elec       q    Type
REMARK                         _______ _______ _______ _____ _____    ______ ____
ROOT
ATOM      2  O   UNL     1      -6.748   1.640  25.265  0.00  0.00    -0.377 OA
ATOM      4  N   UNL     1      -4.002   2.193  25.031  0.00  0.00    -0.311 N 
ATOM      7  N   UNL     1      -2.244   3.624  25.709  0.00  0.00    -0.240 NA
ATOM     13  C   UNL     1      -4.456   0.913  25.586  0.00  0.00    +0.134 C 
ATOM     14  C   UNL     1      -4.976   3.290  25.110  0.00  0.00    +0.134 C 
ATOM     15  C   UNL     1      -5.833   0.570  25.032  0.00  0.00    +0.178 C 
ATOM     16  C   UNL     1      -6.326   2.820  24.580  0.00  0.00    +0.178 C 
ATOM     17  C   UNL     1      -2.641   2.516  25.045  0.00  0.00    +0.122 A 
ATOM     19  C   UNL     1      -0.425   1.977  24.368  0.00  0.00    +0.027 A 
ATOM     20  C   UNL     1      -1.781   1.668  24.365  0.00  0.00    +0.055 A 
ATOM     21  C   UNL     1       0.022   3.109  25.042  0.00  0.00    +0.031 A 
ATOM     22  C   UNL     1      -0.918   3.892  25.690  0.00  0.00    +0.113 A 
ENDROOT
BRANCH  19  18
ATOM      1  O   UNL     1       1.344  -0.370  22.411  0.00  0.00    -0.336 OA
ATOM      5  N   UNL     1       1.855   1.249  23.872  0.00  0.00    -0.190 NA
ATOM      6  N   UNL     1       0.125   0.184  22.821  0.00  0.00    -0.056 NA
ATOM     12  C   UNL     1       2.311   0.314  23.077  0.00  0.00    +0.245 A 
ATOM     18  C   UNL     1       0.509   1.132  23.681  0.00  0.00    +0.202 A 
BRANCH  12   8
ATOM      3  N   UNL     1       4.694   0.964  23.153  0.00  0.00    -0.305 NA
ATOM      8  C   UNL     1       3.738  -0.100  22.804  0.00  0.00    +0.143 C 
ATOM      9  C   UNL     1       4.193  -1.333  23.601  0.00  0.00    +0.029 C 
ATOM     10  C   UNL     1       5.448  -0.885  24.335  0.00  0.00    +0.017 C 
ATOM     11  C   UNL     1       5.937   0.294  23.521  0.00  0.00    +0.081 C 
ATOM     23  H   UNL     1       4.350   1.461  23.976  0.00  0.00    +0.123 HD
ENDBRANCH  12   8
ENDBRANCH  19  18
TORSDOF 2
ENDMDL
MODEL 4
REMARK VINA RESULT:      -1.6      2.129      2.527
REMARK  Name = 45783306
REMARK  2 active torsions:
REMARK  status: ('A' for Active; 'I' for Inactive)
REMARK    1  A    between atoms: C_8  and  C_12
REMARK    2  A    between atoms: C_18  and  C_19
REMARK                            x       y       z     vdW  Elec       q    Type
REMARK                         _______ _______ _______ _____ _____    ______ ____
ROOT
ATOM      2  O   UNL     1       8.133  -9.075  32.315  0.00  0.00    -0.377 OA
ATOM      4  N   UNL     1      10.851  -8.410  32.050  0.00  0.00    -0.311 N 
ATOM      7  N   UNL     1      12.608  -7.051  32.868  0.00  0.00    -0.240 NA
ATOM     13  C   UNL     1      10.454  -9.774  32.416  0.00  0.00    +0.134 C 
ATOM     14  C   UNL     1       9.857  -7.369  32.345  0.00  0.00    +0.134 C 
ATOM     15  C   UNL     1       9.060 -10.067  31.875  0.00  0.00    +0.178 C 
ATOM     16  C   UNL     1       8.495  -7.790  31.807  0.00  0.00    +0.178 C 
ATOM     17  C   UNL     1      12.203  -8.052  32.055  0.00  0.00    +0.122 A 
ATOM     19  C   UNL     1      14.395  -8.412  31.204  0.00  0.00    +0.027 A 
ATOM     20  C   UNL     1      13.049  -8.757  31.212  0.00  0.00    +0.055 A 
ATOM     21  C   UNL     1      14.849  -7.387  32.028  0.00  0.00    +0.031 A 
ATOM     22  C   UNL     1      13.924  -6.744  32.833  0.00  0.00    +0.113 A 
ENDROOT
BRANCH  19  18
ATOM      1  O   UNL     1      16.840 -10.434  29.652  0.00  0.00    -0.336 OA
ATOM      5  N   UNL     1      15.379  -8.861  29.012  0.00  0.00    -0.190 NA
ATOM      6  N   UNL     1      16.158 -10.039  30.811  0.00  0.00    -0.056 NA
ATOM     12  C   UNL     1      16.320  -9.691  28.640  0.00  0.00    +0.245 A 
ATOM     18  C   UNL     1      15.314  -9.111  30.352  0.00  0.00    +0.202 A 
BRANCH  12   8
ATOM      3  N   UNL     1      15.987 -10.727  26.420  0.00  0.00    -0.305 NA
ATOM      8  C   UNL     1      16.896  -9.933  27.263  0.00  0.00    +0.143 C 
ATOM      9  C   UNL     1      17.171  -8.648  26.468  0.00  0.00    +0.029 C 
ATOM     10  C   UNL     1      16.414  -8.825  25.160  0.00  0.00    +0.017 C 
ATOM     11  C   UNL     1      16.252 -10.325  25.043  0.00  0.00    +0.081 C 
ATOM     23  H   UNL     1      15.023 -10.472  26.642  0.00  0.00    +0.123 HD
ENDBRANCH  12   8
ENDBRANCH  19  18
TORSDOF 2
ENDMDL
MODEL 5
REMARK VINA RESULT:      -0.2     15.827     17.065
REMARK  Name = 45783306
REMARK  2 active torsions:
REMARK  status: ('A' for Active; 'I' for Inactive)
REMARK    1  A    between atoms: C_8  and  C_12
REMARK    2  A    between atoms: C_18  and  C_19
REMARK                            x       y       z     vdW  Elec       q    Type
REMARK                         _______ _______ _______ _____ _____    ______ ____
ROOT
ATOM      2  O   UNL     1      -4.896   4.500  25.167  0.00  0.00    -0.377 OA
ATOM      4  N   UNL     1      -3.181   2.293  24.867  0.00  0.00    -0.311 N 
ATOM      7  N   UNL     1      -2.963  -0.048  25.132  0.00  0.00    -0.240 NA
ATOM     13  C   UNL     1      -3.581   3.086  23.699  0.00  0.00    +0.134 C 
ATOM     14  C   UNL     1      -4.087   2.378  26.020  0.00  0.00    +0.134 C 
ATOM     15  C   UNL     1      -3.915   4.508  24.130  0.00  0.00    +0.178 C 
ATOM     16  C   UNL     1      -4.393   3.839  26.329  0.00  0.00    +0.178 C 
ATOM     17  C   UNL     1      -2.441   1.119  24.693  0.00  0.00    +0.122 A 
ATOM     19  C   UNL     1      -0.457   0.075  23.897  0.00  0.00    +0.027 A 
ATOM     20  C   UNL     1      -1.205   1.234  24.076  0.00  0.00    +0.055 A 
ATOM     21  C   UNL     1      -0.961  -1.145  24.335  0.00  0.00    +0.031 A 
ATOM     22  C   UNL     1      -2.206  -1.153  24.941  0.00  0.00    +0.113 A 
ENDROOT
BRANCH  19  18
ATOM      1  O   UNL     1       2.399  -0.031  21.823  0.00  0.00    -0.336 OA
ATOM      5  N   UNL     1       1.925   0.623  23.912  0.00  0.00    -0.190 NA
ATOM      6  N   UNL     1       1.032  -0.275  22.007  0.00  0.00    -0.056 NA
ATOM     12  C   UNL     1       2.847   0.497  22.992  0.00  0.00    +0.245 A 
ATOM     18  C   UNL     1       0.828   0.137  23.262  0.00  0.00    +0.202 A 
BRANCH  12   8
ATOM      3  N   UNL     1       4.902   0.542  24.364  0.00  0.00    -0.305 NA
ATOM      8  C   UNL     1       4.315   0.852  23.050  0.00  0.00    +0.143 C 
ATOM      9  C   UNL     1       5.180   0.097  22.029  0.00  0.00    +0.029 C 
ATOM     10  C   UNL     1       6.268  -0.574  22.856  0.00  0.00    +0.017 C 
ATOM     11  C   UNL     1       6.311   0.250  24.124  0.00  0.00    +0.081 C 
ATOM     23  H   UNL     1       4.464  -0.304  24.731  0.00  0.00    +0.123 HD
ENDBRANCH  12   8
ENDBRANCH  19  18
TORSDOF 2
ENDMDL
