MODEL 1
REMARK VINA RESULT:      -2.4      0.000      0.000
REMARK  Name = 71693200
REMARK  17 active torsions:
REMARK  status: ('A' for Active; 'I' for Inactive)
REMARK    1  A    between atoms: O_2  and  C_31
REMARK    2  A    between atoms: O_3  and  C_32
REMARK    3  A    between atoms: O_3  and  C_34
REMARK    4  A    between atoms: N_5  and  C_15
REMARK    5  A    between atoms: C_8  and  C_12
REMARK    6  A    between atoms: C_9  and  C_15
REMARK    7  A    between atoms: C_11  and  C_16
REMARK    8  A    between atoms: C_12  and  C_17
REMARK    9  A    between atoms: C_12  and  C_18
REMARK   10  A    between atoms: C_13  and  C_19
REMARK   11  A    between atoms: C_16  and  C_20
REMARK   12  A    between atoms: C_21  and  C_23
REMARK   13  A    between atoms: C_22  and  C_23
REMARK   14  A    between atoms: C_22  and  C_26
REMARK   15  A    between atoms: C_22  and  C_27
REMARK   16  A    between atoms: C_22  and  C_28
REMARK   17  A    between atoms: C_26  and  C_31
REMARK                            x       y       z     vdW  Elec       q    Type
REMARK                         _______ _______ _______ _____ _____    ______ ____
ROOT
ATOM      8  C   UNL     1      -4.106   3.034  25.210  0.00  0.00    +0.000 C 
ATOM      9  C   UNL     1      -3.797   3.606  23.804  0.00  0.00    +0.032 C 
ATOM     10  C   UNL     1      -3.471   3.914  26.298  0.00  0.00    +0.012 C 
ATOM     11  C   UNL     1      -1.943   4.021  26.140  0.00  0.00    +0.022 C 
ATOM     13  C   UNL     1      -1.543   4.321  24.709  0.00  0.00    -0.073 C 
ATOM     14  C   UNL     1      -2.390   4.142  23.680  0.00  0.00    -0.022 C 
ATOM     19  C   UNL     1      -0.163   4.875  24.493  0.00  0.00    +0.039 C 
ENDROOT
BRANCH   8  12
ATOM     12  C   UNL     1      -5.613   2.914  25.455  0.00  0.00    -0.013 C 
ATOM     17  C   UNL     1      -5.892   1.925  26.584  0.00  0.00    +0.007 C 
ATOM     18  C   UNL     1      -6.212   4.280  25.773  0.00  0.00    +0.007 C 
ENDBRANCH   8  12
BRANCH   9  15
ATOM     15  C   UNL     1      -4.040   2.555  22.713  0.00  0.00    +0.112 C 
BRANCH  15   5
ATOM      1  O   UNL     1      -4.939   0.084  23.885  0.00  0.00    -0.276 OA
ATOM      5  N   UNL     1      -3.255   1.384  22.953  0.00  0.00    -0.315 N 
ATOM     21  C   UNL     1      -3.771   0.226  23.527  0.00  0.00    +0.214 C 
ATOM     35  H   UNL     1      -2.277   1.407  22.681  0.00  0.00    +0.149 HD
BRANCH  21  23
ATOM     23  C   UNL     1      -2.747  -0.889  23.677  0.00  0.00    +0.102 C 
BRANCH  23  22
ATOM     22  C   UNL     1      -3.089  -1.945  24.757  0.00  0.00    -0.017 C 
ATOM     27  C   UNL     1      -4.184  -2.872  24.185  0.00  0.00    +0.012 C 
ATOM     28  C   UNL     1      -3.672  -1.264  26.012  0.00  0.00    +0.012 C 
BRANCH  22  26
ATOM     26  C   UNL     1      -1.861  -2.779  25.194  0.00  0.00    +0.127 C 
BRANCH  26  31
ATOM      4  O   UNL     1       0.483  -2.181  25.320  0.00  0.00    -0.251 OA
ATOM     31  C   UNL     1      -0.673  -1.965  25.661  0.00  0.00    +0.305 C 
BRANCH  31   2
ATOM      2  O   UNL     1      -1.020  -0.967  26.513  0.00  0.00    -0.481 OA
ATOM     37  H   UNL     1      -0.475  -0.977  27.328  0.00  0.00    +0.295 HD
ENDBRANCH  31   2
ENDBRANCH  26  31
ENDBRANCH  22  26
ENDBRANCH  23  22
ENDBRANCH  21  23
ENDBRANCH  15   5
ENDBRANCH   9  15
BRANCH  11  16
ATOM     16  C   UNL     1      -1.244   2.757  26.652  0.00  0.00    +0.082 C 
BRANCH  16  20
ATOM      6  N   UNL     1       0.870   2.279  25.403  0.00  0.00    -0.342 N 
ATOM      7  N   UNL     1      -0.952   1.247  24.658  0.00  0.00    -0.232 NA
ATOM     20  C   UNL     1      -0.473   2.076  25.558  0.00  0.00    +0.109 A 
ATOM     24  C   UNL     1       1.286   1.529  24.332  0.00  0.00    +0.070 A 
ATOM     25  C   UNL     1       0.130   0.895  23.885  0.00  0.00    +0.089 A 
ATOM     29  C   UNL     1       2.535   1.358  23.735  0.00  0.00    +0.073 A 
ATOM     30  C   UNL     1       0.207   0.036  22.776  0.00  0.00    +0.033 A 
ATOM     32  C   UNL     1       2.594   0.498  22.633  0.00  0.00    +0.122 A 
ATOM     33  C   UNL     1       1.451  -0.153  22.160  0.00  0.00    +0.048 A 
ATOM     36  H   UNL     1       1.455   2.875  25.973  0.00  0.00    +0.167 HD
BRANCH  32   3
ATOM      3  O   UNL     1       3.788   0.293  22.009  0.00  0.00    -0.495 OA
ATOM     34  C   UNL     1       4.949   0.241  22.836  0.00  0.00    +0.277 C 
ENDBRANCH  32   3
ENDBRANCH  16  20
ENDBRANCH  11  16
TORSDOF 11
ENDMDL
MODEL 2
REMARK VINA RESULT:      -0.7      1.657      5.323
REMARK  Name = 71693200
REMARK  17 active torsions:
REMARK  status: ('A' for Active; 'I' for Inactive)
REMARK    1  A    between atoms: O_2  and  C_31
REMARK    2  A    between atoms: O_3  and  C_32
REMARK    3  A    between atoms: O_3  and  C_34
REMARK    4  A    between atoms: N_5  and  C_15
REMARK    5  A    between atoms: C_8  and  C_12
REMARK    6  A    between atoms: C_9  and  C_15
REMARK    7  A    between atoms: C_11  and  C_16
REMARK    8  A    between atoms: C_12  and  C_17
REMARK    9  A    between atoms: C_12  and  C_18
REMARK   10  A    between atoms: C_13  and  C_19
REMARK   11  A    between atoms: C_16  and  C_20
REMARK   12  A    between atoms: C_21  and  C_23
REMARK   13  A    between atoms: C_22  and  C_23
REMARK   14  A    between atoms: C_22  and  C_26
REMARK   15  A    between atoms: C_22  and  C_27
REMARK   16  A    between atoms: C_22  and  C_28
REMARK   17  A    between atoms: C_26  and  C_31
REMARK                            x       y       z     vdW  Elec       q    Type
REMARK                         _______ _______ _______ _____ _____    ______ ____
ROOT
ATOM      8  C   UNL     1      -2.663   2.531  23.858  0.00  0.00    +0.000 C 
ATOM      9  C   UNL     1      -1.610   3.243  24.743  0.00  0.00    +0.032 C 
ATOM     10  C   UNL     1      -3.881   3.440  23.639  0.00  0.00    +0.012 C 
ATOM     11  C   UNL     1      -4.552   3.845  24.965  0.00  0.00    +0.022 C 
ATOM     13  C   UNL     1      -3.537   4.310  25.991  0.00  0.00    -0.073 C 
ATOM     14  C   UNL     1      -2.225   4.042  25.868  0.00  0.00    -0.022 C 
ATOM     19  C   UNL     1      -4.060   5.127  27.139  0.00  0.00    +0.039 C 
ENDROOT
BRANCH   8  12
ATOM     12  C   UNL     1      -2.079   2.112  22.506  0.00  0.00    -0.013 C 
ATOM     17  C   UNL     1      -2.033   0.590  22.394  0.00  0.00    +0.007 C 
ATOM     18  C   UNL     1      -2.891   2.714  21.365  0.00  0.00    +0.007 C 
ENDBRANCH   8  12
BRANCH   9  15
ATOM     15  C   UNL     1      -0.603   2.240  25.321  0.00  0.00    +0.112 C 
BRANCH  15   5
ATOM      1  O   UNL     1       0.561   0.053  23.857  0.00  0.00    -0.276 OA
ATOM      5  N   UNL     1       0.617   2.260  24.578  0.00  0.00    -0.315 N 
ATOM     21  C   UNL     1       1.112   1.152  23.895  0.00  0.00    +0.214 C 
ATOM     35  H   UNL     1       1.138   3.131  24.547  0.00  0.00    +0.149 HD
BRANCH  21  23
ATOM     23  C   UNL     1       2.423   1.416  23.172  0.00  0.00    +0.102 C 
BRANCH  23  22
ATOM     22  C   UNL     1       3.017   0.190  22.434  0.00  0.00    -0.017 C 
ATOM     27  C   UNL     1       3.918   0.713  21.294  0.00  0.00    +0.012 C 
ATOM     28  C   UNL     1       1.893  -0.645  21.786  0.00  0.00    +0.012 C 
BRANCH  22  26
ATOM     26  C   UNL     1       3.825  -0.741  23.368  0.00  0.00    +0.127 C 
BRANCH  26  31
ATOM      4  O   UNL     1       6.219  -0.461  23.127  0.00  0.00    -0.251 OA
ATOM     31  C   UNL     1       5.194  -0.223  23.753  0.00  0.00    +0.305 C 
BRANCH  31   2
ATOM      2  O   UNL     1       5.174   0.533  24.879  0.00  0.00    -0.481 OA
ATOM     37  H   UNL     1       6.039   0.965  25.046  0.00  0.00    +0.295 HD
ENDBRANCH  31   2
ENDBRANCH  26  31
ENDBRANCH  22  26
ENDBRANCH  23  22
ENDBRANCH  21  23
ENDBRANCH  15   5
ENDBRANCH   9  15
BRANCH  11  16
ATOM     16  C   UNL     1      -5.411   2.704  25.521  0.00  0.00    +0.082 C 
BRANCH  16  20
ATOM      6  N   UNL     1      -3.616   0.987  25.820  0.00  0.00    -0.342 N 
ATOM      7  N   UNL     1      -5.270   0.433  24.443  0.00  0.00    -0.232 NA
ATOM     20  C   UNL     1      -4.795   1.365  25.238  0.00  0.00    +0.109 A 
ATOM     24  C   UNL     1      -3.313  -0.273  25.371  0.00  0.00    +0.070 A 
ATOM     25  C   UNL     1      -4.360  -0.596  24.514  0.00  0.00    +0.089 A 
ATOM     29  C   UNL     1      -2.244  -1.131  25.635  0.00  0.00    +0.073 A 
ATOM     30  C   UNL     1      -4.356  -1.845  23.871  0.00  0.00    +0.033 A 
ATOM     32  C   UNL     1      -2.257  -2.370  24.987  0.00  0.00    +0.122 A 
ATOM     33  C   UNL     1      -3.294  -2.724  24.120  0.00  0.00    +0.048 A 
ATOM     36  H   UNL     1      -3.065   1.537  26.465  0.00  0.00    +0.167 HD
BRANCH  32   3
ATOM      3  O   UNL     1      -1.238  -3.248  25.206  0.00  0.00    -0.495 OA
ATOM     34  C   UNL     1       0.050  -2.693  25.465  0.00  0.00    +0.277 C 
ENDBRANCH  32   3
ENDBRANCH  16  20
ENDBRANCH  11  16
TORSDOF 11
ENDMDL
MODEL 3
REMARK VINA RESULT:      -0.0      1.670      2.907
REMARK  Name = 71693200
REMARK  17 active torsions:
REMARK  status: ('A' for Active; 'I' for Inactive)
REMARK    1  A    between atoms: O_2  and  C_31
REMARK    2  A    between atoms: O_3  and  C_32
REMARK    3  A    between atoms: O_3  and  C_34
REMARK    4  A    between atoms: N_5  and  C_15
REMARK    5  A    between atoms: C_8  and  C_12
REMARK    6  A    between atoms: C_9  and  C_15
REMARK    7  A    between atoms: C_11  and  C_16
REMARK    8  A    between atoms: C_12  and  C_17
REMARK    9  A    between atoms: C_12  and  C_18
REMARK   10  A    between atoms: C_13  and  C_19
REMARK   11  A    between atoms: C_16  and  C_20
REMARK   12  A    between atoms: C_21  and  C_23
REMARK   13  A    between atoms: C_22  and  C_23
REMARK   14  A    between atoms: C_22  and  C_26
REMARK   15  A    between atoms: C_22  and  C_27
REMARK   16  A    between atoms: C_22  and  C_28
REMARK   17  A    between atoms: C_26  and  C_31
REMARK                            x       y       z     vdW  Elec       q    Type
REMARK                         _______ _______ _______ _____ _____    ______ ____
ROOT
ATOM      8  C   UNL     1      -2.256   3.329  24.822  0.00  0.00    +0.000 C 
ATOM      9  C   UNL     1      -3.485   3.663  23.941  0.00  0.00    +0.032 C 
ATOM     10  C   UNL     1      -0.989   3.229  23.958  0.00  0.00    +0.012 C 
ATOM     11  C   UNL     1      -1.114   2.152  22.865  0.00  0.00    +0.022 C 
ATOM     13  C   UNL     1      -2.433   2.251  22.123  0.00  0.00    -0.073 C 
ATOM     14  C   UNL     1      -3.477   2.942  22.614  0.00  0.00    -0.022 C 
ATOM     19  C   UNL     1      -2.509   1.574  20.783  0.00  0.00    +0.039 C 
ENDROOT
BRANCH   8  12
ATOM     12  C   UNL     1      -2.048   4.369  25.927  0.00  0.00    -0.013 C 
ATOM     17  C   UNL     1      -1.788   5.745  25.319  0.00  0.00    +0.007 C 
ATOM     18  C   UNL     1      -3.256   4.409  26.856  0.00  0.00    +0.007 C 
ENDBRANCH   8  12
BRANCH   9  15
ATOM     15  C   UNL     1      -4.794   3.357  24.680  0.00  0.00    +0.112 C 
BRANCH  15   5
ATOM      1  O   UNL     1      -3.541   1.014  25.786  0.00  0.00    -0.276 OA
ATOM      5  N   UNL     1      -5.186   1.998  24.475  0.00  0.00    -0.315 N 
ATOM     21  C   UNL     1      -4.522   0.918  25.051  0.00  0.00    +0.214 C 
ATOM     35  H   UNL     1      -5.994   1.823  23.885  0.00  0.00    +0.149 HD
BRANCH  21  23
ATOM     23  C   UNL     1      -5.125  -0.431  24.692  0.00  0.00    +0.102 C 
BRANCH  23  22
ATOM     22  C   UNL     1      -4.092  -1.538  24.364  0.00  0.00    -0.017 C 
ATOM     27  C   UNL     1      -3.121  -0.982  23.301  0.00  0.00    +0.012 C 
ATOM     28  C   UNL     1      -4.796  -2.765  23.748  0.00  0.00    +0.012 C 
BRANCH  22  26
ATOM     26  C   UNL     1      -3.305  -2.013  25.608  0.00  0.00    +0.127 C 
BRANCH  26  31
ATOM      4  O   UNL     1      -1.172  -2.807  24.779  0.00  0.00    -0.251 OA
ATOM     31  C   UNL     1      -1.799  -1.999  25.451  0.00  0.00    +0.305 C 
BRANCH  31   2
ATOM      2  O   UNL     1      -1.207  -0.995  26.145  0.00  0.00    -0.481 OA
ATOM     37  H   UNL     1      -0.337  -1.265  26.509  0.00  0.00    +0.295 HD
ENDBRANCH  31   2
ENDBRANCH  26  31
ENDBRANCH  22  26
ENDBRANCH  23  22
ENDBRANCH  21  23
ENDBRANCH  15   5
ENDBRANCH   9  15
BRANCH  11  16
ATOM     16  C   UNL     1      -0.916   0.748  23.447  0.00  0.00    +0.082 C 
BRANCH  16  20
ATOM      6  N   UNL     1       1.516   1.271  23.180  0.00  0.00    -0.342 N 
ATOM      7  N   UNL     1       1.030  -0.824  23.743  0.00  0.00    -0.232 NA
ATOM     20  C   UNL     1       0.535   0.362  23.467  0.00  0.00    +0.109 A 
ATOM     24  C   UNL     1       2.723   0.628  23.279  0.00  0.00    +0.070 A 
ATOM     25  C   UNL     1       2.393  -0.677  23.631  0.00  0.00    +0.089 A 
ATOM     29  C   UNL     1       4.036   1.064  23.096  0.00  0.00    +0.073 A 
ATOM     30  C   UNL     1       3.421  -1.617  23.815  0.00  0.00    +0.033 A 
ATOM     32  C   UNL     1       5.047   0.115  23.284  0.00  0.00    +0.122 A 
ATOM     33  C   UNL     1       4.747  -1.203  23.638  0.00  0.00    +0.048 A 
ATOM     36  H   UNL     1       1.379   2.243  22.937  0.00  0.00    +0.167 HD
BRANCH  32   3
ATOM      3  O   UNL     1       6.349   0.485  23.118  0.00  0.00    -0.495 OA
ATOM     34  C   UNL     1       7.288  -0.555  22.858  0.00  0.00    +0.277 C 
ENDBRANCH  32   3
ENDBRANCH  16  20
ENDBRANCH  11  16
TORSDOF 11
ENDMDL
MODEL 4
REMARK VINA RESULT:       0.2      2.296      5.008
REMARK  Name = 71693200
REMARK  17 active torsions:
REMARK  status: ('A' for Active; 'I' for Inactive)
REMARK    1  A    between atoms: O_2  and  C_31
REMARK    2  A    between atoms: O_3  and  C_32
REMARK    3  A    between atoms: O_3  and  C_34
REMARK    4  A    between atoms: N_5  and  C_15
REMARK    5  A    between atoms: C_8  and  C_12
REMARK    6  A    between atoms: C_9  and  C_15
REMARK    7  A    between atoms: C_11  and  C_16
REMARK    8  A    between atoms: C_12  and  C_17
REMARK    9  A    between atoms: C_12  and  C_18
REMARK   10  A    between atoms: C_13  and  C_19
REMARK   11  A    between atoms: C_16  and  C_20
REMARK   12  A    between atoms: C_21  and  C_23
REMARK   13  A    between atoms: C_22  and  C_23
REMARK   14  A    between atoms: C_22  and  C_26
REMARK   15  A    between atoms: C_22  and  C_27
REMARK   16  A    between atoms: C_22  and  C_28
REMARK   17  A    between atoms: C_26  and  C_31
REMARK                            x       y       z     vdW  Elec       q    Type
REMARK                         _______ _______ _______ _____ _____    ______ ____
ROOT
ATOM      8  C   UNL     1      -3.372  -1.609  24.296  0.00  0.00    +0.000 C 
ATOM      9  C   UNL     1      -3.896  -0.568  25.317  0.00  0.00    +0.032 C 
ATOM     10  C   UNL     1      -1.960  -2.074  24.683  0.00  0.00    +0.012 C 
ATOM     11  C   UNL     1      -0.959  -0.905  24.746  0.00  0.00    +0.022 C 
ATOM     13  C   UNL     1      -1.517   0.274  25.518  0.00  0.00    -0.073 C 
ATOM     14  C   UNL     1      -2.831   0.401  25.774  0.00  0.00    -0.022 C 
ATOM     19  C   UNL     1      -0.525   1.282  26.026  0.00  0.00    +0.039 C 
ENDROOT
BRANCH   8  12
ATOM     12  C   UNL     1      -4.305  -2.818  24.189  0.00  0.00    -0.013 C 
ATOM     17  C   UNL     1      -4.791  -2.989  22.752  0.00  0.00    +0.007 C 
ATOM     18  C   UNL     1      -3.600  -4.080  24.674  0.00  0.00    +0.007 C 
ENDBRANCH   8  12
BRANCH   9  15
ATOM     15  C   UNL     1      -5.087   0.214  24.748  0.00  0.00    +0.112 C 
BRANCH  15   5
ATOM      1  O   UNL     1      -6.127   2.261  26.484  0.00  0.00    -0.276 OA
ATOM      5  N   UNL     1      -4.796   1.613  24.695  0.00  0.00    -0.315 N 
ATOM     21  C   UNL     1      -5.345   2.539  25.577  0.00  0.00    +0.214 C 
ATOM     35  H   UNL     1      -4.152   1.934  23.978  0.00  0.00    +0.149 HD
BRANCH  21  23
ATOM     23  C   UNL     1      -4.884   3.967  25.327  0.00  0.00    +0.102 C 
BRANCH  23  22
ATOM     22  C   UNL     1      -3.566   4.093  24.521  0.00  0.00    -0.017 C 
ATOM     27  C   UNL     1      -3.595   5.442  23.771  0.00  0.00    +0.012 C 
ATOM     28  C   UNL     1      -3.475   2.977  23.459  0.00  0.00    +0.012 C 
BRANCH  22  26
ATOM     26  C   UNL     1      -2.306   4.006  25.413  0.00  0.00    +0.127 C 
BRANCH  26  31
ATOM      4  O   UNL     1      -0.688   5.736  24.906  0.00  0.00    -0.251 OA
ATOM     31  C   UNL     1      -1.047   4.571  24.791  0.00  0.00    +0.305 C 
BRANCH  31   2
ATOM      2  O   UNL     1      -0.351   3.649  24.079  0.00  0.00    -0.481 OA
ATOM     37  H   UNL     1      -0.938   2.962  23.699  0.00  0.00    +0.295 HD
ENDBRANCH  31   2
ENDBRANCH  26  31
ENDBRANCH  22  26
ENDBRANCH  23  22
ENDBRANCH  21  23
ENDBRANCH  15   5
ENDBRANCH   9  15
BRANCH  11  16
ATOM     16  C   UNL     1      -0.514  -0.481  23.342  0.00  0.00    +0.082 C 
BRANCH  16  20
ATOM      6  N   UNL     1       1.854  -1.177  23.755  0.00  0.00    -0.342 N 
ATOM      7  N   UNL     1       1.578   0.814  22.806  0.00  0.00    -0.232 NA
ATOM     20  C   UNL     1       0.968  -0.247  23.284  0.00  0.00    +0.109 A 
ATOM     24  C   UNL     1       3.119  -0.682  23.566  0.00  0.00    +0.070 A 
ATOM     25  C   UNL     1       2.920   0.561  22.973  0.00  0.00    +0.089 A 
ATOM     29  C   UNL     1       4.382  -1.200  23.855  0.00  0.00    +0.073 A 
ATOM     30  C   UNL     1       4.036   1.348  22.643  0.00  0.00    +0.033 A 
ATOM     32  C   UNL     1       5.482  -0.404  23.519  0.00  0.00    +0.122 A 
ATOM     33  C   UNL     1       5.314   0.849  22.923  0.00  0.00    +0.048 A 
ATOM     36  H   UNL     1       1.621  -2.069  24.169  0.00  0.00    +0.167 HD
BRANCH  32   3
ATOM      3  O   UNL     1       6.740  -0.860  23.780  0.00  0.00    -0.495 OA
ATOM     34  C   UNL     1       7.741  -0.587  22.802  0.00  0.00    +0.277 C 
ENDBRANCH  32   3
ENDBRANCH  16  20
ENDBRANCH  11  16
TORSDOF 11
ENDMDL
MODEL 5
REMARK VINA RESULT:       0.7      1.346      1.924
REMARK  Name = 71693200
REMARK  17 active torsions:
REMARK  status: ('A' for Active; 'I' for Inactive)
REMARK    1  A    between atoms: O_2  and  C_31
REMARK    2  A    between atoms: O_3  and  C_32
REMARK    3  A    between atoms: O_3  and  C_34
REMARK    4  A    between atoms: N_5  and  C_15
REMARK    5  A    between atoms: C_8  and  C_12
REMARK    6  A    between atoms: C_9  and  C_15
REMARK    7  A    between atoms: C_11  and  C_16
REMARK    8  A    between atoms: C_12  and  C_17
REMARK    9  A    between atoms: C_12  and  C_18
REMARK   10  A    between atoms: C_13  and  C_19
REMARK   11  A    between atoms: C_16  and  C_20
REMARK   12  A    between atoms: C_21  and  C_23
REMARK   13  A    between atoms: C_22  and  C_23
REMARK   14  A    between atoms: C_22  and  C_26
REMARK   15  A    between atoms: C_22  and  C_27
REMARK   16  A    between atoms: C_22  and  C_28
REMARK   17  A    between atoms: C_26  and  C_31
REMARK                            x       y       z     vdW  Elec       q    Type
REMARK                         _______ _______ _______ _____ _____    ______ ____
ROOT
ATOM      8  C   UNL     1      -4.060   3.394  25.507  0.00  0.00    +0.000 C 
ATOM      9  C   UNL     1      -4.941   2.912  24.327  0.00  0.00    +0.032 C 
ATOM     10  C   UNL     1      -2.790   4.079  24.982  0.00  0.00    +0.012 C 
ATOM     11  C   UNL     1      -1.948   3.143  24.095  0.00  0.00    +0.022 C 
ATOM     13  C   UNL     1      -2.799   2.421  23.069  0.00  0.00    -0.073 C 
ATOM     14  C   UNL     1      -4.137   2.339  23.184  0.00  0.00    -0.022 C 
ATOM     19  C   UNL     1      -2.082   1.832  21.887  0.00  0.00    +0.039 C 
ENDROOT
BRANCH   8  12
ATOM     12  C   UNL     1      -4.822   4.350  26.430  0.00  0.00    -0.013 C 
ATOM     17  C   UNL     1      -3.872   5.391  27.016  0.00  0.00    +0.007 C 
ATOM     18  C   UNL     1      -5.963   5.023  25.676  0.00  0.00    +0.007 C 
ENDBRANCH   8  12
BRANCH   9  15
ATOM     15  C   UNL     1      -5.973   1.877  24.793  0.00  0.00    +0.112 C 
BRANCH  15   5
ATOM      1  O   UNL     1      -3.815   0.212  25.718  0.00  0.00    -0.276 OA
ATOM      5  N   UNL     1      -5.633   0.572  24.319  0.00  0.00    -0.315 N 
ATOM     21  C   UNL     1      -4.567  -0.168  24.823  0.00  0.00    +0.214 C 
ATOM     35  H   UNL     1      -6.206   0.173  23.581  0.00  0.00    +0.149 HD
BRANCH  21  23
ATOM     23  C   UNL     1      -4.405  -1.530  24.165  0.00  0.00    +0.102 C 
BRANCH  23  22
ATOM     22  C   UNL     1      -3.144  -2.317  24.602  0.00  0.00    -0.017 C 
ATOM     27  C   UNL     1      -3.131  -3.656  23.835  0.00  0.00    +0.012 C 
ATOM     28  C   UNL     1      -3.210  -2.648  26.107  0.00  0.00    +0.012 C 
BRANCH  22  26
ATOM     26  C   UNL     1      -1.831  -1.541  24.341  0.00  0.00    +0.127 C 
BRANCH  26  31
ATOM      4  O   UNL     1       0.116  -2.414  25.488  0.00  0.00    -0.251 OA
ATOM     31  C   UNL     1      -0.814  -1.618  25.459  0.00  0.00    +0.305 C 
BRANCH  31   2
ATOM      2  O   UNL     1      -1.043  -0.712  26.444  0.00  0.00    -0.481 OA
ATOM     37  H   UNL     1      -0.213  -0.288  26.750  0.00  0.00    +0.295 HD
ENDBRANCH  31   2
ENDBRANCH  26  31
ENDBRANCH  22  26
ENDBRANCH  23  22
ENDBRANCH  21  23
ENDBRANCH  15   5
ENDBRANCH   9  15
BRANCH  11  16
ATOM     16  C   UNL     1      -1.148   2.148  24.944  0.00  0.00    +0.082 C 
BRANCH  16  20
ATOM      6  N   UNL     1       1.289   1.867  24.454  0.00  0.00    -0.342 N 
ATOM      7  N   UNL     1      -0.100   0.707  23.164  0.00  0.00    -0.232 NA
ATOM     20  C   UNL     1      -0.010   1.553  24.165  0.00  0.00    +0.109 A 
ATOM     24  C   UNL     1       2.090   1.176  23.582  0.00  0.00    +0.070 A 
ATOM     25  C   UNL     1       1.200   0.460  22.787  0.00  0.00    +0.089 A 
ATOM     29  C   UNL     1       3.476   1.117  23.425  0.00  0.00    +0.073 A 
ATOM     30  C   UNL     1       1.704  -0.368  21.770  0.00  0.00    +0.033 A 
ATOM     32  C   UNL     1       3.960   0.288  22.408  0.00  0.00    +0.122 A 
ATOM     33  C   UNL     1       3.091  -0.443  21.594  0.00  0.00    +0.048 A 
ATOM     36  H   UNL     1       1.606   2.497  25.179  0.00  0.00    +0.167 HD
BRANCH  32   3
ATOM      3  O   UNL     1       5.305   0.193  22.208  0.00  0.00    -0.495 OA
ATOM     34  C   UNL     1       6.115  -0.033  23.360  0.00  0.00    +0.277 C 
ENDBRANCH  32   3
ENDBRANCH  16  20
ENDBRANCH  11  16
TORSDOF 11
ENDMDL
MODEL 6
REMARK VINA RESULT:       0.9      2.120      5.145
REMARK  Name = 71693200
REMARK  17 active torsions:
REMARK  status: ('A' for Active; 'I' for Inactive)
REMARK    1  A    between atoms: O_2  and  C_31
REMARK    2  A    between atoms: O_3  and  C_32
REMARK    3  A    between atoms: O_3  and  C_34
REMARK    4  A    between atoms: N_5  and  C_15
REMARK    5  A    between atoms: C_8  and  C_12
REMARK    6  A    between atoms: C_9  and  C_15
REMARK    7  A    between atoms: C_11  and  C_16
REMARK    8  A    between atoms: C_12  and  C_17
REMARK    9  A    between atoms: C_12  and  C_18
REMARK   10  A    between atoms: C_13  and  C_19
REMARK   11  A    between atoms: C_16  and  C_20
REMARK   12  A    between atoms: C_21  and  C_23
REMARK   13  A    between atoms: C_22  and  C_23
REMARK   14  A    between atoms: C_22  and  C_26
REMARK   15  A    between atoms: C_22  and  C_27
REMARK   16  A    between atoms: C_22  and  C_28
REMARK   17  A    between atoms: C_26  and  C_31
REMARK                            x       y       z     vdW  Elec       q    Type
REMARK                         _______ _______ _______ _____ _____    ______ ____
ROOT
ATOM      8  C   UNL     1      -3.216  -1.499  24.277  0.00  0.00    +0.000 C 
ATOM      9  C   UNL     1      -3.693  -0.352  25.202  0.00  0.00    +0.032 C 
ATOM     10  C   UNL     1      -1.836  -2.009  24.723  0.00  0.00    +0.012 C 
ATOM     11  C   UNL     1      -0.772  -0.895  24.708  0.00  0.00    +0.022 C 
ATOM     13  C   UNL     1      -1.272   0.372  25.372  0.00  0.00    -0.073 C 
ATOM     14  C   UNL     1      -2.580   0.591  25.596  0.00  0.00    -0.022 C 
ATOM     19  C   UNL     1      -0.231   1.362  25.813  0.00  0.00    +0.039 C 
ENDROOT
BRANCH   8  12
ATOM     12  C   UNL     1      -4.214  -2.661  24.252  0.00  0.00    -0.013 C 
ATOM     17  C   UNL     1      -4.736  -2.883  22.835  0.00  0.00    +0.007 C 
ATOM     18  C   UNL     1      -3.567  -3.931  24.795  0.00  0.00    +0.007 C 
ENDBRANCH   8  12
BRANCH   9  15
ATOM     15  C   UNL     1      -4.831   0.446  24.552  0.00  0.00    +0.112 C 
BRANCH  15   5
ATOM      1  O   UNL     1      -3.099   1.758  22.665  0.00  0.00    -0.276 OA
ATOM      5  N   UNL     1      -4.512   1.838  24.506  0.00  0.00    -0.315 N 
ATOM     21  C   UNL     1      -3.661   2.394  23.555  0.00  0.00    +0.214 C 
ATOM     35  H   UNL     1      -4.938   2.444  25.201  0.00  0.00    +0.149 HD
BRANCH  21  23
ATOM     23  C   UNL     1      -3.478   3.896  23.703  0.00  0.00    +0.102 C 
BRANCH  23  22
ATOM     22  C   UNL     1      -2.787   4.341  25.017  0.00  0.00    -0.017 C 
ATOM     27  C   UNL     1      -2.538   5.862  24.931  0.00  0.00    +0.012 C 
ATOM     28  C   UNL     1      -1.412   3.656  25.161  0.00  0.00    +0.012 C 
BRANCH  22  26
ATOM     26  C   UNL     1      -3.621   4.009  26.277  0.00  0.00    +0.127 C 
BRANCH  26  31
ATOM      4  O   UNL     1      -5.729   4.788  25.375  0.00  0.00    -0.251 OA
ATOM     31  C   UNL     1      -5.118   3.977  26.059  0.00  0.00    +0.305 C 
BRANCH  31   2
ATOM      2  O   UNL     1      -5.725   2.955  26.713  0.00  0.00    -0.481 OA
ATOM     37  H   UNL     1      -6.488   3.264  27.247  0.00  0.00    +0.295 HD
ENDBRANCH  31   2
ENDBRANCH  26  31
ENDBRANCH  22  26
ENDBRANCH  23  22
ENDBRANCH  21  23
ENDBRANCH  15   5
ENDBRANCH   9  15
BRANCH  11  16
ATOM     16  C   UNL     1      -0.288  -0.612  23.281  0.00  0.00    +0.082 C 
BRANCH  16  20
ATOM      6  N   UNL     1       2.083  -1.271  23.737  0.00  0.00    -0.342 N 
ATOM      7  N   UNL     1       1.794   0.708  22.769  0.00  0.00    -0.232 NA
ATOM     20  C   UNL     1       1.191  -0.358  23.245  0.00  0.00    +0.109 A 
ATOM     24  C   UNL     1       3.343  -0.760  23.565  0.00  0.00    +0.070 A 
ATOM     25  C   UNL     1       3.137   0.475  22.959  0.00  0.00    +0.089 A 
ATOM     29  C   UNL     1       4.609  -1.259  23.878  0.00  0.00    +0.073 A 
ATOM     30  C   UNL     1       4.247   1.276  22.641  0.00  0.00    +0.033 A 
ATOM     32  C   UNL     1       5.702  -0.450  23.554  0.00  0.00    +0.122 A 
ATOM     33  C   UNL     1       5.527   0.796  22.945  0.00  0.00    +0.048 A 
ATOM     36  H   UNL     1       1.855  -2.164  24.154  0.00  0.00    +0.167 HD
BRANCH  32   3
ATOM      3  O   UNL     1       6.963  -0.886  23.838  0.00  0.00    -0.495 OA
ATOM     34  C   UNL     1       8.021  -0.373  23.031  0.00  0.00    +0.277 C 
ENDBRANCH  32   3
ENDBRANCH  16  20
ENDBRANCH  11  16
TORSDOF 11
ENDMDL
MODEL 7
REMARK VINA RESULT:       1.4      2.199      6.541
REMARK  Name = 71693200
REMARK  17 active torsions:
REMARK  status: ('A' for Active; 'I' for Inactive)
REMARK    1  A    between atoms: O_2  and  C_31
REMARK    2  A    between atoms: O_3  and  C_32
REMARK    3  A    between atoms: O_3  and  C_34
REMARK    4  A    between atoms: N_5  and  C_15
REMARK    5  A    between atoms: C_8  and  C_12
REMARK    6  A    between atoms: C_9  and  C_15
REMARK    7  A    between atoms: C_11  and  C_16
REMARK    8  A    between atoms: C_12  and  C_17
REMARK    9  A    between atoms: C_12  and  C_18
REMARK   10  A    between atoms: C_13  and  C_19
REMARK   11  A    between atoms: C_16  and  C_20
REMARK   12  A    between atoms: C_21  and  C_23
REMARK   13  A    between atoms: C_22  and  C_23
REMARK   14  A    between atoms: C_22  and  C_26
REMARK   15  A    between atoms: C_22  and  C_27
REMARK   16  A    between atoms: C_22  and  C_28
REMARK   17  A    between atoms: C_26  and  C_31
REMARK                            x       y       z     vdW  Elec       q    Type
REMARK                         _______ _______ _______ _____ _____    ______ ____
ROOT
ATOM      8  C   UNL     1      -1.781  -0.898  25.089  0.00  0.00    +0.000 C 
ATOM      9  C   UNL     1      -1.298  -2.236  24.476  0.00  0.00    +0.032 C 
ATOM     10  C   UNL     1      -3.098  -1.103  25.853  0.00  0.00    +0.012 C 
ATOM     11  C   UNL     1      -4.215  -1.657  24.948  0.00  0.00    +0.022 C 
ATOM     13  C   UNL     1      -3.733  -2.822  24.106  0.00  0.00    -0.073 C 
ATOM     14  C   UNL     1      -2.425  -3.072  23.917  0.00  0.00    -0.022 C 
ATOM     19  C   UNL     1      -4.788  -3.718  23.522  0.00  0.00    +0.039 C 
ENDROOT
BRANCH   8  12
ATOM     12  C   UNL     1      -0.730  -0.289  26.022  0.00  0.00    -0.013 C 
ATOM     17  C   UNL     1      -0.741   1.233  25.913  0.00  0.00    +0.007 C 
ATOM     18  C   UNL     1      -0.976  -0.729  27.461  0.00  0.00    +0.007 C 
ENDBRANCH   8  12
BRANCH   9  15
ATOM     15  C   UNL     1      -0.249  -1.997  23.382  0.00  0.00    +0.112 C 
BRANCH  15   5
ATOM      1  O   UNL     1       1.205  -0.295  21.572  0.00  0.00    -0.276 OA
ATOM      5  N   UNL     1       0.609  -0.909  23.732  0.00  0.00    -0.315 N 
ATOM     21  C   UNL     1       1.278  -0.133  22.789  0.00  0.00    +0.214 C 
ATOM     35  H   UNL     1       0.725  -0.696  24.718  0.00  0.00    +0.149 HD
BRANCH  21  23
ATOM     23  C   UNL     1       2.129   0.970  23.400  0.00  0.00    +0.102 C 
BRANCH  23  22
ATOM     22  C   UNL     1       3.584   1.037  22.870  0.00  0.00    -0.017 C 
ATOM     27  C   UNL     1       3.823   2.459  22.318  0.00  0.00    +0.012 C 
ATOM     28  C   UNL     1       3.778   0.050  21.701  0.00  0.00    +0.012 C 
BRANCH  22  26
ATOM     26  C   UNL     1       4.635   0.704  23.956  0.00  0.00    +0.127 C 
BRANCH  26  31
ATOM      4  O   UNL     1       6.517  -0.580  23.136  0.00  0.00    -0.251 OA
ATOM     31  C   UNL     1       5.432  -0.557  23.703  0.00  0.00    +0.305 C 
BRANCH  31   2
ATOM      2  O   UNL     1       4.815  -1.673  24.166  0.00  0.00    -0.481 OA
ATOM     37  H   UNL     1       5.440  -2.422  24.266  0.00  0.00    +0.295 HD
ENDBRANCH  31   2
ENDBRANCH  26  31
ENDBRANCH  22  26
ENDBRANCH  23  22
ENDBRANCH  21  23
ENDBRANCH  15   5
ENDBRANCH   9  15
BRANCH  11  16
ATOM     16  C   UNL     1      -4.812  -0.553  24.068  0.00  0.00    +0.082 C 
BRANCH  16  20
ATOM      6  N   UNL     1      -3.305   1.438  23.910  0.00  0.00    -0.342 N 
ATOM      7  N   UNL     1      -4.878   1.533  25.478  0.00  0.00    -0.232 NA
ATOM     20  C   UNL     1      -4.359   0.808  24.512  0.00  0.00    +0.109 A 
ATOM     24  C   UNL     1      -3.134   2.650  24.528  0.00  0.00    +0.070 A 
ATOM     25  C   UNL     1      -4.127   2.685  25.503  0.00  0.00    +0.089 A 
ATOM     29  C   UNL     1      -2.222   3.687  24.324  0.00  0.00    +0.073 A 
ATOM     30  C   UNL     1      -4.231   3.814  26.333  0.00  0.00    +0.033 A 
ATOM     32  C   UNL     1      -2.341   4.803  25.159  0.00  0.00    +0.122 A 
ATOM     33  C   UNL     1      -3.328   4.868  26.146  0.00  0.00    +0.048 A 
ATOM     36  H   UNL     1      -2.749   1.076  23.147  0.00  0.00    +0.167 HD
BRANCH  32   3
ATOM      3  O   UNL     1      -1.477   5.846  25.005  0.00  0.00    -0.495 OA
ATOM     34  C   UNL     1      -0.161   5.534  24.552  0.00  0.00    +0.277 C 
ENDBRANCH  32   3
ENDBRANCH  16  20
ENDBRANCH  11  16
TORSDOF 11
ENDMDL
