MODEL 1
REMARK VINA RESULT:       4.7      0.000      0.000
REMARK  Name = 25338564
REMARK  7 active torsions:
REMARK  status: ('A' for Active; 'I' for Inactive)
REMARK    1  A    between atoms: O_4  and  C_26
REMARK    2  A    between atoms: O_4  and  C_30
REMARK    3  A    between atoms: N_5  and  C_15
REMARK    4  A    between atoms: N_6  and  C_10
REMARK    5  A    between atoms: N_9  and  C_19
REMARK    6  A    between atoms: C_11  and  C_14
REMARK    7  A    between atoms: C_17  and  C_18
REMARK                            x       y       z     vdW  Elec       q    Type
REMARK                         _______ _______ _______ _____ _____    ______ ____
ROOT
ATOM      5  N   UNL     1      -4.375   4.513  24.327  0.00  0.00    -0.293 NA
ATOM     10  C   UNL     1      -5.416   3.448  26.121  0.00  0.00    +0.090 C 
ATOM     11  C   UNL     1      -3.375   4.589  25.409  0.00  0.00    +0.147 C 
ATOM     12  C   UNL     1      -3.984   3.757  26.556  0.00  0.00    +0.052 C 
ATOM     13  C   UNL     1      -5.680   4.432  24.991  0.00  0.00    +0.107 C 
ATOM     15  C   UNL     1      -4.305   5.638  23.402  0.00  0.00    +0.105 C 
ENDROOT
BRANCH  10   6
ATOM      3  O   UNL     1      -3.294   1.649  25.443  0.00  0.00    -0.253 OA
ATOM      6  N   UNL     1      -5.553   2.083  25.672  0.00  0.00    -0.295 N 
ATOM      9  N   UNL     1      -4.896   0.004  24.953  0.00  0.00    -0.269 N 
ATOM     16  C   UNL     1      -4.460   1.269  25.359  0.00  0.00    +0.304 C 
ATOM     31  H   UNL     1      -6.487   1.721  25.506  0.00  0.00    +0.151 HD
ATOM     32  H   UNL     1      -5.901  -0.149  24.941  0.00  0.00    +0.156 HD
BRANCH   9  19
ATOM      1 CL   UNL     1      -1.590  -4.623  23.292  0.00  0.00    -0.084 Cl
ATOM     19  C   UNL     1      -4.107  -1.100  24.557  0.00  0.00    +0.035 A 
ATOM     22  C   UNL     1      -2.780  -1.195  24.975  0.00  0.00    +0.025 A 
ATOM     23  C   UNL     1      -4.656  -2.095  23.747  0.00  0.00    +0.025 A 
ATOM     27  C   UNL     1      -2.001  -2.285  24.584  0.00  0.00    +0.022 A 
ATOM     28  C   UNL     1      -3.878  -3.185  23.356  0.00  0.00    +0.022 A 
ATOM     29  C   UNL     1      -2.551  -3.279  23.774  0.00  0.00    +0.041 A 
ENDBRANCH   9  19
ENDBRANCH  10   6
BRANCH  11  14
ATOM      2  O   UNL     1      -1.004   5.017  25.011  0.00  0.00    -0.336 OA
ATOM      7  N   UNL     1      -1.627   2.901  24.626  0.00  0.00    -0.190 NA
ATOM      8  N   UNL     1       0.151   4.338  24.600  0.00  0.00    -0.056 NA
ATOM     14  C   UNL     1      -2.004   4.098  24.999  0.00  0.00    +0.245 A 
ATOM     17  C   UNL     1      -0.298   3.097  24.392  0.00  0.00    +0.202 A 
BRANCH  17  18
ATOM     18  C   UNL     1       0.555   2.031  23.952  0.00  0.00    +0.023 A 
ATOM     20  C   UNL     1       0.069   0.725  23.897  0.00  0.00    +0.015 A 
ATOM     21  C   UNL     1       1.872   2.301  23.579  0.00  0.00    +0.015 A 
ATOM     24  C   UNL     1       0.899  -0.311  23.470  0.00  0.00    +0.046 A 
ATOM     25  C   UNL     1       2.703   1.266  23.154  0.00  0.00    +0.046 A 
ATOM     26  C   UNL     1       2.216  -0.041  23.099  0.00  0.00    +0.120 A 
BRANCH  26   4
ATOM      4  O   UNL     1       3.027  -1.052  22.682  0.00  0.00    -0.495 OA
ATOM     30  C   UNL     1       4.153  -1.361  23.502  0.00  0.00    +0.277 C 
ENDBRANCH  26   4
ENDBRANCH  17  18
ENDBRANCH  11  14
TORSDOF 5
ENDMDL
MODEL 2
REMARK VINA RESULT:       8.4      3.105      5.762
REMARK  Name = 25338564
REMARK  7 active torsions:
REMARK  status: ('A' for Active; 'I' for Inactive)
REMARK    1  A    between atoms: O_4  and  C_26
REMARK    2  A    between atoms: O_4  and  C_30
REMARK    3  A    between atoms: N_5  and  C_15
REMARK    4  A    between atoms: N_6  and  C_10
REMARK    5  A    between atoms: N_9  and  C_19
REMARK    6  A    between atoms: C_11  and  C_14
REMARK    7  A    between atoms: C_17  and  C_18
REMARK                            x       y       z     vdW  Elec       q    Type
REMARK                         _______ _______ _______ _____ _____    ______ ____
ROOT
ATOM      5  N   UNL     1      -2.161  -1.357  25.906  0.00  0.00    -0.293 NA
ATOM     10  C   UNL     1      -4.119  -1.513  24.650  0.00  0.00    +0.090 C 
ATOM     11  C   UNL     1      -1.728  -2.019  24.660  0.00  0.00    +0.147 C 
ATOM     12  C   UNL     1      -2.977  -1.994  23.755  0.00  0.00    +0.052 C 
ATOM     13  C   UNL     1      -3.582  -1.686  26.062  0.00  0.00    +0.107 C 
ATOM     15  C   UNL     1      -1.379  -1.756  27.070  0.00  0.00    +0.105 C 
ENDROOT
BRANCH  10   6
ATOM      3  O   UNL     1      -2.467   0.781  25.109  0.00  0.00    -0.253 OA
ATOM      6  N   UNL     1      -4.461  -0.137  24.382  0.00  0.00    -0.295 N 
ATOM      9  N   UNL     1      -4.192   2.141  24.281  0.00  0.00    -0.269 N 
ATOM     16  C   UNL     1      -3.593   0.929  24.638  0.00  0.00    +0.304 C 
ATOM     31  H   UNL     1      -5.401   0.073  24.061  0.00  0.00    +0.151 HD
ATOM     32  H   UNL     1      -5.134   2.089  23.902  0.00  0.00    +0.156 HD
BRANCH   9  19
ATOM      1 CL   UNL     1      -1.908   7.591  24.704  0.00  0.00    -0.084 Cl
ATOM     19  C   UNL     1      -3.648   3.442  24.382  0.00  0.00    +0.035 A 
ATOM     22  C   UNL     1      -2.658   3.712  25.327  0.00  0.00    +0.025 A 
ATOM     23  C   UNL     1      -4.100   4.455  23.536  0.00  0.00    +0.025 A 
ATOM     27  C   UNL     1      -2.119   4.995  25.426  0.00  0.00    +0.022 A 
ATOM     28  C   UNL     1      -3.562   5.738  23.636  0.00  0.00    +0.022 A 
ATOM     29  C   UNL     1      -2.572   6.008  24.581  0.00  0.00    +0.041 A 
ENDBRANCH   9  19
ENDBRANCH  10   6
BRANCH  11  14
ATOM      2  O   UNL     1      -0.772  -0.604  22.914  0.00  0.00    -0.336 OA
ATOM      7  N   UNL     1       0.734  -1.415  24.360  0.00  0.00    -0.190 NA
ATOM      8  N   UNL     1       0.472  -0.110  22.500  0.00  0.00    -0.056 NA
ATOM     14  C   UNL     1      -0.528  -1.362  24.014  0.00  0.00    +0.245 A 
ATOM     17  C   UNL     1       1.309  -0.631  23.402  0.00  0.00    +0.202 A 
BRANCH  17  18
ATOM     18  C   UNL     1       2.722  -0.389  23.375  0.00  0.00    +0.023 A 
ATOM     20  C   UNL     1       3.216   0.810  22.861  0.00  0.00    +0.015 A 
ATOM     21  C   UNL     1       3.603  -1.354  23.863  0.00  0.00    +0.015 A 
ATOM     24  C   UNL     1       4.590   1.044  22.834  0.00  0.00    +0.046 A 
ATOM     25  C   UNL     1       4.978  -1.121  23.835  0.00  0.00    +0.046 A 
ATOM     26  C   UNL     1       5.471   0.079  23.320  0.00  0.00    +0.120 A 
BRANCH  26   4
ATOM      4  O   UNL     1       6.813   0.307  23.294  0.00  0.00    -0.495 OA
ATOM     30  C   UNL     1       7.637  -0.727  22.756  0.00  0.00    +0.277 C 
ENDBRANCH  26   4
ENDBRANCH  17  18
ENDBRANCH  11  14
TORSDOF 5
ENDMDL
MODEL 3
REMARK VINA RESULT:       8.5      2.686      6.989
REMARK  Name = 25338564
REMARK  7 active torsions:
REMARK  status: ('A' for Active; 'I' for Inactive)
REMARK    1  A    between atoms: O_4  and  C_26
REMARK    2  A    between atoms: O_4  and  C_30
REMARK    3  A    between atoms: N_5  and  C_15
REMARK    4  A    between atoms: N_6  and  C_10
REMARK    5  A    between atoms: N_9  and  C_19
REMARK    6  A    between atoms: C_11  and  C_14
REMARK    7  A    between atoms: C_17  and  C_18
REMARK                            x       y       z     vdW  Elec       q    Type
REMARK                         _______ _______ _______ _____ _____    ______ ____
ROOT
ATOM      5  N   UNL     1      -3.964  -2.038  23.911  0.00  0.00    -0.293 NA
ATOM     10  C   UNL     1      -1.950  -2.834  24.774  0.00  0.00    +0.090 C 
ATOM     11  C   UNL     1      -3.894  -1.434  25.256  0.00  0.00    +0.147 C 
ATOM     12  C   UNL     1      -2.498  -1.825  25.783  0.00  0.00    +0.052 C 
ATOM     13  C   UNL     1      -3.173  -3.271  23.983  0.00  0.00    +0.107 C 
ATOM     15  C   UNL     1      -5.329  -2.293  23.467  0.00  0.00    +0.105 C 
ENDROOT
BRANCH  10   6
ATOM      3  O   UNL     1       0.694  -2.024  25.522  0.00  0.00    -0.253 OA
ATOM      6  N   UNL     1      -0.954  -2.238  23.915  0.00  0.00    -0.295 N 
ATOM      9  N   UNL     1       1.062  -1.320  23.313  0.00  0.00    -0.269 N 
ATOM     16  C   UNL     1       0.319  -1.869  24.361  0.00  0.00    +0.304 C 
ATOM     31  H   UNL     1      -1.215  -2.011  22.960  0.00  0.00    +0.151 HD
ATOM     32  H   UNL     1       0.601  -1.264  22.408  0.00  0.00    +0.156 HD
BRANCH   9  19
ATOM      1 CL   UNL     1       6.616   0.737  23.478  0.00  0.00    -0.084 Cl
ATOM     19  C   UNL     1       2.387  -0.829  23.352  0.00  0.00    +0.035 A 
ATOM     22  C   UNL     1       3.412  -1.629  23.856  0.00  0.00    +0.025 A 
ATOM     23  C   UNL     1       2.669   0.456  22.887  0.00  0.00    +0.025 A 
ATOM     27  C   UNL     1       4.720  -1.145  23.895  0.00  0.00    +0.022 A 
ATOM     28  C   UNL     1       3.977   0.940  22.925  0.00  0.00    +0.022 A 
ATOM     29  C   UNL     1       5.002   0.140  23.430  0.00  0.00    +0.041 A 
ENDBRANCH   9  19
ENDBRANCH  10   6
BRANCH  11  14
ATOM      2  O   UNL     1      -5.312   0.494  25.740  0.00  0.00    -0.336 OA
ATOM      7  N   UNL     1      -3.323   1.022  24.857  0.00  0.00    -0.190 NA
ATOM      8  N   UNL     1      -5.287   1.892  25.641  0.00  0.00    -0.056 NA
ATOM     14  C   UNL     1      -4.119   0.062  25.258  0.00  0.00    +0.245 A 
ATOM     17  C   UNL     1      -4.083   2.126  25.112  0.00  0.00    +0.202 A 
BRANCH  17  18
ATOM     18  C   UNL     1      -3.608   3.449  24.827  0.00  0.00    +0.023 A 
ATOM     20  C   UNL     1      -4.198   4.197  23.808  0.00  0.00    +0.015 A 
ATOM     21  C   UNL     1      -2.557   3.987  25.569  0.00  0.00    +0.015 A 
ATOM     24  C   UNL     1      -3.735   5.483  23.530  0.00  0.00    +0.046 A 
ATOM     25  C   UNL     1      -2.093   5.272  25.291  0.00  0.00    +0.046 A 
ATOM     26  C   UNL     1      -2.683   6.021  24.271  0.00  0.00    +0.120 A 
BRANCH  26   4
ATOM      4  O   UNL     1      -2.231   7.276  24.001  0.00  0.00    -0.495 OA
ATOM     30  C   UNL     1      -2.614   7.849  22.751  0.00  0.00    +0.277 C 
ENDBRANCH  26   4
ENDBRANCH  17  18
ENDBRANCH  11  14
TORSDOF 5
ENDMDL
