MODEL 1
REMARK VINA RESULT:       1.7      0.000      0.000
REMARK  Name = 11911875
REMARK  11 active torsions:
REMARK  status: ('A' for Active; 'I' for Inactive)
REMARK    1  A    between atoms: S_1  and  C_20
REMARK    2  A    between atoms: S_1  and  C_25
REMARK    3  A    between atoms: O_5  and  C_31
REMARK    4  A    between atoms: N_7  and  C_14
REMARK    5  A    between atoms: N_8  and  C_15
REMARK    6  A    between atoms: N_11  and  C_28
REMARK    7  A    between atoms: N_11  and  C_32
REMARK    8  A    between atoms: N_11  and  C_33
REMARK    9  A    between atoms: C_18  and  C_20
REMARK   10  A    between atoms: C_21  and  C_24
REMARK   11  A    between atoms: C_25  and  C_31
REMARK                            x       y       z     vdW  Elec       q    Type
REMARK                         _______ _______ _______ _____ _____    ______ ____
ROOT
ATOM      2  O   UNL     1      -3.276   3.131  23.597  0.00  0.00    -0.370 OA
ATOM      3  O   UNL     1      -5.268   2.756  25.969  0.00  0.00    -0.370 OA
ATOM     12  C   UNL     1      -3.853   2.545  25.829  0.00  0.00    +0.171 C 
ATOM     13  C   UNL     1      -3.614   2.009  24.431  0.00  0.00    +0.171 C 
ATOM     14  C   UNL     1      -3.120   3.867  25.847  0.00  0.00    +0.130 C 
ATOM     15  C   UNL     1      -4.950   1.435  24.021  0.00  0.00    +0.130 C 
ATOM     16  C   UNL     1      -3.228   4.318  24.402  0.00  0.00    +0.185 C 
ATOM     17  C   UNL     1      -5.933   2.307  24.780  0.00  0.00    +0.185 C 
ENDROOT
BRANCH  15   8
ATOM      8  N   UNL     1      -5.054   0.062  24.462  0.00  0.00    -0.306 N 
ATOM      9  N   UNL     1      -2.770  -0.285  24.228  0.00  0.00    -0.214 NA
ATOM     10  N   UNL     1      -4.230  -2.043  24.994  0.00  0.00    -0.223 NA
ATOM     19  C   UNL     1      -3.971  -0.793  24.566  0.00  0.00    +0.216 A 
ATOM     21  C   UNL     1      -1.737  -1.146  24.341  0.00  0.00    +0.076 A 
ATOM     22  C   UNL     1      -3.152  -2.849  25.084  0.00  0.00    +0.116 A 
ATOM     23  C   UNL     1      -1.869  -2.451  24.768  0.00  0.00    +0.048 A 
ATOM     35  H   UNL     1      -5.952  -0.298  24.766  0.00  0.00    +0.149 HD
BRANCH  21  24
ATOM     24  C   UNL     1      -0.448  -0.606  23.981  0.00  0.00    +0.001 A 
ATOM     26  C   UNL     1      -0.267   0.775  23.905  0.00  0.00    +0.012 A 
ATOM     27  C   UNL     1       0.617  -1.464  23.706  0.00  0.00    +0.012 A 
ATOM     28  C   UNL     1       2.042   0.438  23.280  0.00  0.00    +0.029 A 
ATOM     29  C   UNL     1       0.978   1.297  23.554  0.00  0.00    +0.024 A 
ATOM     30  C   UNL     1       1.862  -0.943  23.355  0.00  0.00    +0.024 A 
BRANCH  28  11
ATOM     11  N   UNL     1       3.302   0.967  22.926  0.00  0.00    -0.336 N 
ATOM     32  C   UNL     1       4.503   0.172  23.086  0.00  0.00    +0.129 C 
ATOM     33  C   UNL     1       3.412   2.317  22.411  0.00  0.00    +0.129 C 
ENDBRANCH  28  11
ENDBRANCH  21  24
ENDBRANCH  15   8
BRANCH  14   7
ATOM      4  O   UNL     1      -0.763   4.372  24.244  0.00  0.00    -0.275 OA
ATOM      7  N   UNL     1      -1.743   3.694  26.240  0.00  0.00    -0.307 N 
ATOM     18  C   UNL     1      -0.672   3.963  25.400  0.00  0.00    +0.223 C 
ATOM     34  H   UNL     1      -1.559   3.301  27.159  0.00  0.00    +0.149 HD
BRANCH  18  20
ATOM     20  C   UNL     1       0.667   3.685  26.041  0.00  0.00    +0.165 C 
BRANCH  20   1
ATOM      1  S   UNL     1       0.464   2.389  27.288  0.00  0.00    -0.140 S 
BRANCH   1  25
ATOM     25  C   UNL     1       1.827   2.854  28.382  0.00  0.00    +0.189 C 
BRANCH  25  31
ATOM      6  O   UNL     1       0.668   2.858  30.495  0.00  0.00    -0.250 OA
ATOM     31  C   UNL     1       1.533   2.377  29.774  0.00  0.00    +0.315 C 
BRANCH  31   5
ATOM      5  O   UNL     1       2.321   1.338  30.149  0.00  0.00    -0.480 OA
ATOM     36  H   UNL     1       3.276   1.547  30.053  0.00  0.00    +0.295 HD
ENDBRANCH  31   5
ENDBRANCH  25  31
ENDBRANCH   1  25
ENDBRANCH  20   1
ENDBRANCH  18  20
ENDBRANCH  14   7
TORSDOF 9
ENDMDL
MODEL 2
REMARK VINA RESULT:       3.3      2.923      5.531
REMARK  Name = 11911875
REMARK  11 active torsions:
REMARK  status: ('A' for Active; 'I' for Inactive)
REMARK    1  A    between atoms: S_1  and  C_20
REMARK    2  A    between atoms: S_1  and  C_25
REMARK    3  A    between atoms: O_5  and  C_31
REMARK    4  A    between atoms: N_7  and  C_14
REMARK    5  A    between atoms: N_8  and  C_15
REMARK    6  A    between atoms: N_11  and  C_28
REMARK    7  A    between atoms: N_11  and  C_32
REMARK    8  A    between atoms: N_11  and  C_33
REMARK    9  A    between atoms: C_18  and  C_20
REMARK   10  A    between atoms: C_21  and  C_24
REMARK   11  A    between atoms: C_25  and  C_31
REMARK                            x       y       z     vdW  Elec       q    Type
REMARK                         _______ _______ _______ _____ _____    ______ ____
ROOT
ATOM      2  O   UNL     1      -2.932  -1.274  26.127  0.00  0.00    -0.370 OA
ATOM      3  O   UNL     1      -3.953  -1.408  23.181  0.00  0.00    -0.370 OA
ATOM     12  C   UNL     1      -2.782  -0.841  23.792  0.00  0.00    +0.171 C 
ATOM     13  C   UNL     1      -3.204  -0.272  25.132  0.00  0.00    +0.171 C 
ATOM     14  C   UNL     1      -1.796  -1.931  24.150  0.00  0.00    +0.130 C 
ATOM     15  C   UNL     1      -4.693  -0.062  24.993  0.00  0.00    +0.130 C 
ATOM     16  C   UNL     1      -2.309  -2.404  25.498  0.00  0.00    +0.185 C 
ATOM     17  C   UNL     1      -5.092  -1.152  24.015  0.00  0.00    +0.185 C 
ENDROOT
BRANCH  15   8
ATOM      8  N   UNL     1      -4.959   1.241  24.424  0.00  0.00    -0.306 N 
ATOM      9  N   UNL     1      -3.092   2.170  25.446  0.00  0.00    -0.214 NA
ATOM     10  N   UNL     1      -4.540   3.494  24.047  0.00  0.00    -0.223 NA
ATOM     19  C   UNL     1      -4.162   2.350  24.649  0.00  0.00    +0.216 A 
ATOM     21  C   UNL     1      -2.338   3.272  25.643  0.00  0.00    +0.076 A 
ATOM     22  C   UNL     1      -3.741   4.554  24.287  0.00  0.00    +0.116 A 
ATOM     23  C   UNL     1      -2.616   4.502  25.085  0.00  0.00    +0.048 A 
ATOM     35  H   UNL     1      -5.735   1.357  23.783  0.00  0.00    +0.149 HD
BRANCH  21  24
ATOM     24  C   UNL     1      -1.189   3.083  26.497  0.00  0.00    +0.001 A 
ATOM     26  C   UNL     1       0.075   2.906  25.936  0.00  0.00    +0.012 A 
ATOM     27  C   UNL     1      -1.344   3.075  27.883  0.00  0.00    +0.012 A 
ATOM     28  C   UNL     1       1.030   2.715  28.146  0.00  0.00    +0.029 A 
ATOM     29  C   UNL     1       1.185   2.722  26.760  0.00  0.00    +0.024 A 
ATOM     30  C   UNL     1      -0.234   2.891  28.708  0.00  0.00    +0.024 A 
BRANCH  28  11
ATOM     11  N   UNL     1       2.153   2.528  28.980  0.00  0.00    -0.336 N 
ATOM     32  C   UNL     1       3.477   2.899  28.521  0.00  0.00    +0.129 C 
ATOM     33  C   UNL     1       2.000   1.951  30.300  0.00  0.00    +0.129 C 
ENDBRANCH  28  11
ENDBRANCH  21  24
ENDBRANCH  15   8
BRANCH  14   7
ATOM      4  O   UNL     1      -0.808   0.585  23.112  0.00  0.00    -0.275 OA
ATOM      7  N   UNL     1      -0.455  -1.408  24.255  0.00  0.00    -0.307 N 
ATOM     18  C   UNL     1      -0.071  -0.185  23.724  0.00  0.00    +0.223 C 
ATOM     34  H   UNL     1       0.249  -1.997  24.690  0.00  0.00    +0.149 HD
BRANCH  18  20
ATOM     20  C   UNL     1       1.389   0.125  23.952  0.00  0.00    +0.165 C 
BRANCH  20   1
ATOM      1  S   UNL     1       2.292  -0.122  22.404  0.00  0.00    -0.140 S 
BRANCH   1  25
ATOM     25  C   UNL     1       3.785   0.813  22.811  0.00  0.00    +0.189 C 
BRANCH  25  31
ATOM      6  O   UNL     1       6.000   0.163  23.505  0.00  0.00    -0.250 OA
ATOM     31  C   UNL     1       4.813  -0.116  23.388  0.00  0.00    +0.315 C 
BRANCH  31   5
ATOM      5  O   UNL     1       4.285  -1.302  23.783  0.00  0.00    -0.480 OA
ATOM     36  H   UNL     1       4.417  -1.460  24.743  0.00  0.00    +0.295 HD
ENDBRANCH  31   5
ENDBRANCH  25  31
ENDBRANCH   1  25
ENDBRANCH  20   1
ENDBRANCH  18  20
ENDBRANCH  14   7
TORSDOF 9
ENDMDL
MODEL 3
REMARK VINA RESULT:       5.3      2.810      5.371
REMARK  Name = 11911875
REMARK  11 active torsions:
REMARK  status: ('A' for Active; 'I' for Inactive)
REMARK    1  A    between atoms: S_1  and  C_20
REMARK    2  A    between atoms: S_1  and  C_25
REMARK    3  A    between atoms: O_5  and  C_31
REMARK    4  A    between atoms: N_7  and  C_14
REMARK    5  A    between atoms: N_8  and  C_15
REMARK    6  A    between atoms: N_11  and  C_28
REMARK    7  A    between atoms: N_11  and  C_32
REMARK    8  A    between atoms: N_11  and  C_33
REMARK    9  A    between atoms: C_18  and  C_20
REMARK   10  A    between atoms: C_21  and  C_24
REMARK   11  A    between atoms: C_25  and  C_31
REMARK                            x       y       z     vdW  Elec       q    Type
REMARK                         _______ _______ _______ _____ _____    ______ ____
ROOT
ATOM      2  O   UNL     1      -1.521   3.232  23.304  0.00  0.00    -0.370 OA
ATOM      3  O   UNL     1      -1.357   5.177  25.739  0.00  0.00    -0.370 OA
ATOM     12  C   UNL     1      -1.489   3.750  25.626  0.00  0.00    +0.171 C 
ATOM     13  C   UNL     1      -2.381   3.473  24.431  0.00  0.00    +0.171 C 
ATOM     14  C   UNL     1      -0.164   3.128  25.248  0.00  0.00    +0.130 C 
ATOM     15  C   UNL     1      -3.150   4.758  24.238  0.00  0.00    +0.130 C 
ATOM     16  C   UNL     1      -0.154   3.277  23.737  0.00  0.00    +0.185 C 
ATOM     17  C   UNL     1      -2.177   5.807  24.745  0.00  0.00    +0.185 C 
ENDROOT
BRANCH  15   8
ATOM      8  N   UNL     1      -4.344   4.748  25.054  0.00  0.00    -0.306 N 
ATOM      9  N   UNL     1      -4.441   2.428  25.047  0.00  0.00    -0.214 NA
ATOM     10  N   UNL     1      -6.086   3.745  26.217  0.00  0.00    -0.223 NA
ATOM     19  C   UNL     1      -4.985   3.589  25.457  0.00  0.00    +0.216 A 
ATOM     21  C   UNL     1      -5.092   1.319  25.458  0.00  0.00    +0.076 A 
ATOM     22  C   UNL     1      -6.685   2.595  26.592  0.00  0.00    +0.116 A 
ATOM     23  C   UNL     1      -6.229   1.342  26.238  0.00  0.00    +0.048 A 
ATOM     35  H   UNL     1      -4.718   5.623  25.403  0.00  0.00    +0.149 HD
BRANCH  21  24
ATOM     24  C   UNL     1      -4.512   0.072  25.022  0.00  0.00    +0.001 A 
ATOM     26  C   UNL     1      -4.517  -0.264  23.668  0.00  0.00    +0.012 A 
ATOM     27  C   UNL     1      -3.947  -0.800  25.953  0.00  0.00    +0.012 A 
ATOM     28  C   UNL     1      -3.393  -2.341  24.178  0.00  0.00    +0.029 A 
ATOM     29  C   UNL     1      -3.958  -1.470  23.245  0.00  0.00    +0.024 A 
ATOM     30  C   UNL     1      -3.388  -2.006  25.532  0.00  0.00    +0.024 A 
BRANCH  28  11
ATOM     11  N   UNL     1      -2.828  -3.561  23.750  0.00  0.00    -0.336 N 
ATOM     32  C   UNL     1      -3.678  -4.681  23.401  0.00  0.00    +0.129 C 
ATOM     33  C   UNL     1      -1.389  -3.714  23.667  0.00  0.00    +0.129 C 
ENDBRANCH  28  11
ENDBRANCH  21  24
ENDBRANCH  15   8
BRANCH  14   7
ATOM      4  O   UNL     1      -1.447   0.889  23.935  0.00  0.00    -0.275 OA
ATOM      7  N   UNL     1      -0.109   1.739  25.635  0.00  0.00    -0.307 N 
ATOM     18  C   UNL     1      -0.759   0.729  24.942  0.00  0.00    +0.223 C 
ATOM     34  H   UNL     1       0.384   1.506  26.493  0.00  0.00    +0.149 HD
BRANCH  18  20
ATOM     20  C   UNL     1      -0.561  -0.635  25.560  0.00  0.00    +0.165 C 
BRANCH  20   1
ATOM      1  S   UNL     1       0.602  -1.578  24.544  0.00  0.00    -0.140 S 
BRANCH   1  25
ATOM     25  C   UNL     1       0.770  -0.408  23.175  0.00  0.00    +0.189 C 
BRANCH  25  31
ATOM      6  O   UNL     1       3.134  -0.640  22.768  0.00  0.00    -0.250 OA
ATOM     31  C   UNL     1       2.192   0.068  23.098  0.00  0.00    +0.315 C 
BRANCH  31   5
ATOM      5  O   UNL     1       2.323   1.380  23.420  0.00  0.00    -0.480 OA
ATOM     36  H   UNL     1       3.248   1.609  23.657  0.00  0.00    +0.295 HD
ENDBRANCH  31   5
ENDBRANCH  25  31
ENDBRANCH   1  25
ENDBRANCH  20   1
ENDBRANCH  18  20
ENDBRANCH  14   7
TORSDOF 9
ENDMDL
MODEL 4
REMARK VINA RESULT:       5.6      2.667      4.988
REMARK  Name = 11911875
REMARK  11 active torsions:
REMARK  status: ('A' for Active; 'I' for Inactive)
REMARK    1  A    between atoms: S_1  and  C_20
REMARK    2  A    between atoms: S_1  and  C_25
REMARK    3  A    between atoms: O_5  and  C_31
REMARK    4  A    between atoms: N_7  and  C_14
REMARK    5  A    between atoms: N_8  and  C_15
REMARK    6  A    between atoms: N_11  and  C_28
REMARK    7  A    between atoms: N_11  and  C_32
REMARK    8  A    between atoms: N_11  and  C_33
REMARK    9  A    between atoms: C_18  and  C_20
REMARK   10  A    between atoms: C_21  and  C_24
REMARK   11  A    between atoms: C_25  and  C_31
REMARK                            x       y       z     vdW  Elec       q    Type
REMARK                         _______ _______ _______ _____ _____    ______ ____
ROOT
ATOM      2  O   UNL     1      -1.203   4.438  24.267  0.00  0.00    -0.370 OA
ATOM      3  O   UNL     1      -2.341   3.683  27.072  0.00  0.00    -0.370 OA
ATOM     12  C   UNL     1      -2.202   2.958  25.839  0.00  0.00    +0.171 C 
ATOM     13  C   UNL     1      -2.474   3.933  24.710  0.00  0.00    +0.171 C 
ATOM     14  C   UNL     1      -0.762   2.547  25.630  0.00  0.00    +0.130 C 
ATOM     15  C   UNL     1      -3.278   5.035  25.359  0.00  0.00    +0.130 C 
ATOM     16  C   UNL     1      -0.156   3.790  25.004  0.00  0.00    +0.185 C 
ATOM     17  C   UNL     1      -2.766   5.023  26.787  0.00  0.00    +0.185 C 
ENDROOT
BRANCH  15   8
ATOM      8  N   UNL     1      -4.686   4.703  25.330  0.00  0.00    -0.306 N 
ATOM      9  N   UNL     1      -4.242   2.433  25.128  0.00  0.00    -0.214 NA
ATOM     10  N   UNL     1      -6.503   3.263  25.204  0.00  0.00    -0.223 NA
ATOM     19  C   UNL     1      -5.165   3.410  25.216  0.00  0.00    +0.216 A 
ATOM     21  C   UNL     1      -4.744   1.185  25.018  0.00  0.00    +0.076 A 
ATOM     22  C   UNL     1      -6.935   1.990  25.093  0.00  0.00    +0.116 A 
ATOM     23  C   UNL     1      -6.093   0.900  24.995  0.00  0.00    +0.048 A 
ATOM     35  H   UNL     1      -5.374   5.438  25.449  0.00  0.00    +0.149 HD
BRANCH  21  24
ATOM     24  C   UNL     1      -3.759   0.135  24.924  0.00  0.00    +0.001 A 
ATOM     26  C   UNL     1      -3.496  -0.468  23.694  0.00  0.00    +0.012 A 
ATOM     27  C   UNL     1      -3.070  -0.280  26.064  0.00  0.00    +0.012 A 
ATOM     28  C   UNL     1      -1.856  -1.898  24.744  0.00  0.00    +0.029 A 
ATOM     29  C   UNL     1      -2.545  -1.484  23.603  0.00  0.00    +0.024 A 
ATOM     30  C   UNL     1      -2.118  -1.296  25.974  0.00  0.00    +0.024 A 
BRANCH  28  11
ATOM     11  N   UNL     1      -0.894  -2.925  24.651  0.00  0.00    -0.336 N 
ATOM     32  C   UNL     1       0.257  -2.934  25.532  0.00  0.00    +0.129 C 
ATOM     33  C   UNL     1      -1.036  -3.978  23.665  0.00  0.00    +0.129 C 
ENDBRANCH  28  11
ENDBRANCH  21  24
ENDBRANCH  15   8
BRANCH  14   7
ATOM      4  O   UNL     1       1.461   1.851  23.910  0.00  0.00    -0.275 OA
ATOM      7  N   UNL     1      -0.666   1.414  24.742  0.00  0.00    -0.307 N 
ATOM     18  C   UNL     1       0.445   1.159  23.951  0.00  0.00    +0.223 C 
ATOM     34  H   UNL     1      -1.479   0.812  24.654  0.00  0.00    +0.149 HD
BRANCH  18  20
ATOM     20  C   UNL     1       0.291  -0.077  23.096  0.00  0.00    +0.165 C 
BRANCH  20   1
ATOM      1  S   UNL     1       1.702  -0.192  21.970  0.00  0.00    -0.140 S 
BRANCH   1  25
ATOM     25  C   UNL     1       2.976  -0.623  23.179  0.00  0.00    +0.189 C 
BRANCH  25  31
ATOM      6  O   UNL     1       5.285   0.032  23.405  0.00  0.00    -0.250 OA
ATOM     31  C   UNL     1       4.155   0.289  23.008  0.00  0.00    +0.315 C 
BRANCH  31   5
ATOM      5  O   UNL     1       3.842   1.432  22.347  0.00  0.00    -0.480 OA
ATOM     36  H   UNL     1       2.872   1.581  22.310  0.00  0.00    +0.295 HD
ENDBRANCH  31   5
ENDBRANCH  25  31
ENDBRANCH   1  25
ENDBRANCH  20   1
ENDBRANCH  18  20
ENDBRANCH  14   7
TORSDOF 9
ENDMDL
