MODEL 1
REMARK VINA RESULT:      -4.8      0.000      0.000
REMARK  Name = 75537072
REMARK  3 active torsions:
REMARK  status: ('A' for Active; 'I' for Inactive)
REMARK    1  A    between atoms: N_3  and  C_9
REMARK    2  A    between atoms: N_5  and  C_18
REMARK    3  A    between atoms: C_18  and  C_19
REMARK                            x       y       z     vdW  Elec       q    Type
REMARK                         _______ _______ _______ _____ _____    ______ ____
ROOT
ATOM      2  O   UNL     1      -3.700 -10.316  16.965  0.00  0.00    -0.252 OA
ATOM      3  N   UNL     1      -4.695 -10.312  11.988  0.00  0.00    -0.296 NA
ATOM      4  N   UNL     1      -4.508 -10.607  14.779  0.00  0.00    -0.278 N 
ATOM      5  N   UNL     1      -5.996 -10.276  16.429  0.00  0.00    -0.278 N 
ATOM      7  C   UNL     1      -5.799 -10.764  14.141  0.00  0.00    +0.109 C 
ATOM      8  C   UNL     1      -5.849  -9.964  12.840  0.00  0.00    +0.108 C 
ATOM     10  C   UNL     1      -3.423 -10.012  12.676  0.00  0.00    +0.104 C 
ATOM     11  C   UNL     1      -6.790 -10.313  15.212  0.00  0.00    +0.133 C 
ATOM     12  C   UNL     1      -3.304 -10.781  13.994  0.00  0.00    +0.125 C 
ATOM     15  C   UNL     1      -4.617 -10.394  16.160  0.00  0.00    +0.306 C 
ENDROOT
BRANCH   3   9
ATOM      1  O   UNL     1      -6.115  -9.146   8.213  0.00  0.00    -0.380 OA
ATOM      9  C   UNL     1      -4.766  -9.597  10.716  0.00  0.00    +0.061 C 
ATOM     13  C   UNL     1      -6.059  -8.780  10.616  0.00  0.00    +0.047 C 
ATOM     14  C   UNL     1      -4.675 -10.580   9.546  0.00  0.00    +0.047 C 
ATOM     16  C   UNL     1      -6.179  -8.149   9.233  0.00  0.00    +0.161 C 
ATOM     17  C   UNL     1      -4.873  -9.848   8.222  0.00  0.00    +0.161 C 
ENDBRANCH   3   9
BRANCH   5  18
ATOM     18  C   UNL     1      -6.585  -9.996  17.720  0.00  0.00    +0.164 C 
BRANCH  18  19
ATOM      6  N   UNL     1      -8.411  -8.441  17.335  0.00  0.00    -0.258 NA
ATOM     19  C   UNL     1      -8.055  -9.714  17.618  0.00  0.00    +0.059 A 
ATOM     20  C   UNL     1      -8.959 -10.746  17.815  0.00  0.00    +0.025 A 
ATOM     21  C   UNL     1     -10.314 -10.452  17.715  0.00  0.00    +0.003 A 
ATOM     22  C   UNL     1      -9.737  -8.193  17.245  0.00  0.00    +0.111 A 
ATOM     23  C   UNL     1     -10.719  -9.154  17.423  0.00  0.00    +0.020 A 
ENDBRANCH  18  19
ENDBRANCH   5  18
TORSDOF 3
ENDMDL
MODEL 2
REMARK VINA RESULT:      -3.1     15.192     17.416
REMARK  Name = 75537072
REMARK  3 active torsions:
REMARK  status: ('A' for Active; 'I' for Inactive)
REMARK    1  A    between atoms: N_3  and  C_9
REMARK    2  A    between atoms: N_5  and  C_18
REMARK    3  A    between atoms: C_18  and  C_19
REMARK                            x       y       z     vdW  Elec       q    Type
REMARK                         _______ _______ _______ _____ _____    ______ ____
ROOT
ATOM      2  O   UNL     1       0.411  -1.980  24.108  0.00  0.00    -0.252 OA
ATOM      3  N   UNL     1      -2.852   1.762  25.164  0.00  0.00    -0.296 NA
ATOM      4  N   UNL     1      -0.712   0.015  24.636  0.00  0.00    -0.278 N 
ATOM      5  N   UNL     1       0.966   0.101  23.146  0.00  0.00    -0.278 N 
ATOM      7  C   UNL     1      -0.555   1.425  24.347  0.00  0.00    +0.109 C 
ATOM      8  C   UNL     1      -1.914   2.064  24.064  0.00  0.00    +0.108 C 
ATOM     10  C   UNL     1      -3.039   0.304  25.311  0.00  0.00    +0.104 C 
ATOM     11  C   UNL     1       0.421   1.447  23.173  0.00  0.00    +0.133 C 
ATOM     12  C   UNL     1      -1.712  -0.405  25.595  0.00  0.00    +0.125 C 
ATOM     15  C   UNL     1       0.245  -0.775  23.983  0.00  0.00    +0.306 C 
ENDROOT
BRANCH   3   9
ATOM      1  O   UNL     1      -6.611   3.435  25.995  0.00  0.00    -0.380 OA
ATOM      9  C   UNL     1      -4.136   2.419  24.933  0.00  0.00    +0.061 C 
ATOM     13  C   UNL     1      -4.219   3.747  25.693  0.00  0.00    +0.047 C 
ATOM     14  C   UNL     1      -5.288   1.501  25.354  0.00  0.00    +0.047 C 
ATOM     16  C   UNL     1      -5.611   4.352  25.549  0.00  0.00    +0.161 C 
ATOM     17  C   UNL     1      -6.620   2.231  25.230  0.00  0.00    +0.161 C 
ENDBRANCH   3   9
BRANCH   5  18
ATOM     18  C   UNL     1       2.025  -0.281  22.237  0.00  0.00    +0.164 C 
BRANCH  18  19
ATOM      6  N   UNL     1       3.747  -1.436  23.504  0.00  0.00    -0.258 NA
ATOM     19  C   UNL     1       3.368  -0.283  22.908  0.00  0.00    +0.059 A 
ATOM     20  C   UNL     1       4.139   0.868  22.886  0.00  0.00    +0.025 A 
ATOM     21  C   UNL     1       5.377   0.834  23.515  0.00  0.00    +0.003 A 
ATOM     22  C   UNL     1       4.957  -1.431  24.106  0.00  0.00    +0.111 A 
ATOM     23  C   UNL     1       5.803  -0.334  24.138  0.00  0.00    +0.020 A 
ENDBRANCH  18  19
ENDBRANCH   5  18
TORSDOF 3
ENDMDL
