MODEL 1
REMARK VINA RESULT:      -2.8      0.000      0.000
REMARK  Name = 45361631
REMARK  10 active torsions:
REMARK  status: ('A' for Active; 'I' for Inactive)
REMARK    1  A    between atoms: O_1  and  C_12
REMARK    2  A    between atoms: N_5  and  C_16
REMARK    3  A    between atoms: N_6  and  C_26
REMARK    4  A    between atoms: C_9  and  C_19
REMARK    5  A    between atoms: C_11  and  C_21
REMARK    6  A    between atoms: C_15  and  C_20
REMARK    7  A    between atoms: C_20  and  C_22
REMARK    8  A    between atoms: C_20  and  C_23
REMARK    9  A    between atoms: C_24  and  C_25
REMARK   10  A    between atoms: C_26  and  C_29
REMARK                            x       y       z     vdW  Elec       q    Type
REMARK                         _______ _______ _______ _____ _____    ______ ____
ROOT
ATOM      9  C   UNL     1      -2.910  -1.332  24.850  0.00  0.00    -0.027 C 
ATOM     10  C   UNL     1      -2.513   0.021  24.171  0.00  0.00    +0.028 C 
ATOM     11  C   UNL     1      -0.965   0.269  24.284  0.00  0.00    +0.012 C 
ATOM     12  C   UNL     1      -3.414   1.187  24.669  0.00  0.00    +0.122 C 
ATOM     13  C   UNL     1      -4.417  -1.600  24.623  0.00  0.00    +0.007 C 
ATOM     14  C   UNL     1      -2.122  -2.483  24.181  0.00  0.00    +0.009 C 
ATOM     15  C   UNL     1      -4.922   0.871  24.535  0.00  0.00    +0.029 C 
ATOM     16  C   UNL     1      -0.183  -0.929  23.677  0.00  0.00    +0.076 C 
ATOM     17  C   UNL     1      -5.305  -0.477  25.144  0.00  0.00    +0.007 C 
ATOM     18  C   UNL     1      -0.614  -2.283  24.236  0.00  0.00    +0.023 C 
ATOM     19  C   UNL     1      -2.628  -1.338  26.374  0.00  0.00    +0.011 C 
ATOM     21  C   UNL     1      -0.500   1.571  23.610  0.00  0.00    +0.010 C 
ENDROOT
BRANCH  16   5
ATOM      3  O   UNL     1       1.748  -0.191  21.683  0.00  0.00    -0.270 OA
ATOM      5  N   UNL     1       1.246  -0.787  23.867  0.00  0.00    -0.308 N 
ATOM     24  C   UNL     1       2.098  -0.426  22.837  0.00  0.00    +0.247 C 
ATOM     34  H   UNL     1       1.622  -1.064  24.767  0.00  0.00    +0.149 HD
BRANCH  24  25
ATOM      7  N   UNL     1       5.607   0.879  23.254  0.00  0.00    -0.243 NA
ATOM      8  N   UNL     1       5.516  -1.373  24.105  0.00  0.00    -0.243 NA
ATOM     25  C   UNL     1       3.540  -0.351  23.187  0.00  0.00    +0.073 A 
ATOM     27  C   UNL     1       4.296   0.777  22.949  0.00  0.00    +0.127 A 
ATOM     28  C   UNL     1       4.209  -1.407  23.774  0.00  0.00    +0.127 A 
ATOM     31  C   UNL     1       6.145  -0.217  23.822  0.00  0.00    +0.221 A 
ENDBRANCH  24  25
ENDBRANCH  16   5
BRANCH  12   1
ATOM      1  O   UNL     1      -3.170   2.350  23.876  0.00  0.00    -0.391 OA
ATOM     35  H   UNL     1      -2.902   2.060  22.987  0.00  0.00    +0.210 HD
ENDBRANCH  12   1
BRANCH  15  20
ATOM     20  C   UNL     1      -5.792   1.975  25.149  0.00  0.00    +0.077 C 
ATOM     22  C   UNL     1      -7.066   2.155  24.332  0.00  0.00    +0.017 C 
BRANCH  20  23
ATOM      2  O   UNL     1      -4.979   4.103  24.326  0.00  0.00    -0.276 OA
ATOM      6  N   UNL     1      -4.316   3.403  26.436  0.00  0.00    -0.308 N 
ATOM     23  C   UNL     1      -4.998   3.275  25.235  0.00  0.00    +0.217 C 
ATOM     36  H   UNL     1      -4.365   2.654  27.121  0.00  0.00    +0.149 HD
BRANCH   6  26
ATOM     26  C   UNL     1      -3.493   4.548  26.749  0.00  0.00    +0.178 C 
BRANCH  26  29
ATOM      4  O   UNL     1      -1.382   3.473  26.204  0.00  0.00    -0.466 OA
ATOM     29  C   UNL     1      -2.200   4.537  25.986  0.00  0.00    +0.122 A 
ATOM     30  C   UNL     1      -1.636   5.402  25.078  0.00  0.00    +0.046 A 
ATOM     32  C   UNL     1      -0.392   4.834  24.713  0.00  0.00    +0.041 A 
ATOM     33  C   UNL     1      -0.285   3.661  25.425  0.00  0.00    +0.195 A 
ENDBRANCH  26  29
ENDBRANCH   6  26
ENDBRANCH  20  23
ENDBRANCH  15  20
TORSDOF 7
ENDMDL
