MODEL 1
REMARK VINA RESULT:       0.3      0.000      0.000
REMARK  Name = 45361457
REMARK  11 active torsions:
REMARK  status: ('A' for Active; 'I' for Inactive)
REMARK    1  A    between atoms: O_1  and  C_9
REMARK    2  A    between atoms: N_4  and  C_13
REMARK    3  A    between atoms: N_5  and  C_28
REMARK    4  A    between atoms: C_6  and  C_16
REMARK    5  A    between atoms: C_8  and  C_18
REMARK    6  A    between atoms: C_12  and  C_17
REMARK    7  A    between atoms: C_17  and  C_19
REMARK    8  A    between atoms: C_17  and  C_20
REMARK    9  A    between atoms: C_21  and  C_22
REMARK   10  A    between atoms: C_28  and  C_29
REMARK   11  A    between atoms: C_28  and  C_30
REMARK                            x       y       z     vdW  Elec       q    Type
REMARK                         _______ _______ _______ _____ _____    ______ ____
ROOT
ATOM      6  C   UNL     1      -2.041  -0.900  25.257  0.00  0.00    -0.027 C 
ATOM      7  C   UNL     1      -2.256   0.086  24.062  0.00  0.00    +0.028 C 
ATOM      8  C   UNL     1      -0.881   0.523  23.443  0.00  0.00    +0.012 C 
ATOM      9  C   UNL     1      -3.212   1.249  24.456  0.00  0.00    +0.122 C 
ATOM     10  C   UNL     1      -3.413  -1.399  25.770  0.00  0.00    +0.007 C 
ATOM     11  C   UNL     1      -1.249  -2.132  24.759  0.00  0.00    +0.009 C 
ATOM     12  C   UNL     1      -4.542   0.745  25.065  0.00  0.00    +0.029 C 
ATOM     13  C   UNL     1      -0.062  -0.726  23.013  0.00  0.00    +0.076 C 
ATOM     14  C   UNL     1      -4.336  -0.265  26.194  0.00  0.00    +0.007 C 
ATOM     15  C   UNL     1       0.085  -1.767  24.122  0.00  0.00    +0.023 C 
ATOM     16  C   UNL     1      -1.276  -0.246  26.437  0.00  0.00    +0.011 C 
ATOM     18  C   UNL     1      -1.021   1.474  22.241  0.00  0.00    +0.010 C 
ENDROOT
BRANCH  13   4
ATOM      3  O   UNL     1       1.709   1.293  24.113  0.00  0.00    -0.276 OA
ATOM      4  N   UNL     1       1.260  -0.366  22.544  0.00  0.00    -0.312 N 
ATOM     21  C   UNL     1       2.030   0.616  23.140  0.00  0.00    +0.216 C 
ATOM     31  H   UNL     1       1.605  -0.829  21.708  0.00  0.00    +0.149 HD
BRANCH  21  22
ATOM     22  C   UNL     1       3.366   0.771  22.473  0.00  0.00    +0.075 C 
ATOM     23  C   UNL     1       4.324   1.585  23.345  0.00  0.00    +0.013 C 
ATOM     24  C   UNL     1       3.929  -0.601  22.096  0.00  0.00    +0.013 C 
ATOM     25  C   UNL     1       4.897   0.794  24.521  0.00  0.00    +0.001 C 
ATOM     26  C   UNL     1       4.488  -1.367  23.294  0.00  0.00    +0.001 C 
ATOM     27  C   UNL     1       5.498  -0.534  24.074  0.00  0.00    +0.000 C 
ENDBRANCH  21  22
ENDBRANCH  13   4
BRANCH   9   1
ATOM      1  O   UNL     1      -3.555   2.000  23.291  0.00  0.00    -0.391 OA
ATOM     32  H   UNL     1      -2.829   2.622  23.108  0.00  0.00    +0.210 HD
ENDBRANCH   9   1
BRANCH  12  17
ATOM     17  C   UNL     1      -5.413   1.904  25.565  0.00  0.00    +0.077 C 
ATOM     19  C   UNL     1      -6.641   2.060  24.673  0.00  0.00    +0.017 C 
BRANCH  17  20
ATOM      2  O   UNL     1      -5.082   4.297  25.407  0.00  0.00    -0.276 OA
ATOM      5  N   UNL     1      -3.257   2.956  25.906  0.00  0.00    -0.313 N 
ATOM     20  C   UNL     1      -4.593   3.189  25.612  0.00  0.00    +0.216 C 
ATOM     33  H   UNL     1      -2.929   1.998  25.992  0.00  0.00    +0.149 HD
BRANCH   5  28
ATOM     28  C   UNL     1      -2.282   4.017  26.004  0.00  0.00    +0.067 C 
ATOM     29  C   UNL     1      -2.400   4.957  24.810  0.00  0.00    +0.027 C 
ATOM     30  C   UNL     1      -0.875   3.442  26.116  0.00  0.00    +0.027 C 
ENDBRANCH   5  28
ENDBRANCH  17  20
ENDBRANCH  12  17
TORSDOF 6
ENDMDL
