MODEL 1
REMARK VINA RESULT:       1.9      0.000      0.000
REMARK  Name = 51137976
REMARK  5 active torsions:
REMARK  status: ('A' for Active; 'I' for Inactive)
REMARK    1  A    between atoms: C_8  and  C_12
REMARK    2  A    between atoms: C_9  and  C_15
REMARK    3  A    between atoms: C_12  and  C_16
REMARK    4  A    between atoms: C_16  and  C_25
REMARK    5  A    between atoms: C_16  and  C_26
REMARK                            x       y       z     vdW  Elec       q    Type
REMARK                         _______ _______ _______ _____ _____    ______ ____
ROOT
ATOM      2  N   UNL     1      16.360  -5.184  24.037  0.00  0.00    -0.299 NA
ATOM      5  N   UNL     1      17.403  -1.323  27.121  0.00  0.00    -0.360 N 
ATOM      8  C   UNL     1      16.785  -4.082  23.165  0.00  0.00    +0.085 C 
ATOM      9  C   UNL     1      17.325  -5.555  25.063  0.00  0.00    +0.145 C 
ATOM     10  C   UNL     1      17.003  -4.893  26.401  0.00  0.00    +0.065 C 
ATOM     11  C   UNL     1      16.985  -2.725  23.849  0.00  0.00    -0.021 A 
ATOM     13  C   UNL     1      17.124  -2.527  25.253  0.00  0.00    +0.008 A 
ATOM     14  C   UNL     1      17.140  -3.407  26.390  0.00  0.00    -0.020 A 
ATOM     17  C   UNL     1      17.317  -1.233  25.751  0.00  0.00    +0.047 A 
ATOM     20  C   UNL     1      17.304  -2.625  27.514  0.00  0.00    +0.087 A 
ATOM     23  C   UNL     1      17.122  -1.570  23.038  0.00  0.00    +0.006 A 
ATOM     24  C   UNL     1      17.403  -0.102  24.939  0.00  0.00    +0.026 A 
ATOM     27  C   UNL     1      17.314  -0.294  23.566  0.00  0.00    +0.002 A 
ATOM     32  H   UNL     1      15.444  -4.995  24.443  0.00  0.00    +0.123 HD
ATOM     33  H   UNL     1      17.538  -0.538  27.742  0.00  0.00    +0.165 HD
ENDROOT
BRANCH   9  15
ATOM      1  O   UNL     1      17.405  -7.767  24.231  0.00  0.00    -0.274 OA
ATOM      3  N   UNL     1      16.829  -7.509  26.467  0.00  0.00    -0.297 N 
ATOM      4  N   UNL     1      16.288  -8.601  29.093  0.00  0.00    -0.297 N 
ATOM      6  N   UNL     1      15.295  -8.383  31.190  0.00  0.00    -0.223 NA
ATOM      7  N   UNL     1      16.636 -10.308  30.640  0.00  0.00    -0.223 NA
ATOM     15  C   UNL     1      17.195  -7.040  25.205  0.00  0.00    +0.233 C 
ATOM     18  C   UNL     1      16.687  -8.946  26.688  0.00  0.00    +0.127 C 
ATOM     19  C   UNL     1      16.579  -6.645  27.624  0.00  0.00    +0.127 C 
ATOM     21  C   UNL     1      17.077  -9.346  28.110  0.00  0.00    +0.127 C 
ATOM     22  C   UNL     1      15.711  -7.316  28.688  0.00  0.00    +0.127 C 
ATOM     28  C   UNL     1      16.063  -9.121  30.366  0.00  0.00    +0.218 A 
ATOM     29  C   UNL     1      15.098  -8.915  32.414  0.00  0.00    +0.116 A 
ATOM     30  C   UNL     1      16.397 -10.781  31.882  0.00  0.00    +0.116 A 
ATOM     31  C   UNL     1      15.629 -10.123  32.819  0.00  0.00    +0.039 A 
ENDBRANCH   9  15
BRANCH   8  12
ATOM     12  C   UNL     1      15.720  -4.031  22.055  0.00  0.00    +0.026 C 
BRANCH  12  16
ATOM     16  C   UNL     1      14.645  -2.968  22.305  0.00  0.00    -0.015 C 
ATOM     25  C   UNL     1      14.092  -3.132  23.723  0.00  0.00    +0.007 C 
ATOM     26  C   UNL     1      13.501  -3.038  21.293  0.00  0.00    +0.007 C 
ENDBRANCH  12  16
ENDBRANCH   8  12
TORSDOF 3
ENDMDL
