MODEL 1
REMARK VINA RESULT:      -2.9      0.000      0.000
REMARK  Name = 75536677
REMARK  8 active torsions:
REMARK  status: ('A' for Active; 'I' for Inactive)
REMARK    1  A    between atoms: S_1  and  N_9
REMARK    2  A    between atoms: S_1  and  C_22
REMARK    3  A    between atoms: O_3  and  C_12
REMARK    4  A    between atoms: N_7  and  C_10
REMARK    5  A    between atoms: N_7  and  C_11
REMARK    6  A    between atoms: N_9  and  C_19
REMARK    7  A    between atoms: C_13  and  C_19
REMARK    8  A    between atoms: C_20  and  C_21
REMARK                            x       y       z     vdW  Elec       q    Type
REMARK                         _______ _______ _______ _____ _____    ______ ____
ROOT
ATOM      2  O   UNL     1      -1.647   3.286  25.810  0.00  0.00    -0.371 OA
ATOM     10  C   UNL     1      -0.757   1.766  24.217  0.00  0.00    +0.111 C 
ATOM     12  C   UNL     1      -2.142   2.196  23.771  0.00  0.00    +0.164 C 
ATOM     13  C   UNL     1      -2.314   3.491  24.554  0.00  0.00    +0.164 C 
ATOM     14  C   UNL     1      -0.785   2.140  25.689  0.00  0.00    +0.181 C 
ENDROOT
BRANCH  12   3
ATOM      3  O   UNL     1      -2.224   2.409  22.375  0.00  0.00    -0.388 OA
ATOM     29  H   UNL     1      -2.003   1.577  21.926  0.00  0.00    +0.210 HD
ENDBRANCH  12   3
BRANCH  10   7
ATOM      7  N   UNL     1      -0.484   0.355  23.997  0.00  0.00    -0.306 NA
ATOM     28  H   UNL     1      -1.259  -0.079  23.498  0.00  0.00    +0.123 HD
BRANCH   7  11
ATOM      4  O   UNL     1       5.387  -1.470  23.957  0.00  0.00    -0.276 OA
ATOM      8  N   UNL     1       3.629  -0.165  23.180  0.00  0.00    -0.302 N 
ATOM     11  C   UNL     1       0.755   0.178  23.244  0.00  0.00    +0.057 C 
ATOM     15  C   UNL     1       1.710   1.347  23.520  0.00  0.00    +0.037 C 
ATOM     16  C   UNL     1       1.415  -1.154  23.623  0.00  0.00    +0.037 C 
ATOM     17  C   UNL     1       3.052   1.136  22.818  0.00  0.00    +0.109 C 
ATOM     18  C   UNL     1       2.762  -1.316  22.920  0.00  0.00    +0.109 C 
ATOM     20  C   UNL     1       4.910  -0.363  23.693  0.00  0.00    +0.212 C 
ATOM     21  C   UNL     1       5.740   0.872  23.937  0.00  0.00    +0.109 C 
ENDBRANCH   7  11
ENDBRANCH  10   7
BRANCH  13  19
ATOM     19  C   UNL     1      -3.768   3.856  24.798  0.00  0.00    +0.140 C 
BRANCH  19   9
ATOM      9  N   UNL     1      -4.643   2.848  24.169  0.00  0.00    -0.187 NA
ATOM     30  H   UNL     1      -4.984   3.078  23.228  0.00  0.00    +0.148 HD
BRANCH   9   1
ATOM      1  S   UNL     1      -5.580   1.811  25.140  0.00  0.00    +0.058 S 
ATOM      5  O   UNL     1      -6.868   1.596  24.510  0.00  0.00    -0.153 OA
ATOM      6  O   UNL     1      -5.506   2.260  26.517  0.00  0.00    -0.153 OA
BRANCH   1  22
ATOM     22  C   UNL     1      -4.667   0.300  25.041  0.00  0.00    +0.105 A 
ATOM     23  C   UNL     1      -4.760  -0.499  23.901  0.00  0.00    +0.028 A 
ATOM     24  C   UNL     1      -3.856  -0.095  26.105  0.00  0.00    +0.028 A 
ATOM     25  C   UNL     1      -4.043  -1.693  23.826  0.00  0.00    +0.002 A 
ATOM     26  C   UNL     1      -3.138  -1.289  26.029  0.00  0.00    +0.002 A 
ATOM     27  C   UNL     1      -3.232  -2.088  24.889  0.00  0.00    +0.000 A 
ENDBRANCH   1  22
ENDBRANCH   9   1
ENDBRANCH  19   9
ENDBRANCH  13  19
TORSDOF 7
ENDMDL
MODEL 2
REMARK VINA RESULT:      -1.8      2.708      7.091
REMARK  Name = 75536677
REMARK  8 active torsions:
REMARK  status: ('A' for Active; 'I' for Inactive)
REMARK    1  A    between atoms: S_1  and  N_9
REMARK    2  A    between atoms: S_1  and  C_22
REMARK    3  A    between atoms: O_3  and  C_12
REMARK    4  A    between atoms: N_7  and  C_10
REMARK    5  A    between atoms: N_7  and  C_11
REMARK    6  A    between atoms: N_9  and  C_19
REMARK    7  A    between atoms: C_13  and  C_19
REMARK    8  A    between atoms: C_20  and  C_21
REMARK                            x       y       z     vdW  Elec       q    Type
REMARK                         _______ _______ _______ _____ _____    ______ ____
ROOT
ATOM      2  O   UNL     1      -1.802  -1.001  26.523  0.00  0.00    -0.371 OA
ATOM     10  C   UNL     1      -3.422  -1.848  25.007  0.00  0.00    +0.111 C 
ATOM     12  C   UNL     1      -2.064  -1.849  24.331  0.00  0.00    +0.164 C 
ATOM     13  C   UNL     1      -1.136  -1.807  25.537  0.00  0.00    +0.164 C 
ATOM     14  C   UNL     1      -3.187  -0.880  26.154  0.00  0.00    +0.181 C 
ENDROOT
BRANCH  12   3
ATOM      3  O   UNL     1      -1.849  -3.001  23.539  0.00  0.00    -0.388 OA
ATOM     29  H   UNL     1      -2.606  -3.105  22.939  0.00  0.00    +0.210 HD
ENDBRANCH  12   3
BRANCH  10   7
ATOM      7  N   UNL     1      -4.509  -1.438  24.134  0.00  0.00    -0.306 NA
ATOM     28  H   UNL     1      -5.407  -1.675  24.553  0.00  0.00    +0.123 HD
BRANCH   7  11
ATOM      4  O   UNL     1      -1.382   3.834  24.623  0.00  0.00    -0.276 OA
ATOM      8  N   UNL     1      -3.352   2.615  24.446  0.00  0.00    -0.302 N 
ATOM     11  C   UNL     1      -4.447  -0.003  23.868  0.00  0.00    +0.057 C 
ATOM     15  C   UNL     1      -4.860   0.783  25.120  0.00  0.00    +0.037 C 
ATOM     16  C   UNL     1      -3.029   0.391  23.432  0.00  0.00    +0.037 C 
ATOM     17  C   UNL     1      -4.710   2.288  24.897  0.00  0.00    +0.109 C 
ATOM     18  C   UNL     1      -2.916   1.903  23.242  0.00  0.00    +0.109 C 
ATOM     20  C   UNL     1      -2.507   3.550  25.042  0.00  0.00    +0.212 C 
ATOM     21  C   UNL     1      -3.027   4.238  26.279  0.00  0.00    +0.109 C 
ENDBRANCH   7  11
ENDBRANCH  10   7
BRANCH  13  19
ATOM     19  C   UNL     1       0.227  -1.214  25.225  0.00  0.00    +0.140 C 
BRANCH  19   9
ATOM      9  N   UNL     1       0.525  -1.386  23.790  0.00  0.00    -0.187 NA
ATOM     30  H   UNL     1       0.790  -2.335  23.500  0.00  0.00    +0.148 HD
BRANCH   9   1
ATOM      1  S   UNL     1       1.096  -0.070  22.876  0.00  0.00    +0.058 S 
ATOM      5  O   UNL     1       0.598   1.166  23.448  0.00  0.00    -0.153 OA
ATOM      6  O   UNL     1       0.898  -0.353  21.467  0.00  0.00    -0.153 OA
BRANCH   1  22
ATOM     22  C   UNL     1       2.836  -0.148  23.177  0.00  0.00    +0.105 A 
ATOM     23  C   UNL     1       3.642   0.959  22.909  0.00  0.00    +0.028 A 
ATOM     24  C   UNL     1       3.405  -1.318  23.679  0.00  0.00    +0.028 A 
ATOM     25  C   UNL     1       5.015   0.896  23.143  0.00  0.00    +0.002 A 
ATOM     26  C   UNL     1       4.779  -1.381  23.914  0.00  0.00    +0.002 A 
ATOM     27  C   UNL     1       5.584  -0.274  23.645  0.00  0.00    +0.000 A 
ENDBRANCH   1  22
ENDBRANCH   9   1
ENDBRANCH  19   9
ENDBRANCH  13  19
TORSDOF 7
ENDMDL
MODEL 3
REMARK VINA RESULT:      -1.3      2.581      6.236
REMARK  Name = 75536677
REMARK  8 active torsions:
REMARK  status: ('A' for Active; 'I' for Inactive)
REMARK    1  A    between atoms: S_1  and  N_9
REMARK    2  A    between atoms: S_1  and  C_22
REMARK    3  A    between atoms: O_3  and  C_12
REMARK    4  A    between atoms: N_7  and  C_10
REMARK    5  A    between atoms: N_7  and  C_11
REMARK    6  A    between atoms: N_9  and  C_19
REMARK    7  A    between atoms: C_13  and  C_19
REMARK    8  A    between atoms: C_20  and  C_21
REMARK                            x       y       z     vdW  Elec       q    Type
REMARK                         _______ _______ _______ _____ _____    ______ ____
ROOT
ATOM      2  O   UNL     1      -1.472   0.979  22.745  0.00  0.00    -0.371 OA
ATOM     10  C   UNL     1      -0.441   2.903  23.682  0.00  0.00    +0.111 C 
ATOM     12  C   UNL     1       0.316   1.667  24.132  0.00  0.00    +0.164 C 
ATOM     13  C   UNL     1      -0.109   0.660  23.071  0.00  0.00    +0.164 C 
ATOM     14  C   UNL     1      -1.762   2.300  23.235  0.00  0.00    +0.181 C 
ENDROOT
BRANCH  12   3
ATOM      3  O   UNL     1       1.717   1.860  24.145  0.00  0.00    -0.388 OA
ATOM     29  H   UNL     1       1.994   2.020  25.062  0.00  0.00    +0.210 HD
ENDBRANCH  12   3
BRANCH  10   7
ATOM      7  N   UNL     1      -0.599   3.903  24.725  0.00  0.00    -0.306 NA
ATOM     28  H   UNL     1      -0.069   4.741  24.493  0.00  0.00    +0.123 HD
BRANCH   7  11
ATOM      4  O   UNL     1      -6.081   2.346  27.037  0.00  0.00    -0.276 OA
ATOM      8  N   UNL     1      -4.729   3.435  25.493  0.00  0.00    -0.302 N 
ATOM     11  C   UNL     1      -2.008   4.239  24.911  0.00  0.00    +0.057 C 
ATOM     15  C   UNL     1      -2.868   3.500  23.875  0.00  0.00    +0.037 C 
ATOM     16  C   UNL     1      -2.453   3.875  26.334  0.00  0.00    +0.037 C 
ATOM     17  C   UNL     1      -4.355   3.762  24.111  0.00  0.00    +0.109 C 
ATOM     18  C   UNL     1      -3.949   4.129  26.520  0.00  0.00    +0.109 C 
ATOM     20  C   UNL     1      -5.762   2.577  25.868  0.00  0.00    +0.212 C 
ATOM     21  C   UNL     1      -6.515   1.898  24.752  0.00  0.00    +0.109 C 
ENDBRANCH   7  11
ENDBRANCH  10   7
BRANCH  13  19
ATOM     19  C   UNL     1      -0.018  -0.781  23.541  0.00  0.00    +0.140 C 
BRANCH  19   9
ATOM      9  N   UNL     1       0.172  -0.813  25.004  0.00  0.00    -0.187 NA
ATOM     30  H   UNL     1       0.923  -1.426  25.343  0.00  0.00    +0.148 HD
BRANCH   9   1
ATOM      1  S   UNL     1      -1.139  -0.490  26.040  0.00  0.00    +0.058 S 
ATOM      5  O   UNL     1      -1.367   0.942  26.094  0.00  0.00    -0.153 OA
ATOM      6  O   UNL     1      -0.971  -1.249  27.264  0.00  0.00    -0.153 OA
BRANCH   1  22
ATOM     22  C   UNL     1      -2.485  -1.223  25.159  0.00  0.00    +0.105 A 
ATOM     23  C   UNL     1      -2.479  -2.592  24.889  0.00  0.00    +0.028 A 
ATOM     24  C   UNL     1      -3.551  -0.433  24.731  0.00  0.00    +0.028 A 
ATOM     25  C   UNL     1      -3.540  -3.169  24.190  0.00  0.00    +0.002 A 
ATOM     26  C   UNL     1      -4.612  -1.011  24.033  0.00  0.00    +0.002 A 
ATOM     27  C   UNL     1      -4.606  -2.379  23.762  0.00  0.00    +0.000 A 
ENDBRANCH   1  22
ENDBRANCH   9   1
ENDBRANCH  19   9
ENDBRANCH  13  19
TORSDOF 7
ENDMDL
MODEL 4
REMARK VINA RESULT:      -1.3      1.605      3.251
REMARK  Name = 75536677
REMARK  8 active torsions:
REMARK  status: ('A' for Active; 'I' for Inactive)
REMARK    1  A    between atoms: S_1  and  N_9
REMARK    2  A    between atoms: S_1  and  C_22
REMARK    3  A    between atoms: O_3  and  C_12
REMARK    4  A    between atoms: N_7  and  C_10
REMARK    5  A    between atoms: N_7  and  C_11
REMARK    6  A    between atoms: N_9  and  C_19
REMARK    7  A    between atoms: C_13  and  C_19
REMARK    8  A    between atoms: C_20  and  C_21
REMARK                            x       y       z     vdW  Elec       q    Type
REMARK                         _______ _______ _______ _____ _____    ______ ____
ROOT
ATOM      2  O   UNL     1      -3.835   1.266  23.034  0.00  0.00    -0.371 OA
ATOM     10  C   UNL     1      -1.629   0.762  23.757  0.00  0.00    +0.111 C 
ATOM     12  C   UNL     1      -2.594   0.510  24.900  0.00  0.00    +0.164 C 
ATOM     13  C   UNL     1      -3.909   0.360  24.147  0.00  0.00    +0.164 C 
ATOM     14  C   UNL     1      -2.462   1.655  22.852  0.00  0.00    +0.181 C 
ENDROOT
BRANCH  12   3
ATOM      3  O   UNL     1      -2.273  -0.653  25.639  0.00  0.00    -0.388 OA
ATOM     29  H   UNL     1      -2.691  -1.415  25.206  0.00  0.00    +0.210 HD
ENDBRANCH  12   3
BRANCH  10   7
ATOM      7  N   UNL     1      -0.382   1.383  24.171  0.00  0.00    -0.306 NA
ATOM     28  H   UNL     1      -0.201   1.188  25.155  0.00  0.00    +0.123 HD
BRANCH   7  11
ATOM      4  O   UNL     1       4.824  -1.872  23.829  0.00  0.00    -0.276 OA
ATOM      8  N   UNL     1       3.418  -0.155  23.141  0.00  0.00    -0.302 N 
ATOM     11  C   UNL     1       0.731   0.905  23.355  0.00  0.00    +0.057 C 
ATOM     15  C   UNL     1       1.965   1.791  23.576  0.00  0.00    +0.037 C 
ATOM     16  C   UNL     1       1.051  -0.555  23.704  0.00  0.00    +0.037 C 
ATOM     17  C   UNL     1       3.171   1.253  22.805  0.00  0.00    +0.109 C 
ATOM     18  C   UNL     1       2.274  -1.046  22.931  0.00  0.00    +0.109 C 
ATOM     20  C   UNL     1       4.631  -0.677  23.587  0.00  0.00    +0.212 C 
ATOM     21  C   UNL     1       5.759   0.305  23.782  0.00  0.00    +0.109 C 
ENDBRANCH   7  11
ENDBRANCH  10   7
BRANCH  13  19
ATOM     19  C   UNL     1      -5.127   0.685  24.994  0.00  0.00    +0.140 C 
BRANCH  19   9
ATOM      9  N   UNL     1      -5.597   2.049  24.681  0.00  0.00    -0.187 NA
ATOM     30  H   UNL     1      -5.599   2.302  23.685  0.00  0.00    +0.148 HD
BRANCH   9   1
ATOM      1  S   UNL     1      -5.434   3.291  25.832  0.00  0.00    +0.058 S 
ATOM      5  O   UNL     1      -5.533   2.727  27.165  0.00  0.00    -0.153 OA
ATOM      6  O   UNL     1      -6.278   4.405  25.446  0.00  0.00    -0.153 OA
BRANCH   1  22
ATOM     22  C   UNL     1      -3.760   3.802  25.579  0.00  0.00    +0.105 A 
ATOM     23  C   UNL     1      -3.436   4.621  24.498  0.00  0.00    +0.028 A 
ATOM     24  C   UNL     1      -2.763   3.382  26.459  0.00  0.00    +0.028 A 
ATOM     25  C   UNL     1      -2.115   5.020  24.297  0.00  0.00    +0.002 A 
ATOM     26  C   UNL     1      -1.441   3.782  26.258  0.00  0.00    +0.002 A 
ATOM     27  C   UNL     1      -1.118   4.601  25.176  0.00  0.00    +0.000 A 
ENDBRANCH   1  22
ENDBRANCH   9   1
ENDBRANCH  19   9
ENDBRANCH  13  19
TORSDOF 7
ENDMDL
MODEL 5
REMARK VINA RESULT:      -1.2     14.225     15.806
REMARK  Name = 75536677
REMARK  8 active torsions:
REMARK  status: ('A' for Active; 'I' for Inactive)
REMARK    1  A    between atoms: S_1  and  N_9
REMARK    2  A    between atoms: S_1  and  C_22
REMARK    3  A    between atoms: O_3  and  C_12
REMARK    4  A    between atoms: N_7  and  C_10
REMARK    5  A    between atoms: N_7  and  C_11
REMARK    6  A    between atoms: N_9  and  C_19
REMARK    7  A    between atoms: C_13  and  C_19
REMARK    8  A    between atoms: C_20  and  C_21
REMARK                            x       y       z     vdW  Elec       q    Type
REMARK                         _______ _______ _______ _____ _____    ______ ____
ROOT
ATOM      2  O   UNL     1      -6.582  -9.611  13.527  0.00  0.00    -0.371 OA
ATOM     10  C   UNL     1      -5.599  -9.667  11.366  0.00  0.00    +0.111 C 
ATOM     12  C   UNL     1      -7.102  -9.823  11.230  0.00  0.00    +0.164 C 
ATOM     13  C   UNL     1      -7.578  -9.247  12.557  0.00  0.00    +0.164 C 
ATOM     14  C   UNL     1      -5.391 -10.018  12.830  0.00  0.00    +0.181 C 
ENDROOT
BRANCH  12   3
ATOM      3  O   UNL     1      -7.627  -9.109  10.126  0.00  0.00    -0.388 OA
ATOM     29  H   UNL     1      -6.939  -8.507   9.798  0.00  0.00    +0.210 HD
ENDBRANCH  12   3
BRANCH  10   7
ATOM      7  N   UNL     1      -4.839 -10.521  10.467  0.00  0.00    -0.306 NA
ATOM     28  H   UNL     1      -4.925 -10.187   9.508  0.00  0.00    +0.123 HD
BRANCH   7  11
ATOM      4  O   UNL     1      -0.488  -8.923  14.508  0.00  0.00    -0.276 OA
ATOM      8  N   UNL     1      -1.211  -9.489  12.373  0.00  0.00    -0.302 N 
ATOM     11  C   UNL     1      -3.432 -10.562  10.856  0.00  0.00    +0.057 C 
ATOM     15  C   UNL     1      -2.733  -9.258  10.446  0.00  0.00    +0.037 C 
ATOM     16  C   UNL     1      -3.311 -10.781  12.370  0.00  0.00    +0.037 C 
ATOM     17  C   UNL     1      -1.283  -9.239  10.928  0.00  0.00    +0.109 C 
ATOM     18  C   UNL     1      -1.850 -10.731  12.814  0.00  0.00    +0.109 C 
ATOM     20  C   UNL     1      -0.566  -8.673  13.302  0.00  0.00    +0.212 C 
ATOM     21  C   UNL     1       0.064  -7.410  12.770  0.00  0.00    +0.109 C 
ENDBRANCH   7  11
ENDBRANCH  10   7
BRANCH  13  19
ATOM     19  C   UNL     1      -8.934  -9.778  12.989  0.00  0.00    +0.140 C 
BRANCH  19   9
ATOM      9  N   UNL     1      -8.788 -10.547  14.240  0.00  0.00    -0.187 NA
ATOM     30  H   UNL     1      -8.701 -11.564  14.130  0.00  0.00    +0.148 HD
BRANCH   9   1
ATOM      1  S   UNL     1      -9.435  -9.941  15.692  0.00  0.00    +0.058 S 
ATOM      5  O   UNL     1     -10.539 -10.781  16.115  0.00  0.00    -0.153 OA
ATOM      6  O   UNL     1      -9.616  -8.507  15.565  0.00  0.00    -0.153 OA
BRANCH   1  22
ATOM     22  C   UNL     1      -8.095 -10.193  16.818  0.00  0.00    +0.105 A 
ATOM     23  C   UNL     1      -6.780 -10.019  16.388  0.00  0.00    +0.028 A 
ATOM     24  C   UNL     1      -8.354 -10.571  18.135  0.00  0.00    +0.028 A 
ATOM     25  C   UNL     1      -5.723 -10.222  17.275  0.00  0.00    +0.002 A 
ATOM     26  C   UNL     1      -7.296 -10.773  19.023  0.00  0.00    +0.002 A 
ATOM     27  C   UNL     1      -5.981 -10.600  18.593  0.00  0.00    +0.000 A 
ENDBRANCH   1  22
ENDBRANCH   9   1
ENDBRANCH  19   9
ENDBRANCH  13  19
TORSDOF 7
ENDMDL
MODEL 6
REMARK VINA RESULT:      -1.1      1.545      1.943
REMARK  Name = 75536677
REMARK  8 active torsions:
REMARK  status: ('A' for Active; 'I' for Inactive)
REMARK    1  A    between atoms: S_1  and  N_9
REMARK    2  A    between atoms: S_1  and  C_22
REMARK    3  A    between atoms: O_3  and  C_12
REMARK    4  A    between atoms: N_7  and  C_10
REMARK    5  A    between atoms: N_7  and  C_11
REMARK    6  A    between atoms: N_9  and  C_19
REMARK    7  A    between atoms: C_13  and  C_19
REMARK    8  A    between atoms: C_20  and  C_21
REMARK                            x       y       z     vdW  Elec       q    Type
REMARK                         _______ _______ _______ _____ _____    ______ ____
ROOT
ATOM      2  O   UNL     1      -1.023   1.394  26.356  0.00  0.00    -0.371 OA
ATOM     10  C   UNL     1       0.203   1.168  24.334  0.00  0.00    +0.111 C 
ATOM     12  C   UNL     1      -0.539   2.491  24.318  0.00  0.00    +0.164 C 
ATOM     13  C   UNL     1      -0.798   2.702  25.803  0.00  0.00    +0.164 C 
ATOM     14  C   UNL     1      -0.552   0.413  25.414  0.00  0.00    +0.181 C 
ENDROOT
BRANCH  12   3
ATOM      3  O   UNL     1       0.229   3.542  23.762  0.00  0.00    -0.388 OA
ATOM     29  H   UNL     1       0.951   3.750  24.376  0.00  0.00    +0.210 HD
ENDBRANCH  12   3
BRANCH  10   7
ATOM      7  N   UNL     1       0.198   0.480  23.053  0.00  0.00    -0.306 NA
ATOM     28  H   UNL     1      -0.228   1.068  22.339  0.00  0.00    +0.123 HD
BRANCH   7  11
ATOM      4  O   UNL     1       5.869  -1.187  24.748  0.00  0.00    -0.276 OA
ATOM      8  N   UNL     1       4.365  -0.185  23.288  0.00  0.00    -0.302 N 
ATOM     11  C   UNL     1       1.555   0.116  22.655  0.00  0.00    +0.057 C 
ATOM     15  C   UNL     1       2.485   1.330  22.782  0.00  0.00    +0.037 C 
ATOM     16  C   UNL     1       2.065  -1.042  23.523  0.00  0.00    +0.037 C 
ATOM     17  C   UNL     1       3.931   0.949  22.463  0.00  0.00    +0.109 C 
ATOM     18  C   UNL     1       3.519  -1.376  23.189  0.00  0.00    +0.109 C 
ATOM     20  C   UNL     1       5.505  -0.208  24.091  0.00  0.00    +0.212 C 
ATOM     21  C   UNL     1       6.322   1.058  24.143  0.00  0.00    +0.109 C 
ENDBRANCH   7  11
ENDBRANCH  10   7
BRANCH  13  19
ATOM     19  C   UNL     1      -1.997   3.591  26.084  0.00  0.00    +0.140 C 
BRANCH  19   9
ATOM      9  N   UNL     1      -2.575   4.058  24.809  0.00  0.00    -0.187 NA
ATOM     30  H   UNL     1      -2.209   4.950  24.454  0.00  0.00    +0.148 HD
BRANCH   9   1
ATOM      1  S   UNL     1      -4.153   3.597  24.371  0.00  0.00    +0.058 S 
ATOM      5  O   UNL     1      -4.427   4.044  23.018  0.00  0.00    -0.153 OA
ATOM      6  O   UNL     1      -5.061   3.938  25.450  0.00  0.00    -0.153 OA
BRANCH   1  22
ATOM     22  C   UNL     1      -4.022   1.834  24.346  0.00  0.00    +0.105 A 
ATOM     23  C   UNL     1      -4.514   1.083  25.414  0.00  0.00    +0.028 A 
ATOM     24  C   UNL     1      -3.422   1.195  23.262  0.00  0.00    +0.028 A 
ATOM     25  C   UNL     1      -4.406  -0.308  25.396  0.00  0.00    +0.002 A 
ATOM     26  C   UNL     1      -3.315  -0.196  23.244  0.00  0.00    +0.002 A 
ATOM     27  C   UNL     1      -3.806  -0.947  24.311  0.00  0.00    +0.000 A 
ENDBRANCH   1  22
ENDBRANCH   9   1
ENDBRANCH  19   9
ENDBRANCH  13  19
TORSDOF 7
ENDMDL
MODEL 7
REMARK VINA RESULT:      -1.0      2.759      3.885
REMARK  Name = 75536677
REMARK  8 active torsions:
REMARK  status: ('A' for Active; 'I' for Inactive)
REMARK    1  A    between atoms: S_1  and  N_9
REMARK    2  A    between atoms: S_1  and  C_22
REMARK    3  A    between atoms: O_3  and  C_12
REMARK    4  A    between atoms: N_7  and  C_10
REMARK    5  A    between atoms: N_7  and  C_11
REMARK    6  A    between atoms: N_9  and  C_19
REMARK    7  A    between atoms: C_13  and  C_19
REMARK    8  A    between atoms: C_20  and  C_21
REMARK                            x       y       z     vdW  Elec       q    Type
REMARK                         _______ _______ _______ _____ _____    ______ ____
ROOT
ATOM      2  O   UNL     1      -1.350   3.445  26.802  0.00  0.00    -0.371 OA
ATOM     10  C   UNL     1       0.178   3.004  25.038  0.00  0.00    +0.111 C 
ATOM     12  C   UNL     1      -0.905   3.938  24.533  0.00  0.00    +0.164 C 
ATOM     13  C   UNL     1      -1.434   4.510  25.841  0.00  0.00    +0.164 C 
ATOM     14  C   UNL     1      -0.479   2.425  26.280  0.00  0.00    +0.181 C 
ENDROOT
BRANCH  12   3
ATOM      3  O   UNL     1      -0.400   4.949  23.681  0.00  0.00    -0.388 OA
ATOM     29  H   UNL     1       0.460   4.658  23.338  0.00  0.00    +0.210 HD
ENDBRANCH  12   3
BRANCH  10   7
ATOM      7  N   UNL     1       0.566   1.985  24.076  0.00  0.00    -0.306 NA
ATOM     28  H   UNL     1       1.542   2.105  23.810  0.00  0.00    +0.123 HD
BRANCH   7  11
ATOM      4  O   UNL     1      -2.173  -3.499  23.590  0.00  0.00    -0.276 OA
ATOM      8  N   UNL     1      -1.212  -1.777  24.818  0.00  0.00    -0.302 N 
ATOM     11  C   UNL     1       0.360   0.648  24.627  0.00  0.00    +0.057 C 
ATOM     15  C   UNL     1      -0.953   0.601  25.420  0.00  0.00    +0.037 C 
ATOM     16  C   UNL     1       0.339  -0.389  23.496  0.00  0.00    +0.037 C 
ATOM     17  C   UNL     1      -1.238  -0.813  25.925  0.00  0.00    +0.109 C 
ATOM     18  C   UNL     1       0.029  -1.784  24.039  0.00  0.00    +0.109 C 
ATOM     20  C   UNL     1      -2.233  -2.673  24.504  0.00  0.00    +0.212 C 
ATOM     21  C   UNL     1      -3.479  -2.602  25.350  0.00  0.00    +0.109 C 
ENDBRANCH   7  11
ENDBRANCH  10   7
BRANCH  13  19
ATOM     19  C   UNL     1      -2.867   5.003  25.745  0.00  0.00    +0.140 C 
BRANCH  19   9
ATOM      9  N   UNL     1      -3.750   4.109  26.520  0.00  0.00    -0.187 NA
ATOM     30  H   UNL     1      -3.300   3.589  27.282  0.00  0.00    +0.148 HD
BRANCH   9   1
ATOM      1  S   UNL     1      -5.137   3.444  25.793  0.00  0.00    +0.058 S 
ATOM      5  O   UNL     1      -5.821   4.471  25.031  0.00  0.00    -0.153 OA
ATOM      6  O   UNL     1      -5.860   2.665  26.781  0.00  0.00    -0.153 OA
BRANCH   1  22
ATOM     22  C   UNL     1      -4.431   2.296  24.649  0.00  0.00    +0.105 A 
ATOM     23  C   UNL     1      -3.644   2.757  23.593  0.00  0.00    +0.028 A 
ATOM     24  C   UNL     1      -4.663   0.929  24.800  0.00  0.00    +0.028 A 
ATOM     25  C   UNL     1      -3.090   1.851  22.689  0.00  0.00    +0.002 A 
ATOM     26  C   UNL     1      -4.108   0.023  23.895  0.00  0.00    +0.002 A 
ATOM     27  C   UNL     1      -3.323   0.485  22.839  0.00  0.00    +0.000 A 
ENDBRANCH   1  22
ENDBRANCH   9   1
ENDBRANCH  19   9
ENDBRANCH  13  19
TORSDOF 7
ENDMDL
MODEL 8
REMARK VINA RESULT:      -0.9      2.552      6.677
REMARK  Name = 75536677
REMARK  8 active torsions:
REMARK  status: ('A' for Active; 'I' for Inactive)
REMARK    1  A    between atoms: S_1  and  N_9
REMARK    2  A    between atoms: S_1  and  C_22
REMARK    3  A    between atoms: O_3  and  C_12
REMARK    4  A    between atoms: N_7  and  C_10
REMARK    5  A    between atoms: N_7  and  C_11
REMARK    6  A    between atoms: N_9  and  C_19
REMARK    7  A    between atoms: C_13  and  C_19
REMARK    8  A    between atoms: C_20  and  C_21
REMARK                            x       y       z     vdW  Elec       q    Type
REMARK                         _______ _______ _______ _____ _____    ______ ____
ROOT
ATOM      2  O   UNL     1      -1.559   1.860  22.781  0.00  0.00    -0.371 OA
ATOM     10  C   UNL     1      -3.445   2.546  24.053  0.00  0.00    +0.111 C 
ATOM     12  C   UNL     1      -2.231   2.480  24.961  0.00  0.00    +0.164 C 
ATOM     13  C   UNL     1      -1.099   2.563  23.947  0.00  0.00    +0.164 C 
ATOM     14  C   UNL     1      -2.986   1.699  22.878  0.00  0.00    +0.181 C 
ENDROOT
BRANCH  12   3
ATOM      3  O   UNL     1      -2.187   3.547  25.890  0.00  0.00    -0.388 OA
ATOM     29  H   UNL     1      -2.998   3.521  26.423  0.00  0.00    +0.210 HD
ENDBRANCH  12   3
BRANCH  10   7
ATOM      7  N   UNL     1      -4.663   2.046  24.669  0.00  0.00    -0.306 NA
ATOM     28  H   UNL     1      -5.456   2.188  24.046  0.00  0.00    +0.123 HD
BRANCH   7  11
ATOM      4  O   UNL     1      -0.996  -2.837  25.387  0.00  0.00    -0.276 OA
ATOM      8  N   UNL     1      -3.041  -1.850  24.895  0.00  0.00    -0.302 N 
ATOM     11  C   UNL     1      -4.534   0.629  24.998  0.00  0.00    +0.057 C 
ATOM     15  C   UNL     1      -4.448  -0.205  23.712  0.00  0.00    +0.037 C 
ATOM     16  C   UNL     1      -3.291   0.402  25.868  0.00  0.00    +0.037 C 
ATOM     17  C   UNL     1      -4.216  -1.682  24.031  0.00  0.00    +0.109 C 
ATOM     18  C   UNL     1      -3.083  -1.087  26.144  0.00  0.00    +0.109 C 
ATOM     20  C   UNL     1      -1.957  -2.685  24.628  0.00  0.00    +0.212 C 
ATOM     21  C   UNL     1      -1.986  -3.434  23.320  0.00  0.00    +0.109 C 
ENDBRANCH   7  11
ENDBRANCH  10   7
BRANCH  13  19
ATOM     19  C   UNL     1       0.197   1.944  24.441  0.00  0.00    +0.140 C 
BRANCH  19   9
ATOM      9  N   UNL     1       1.055   1.608  23.288  0.00  0.00    -0.187 NA
ATOM     30  H   UNL     1       1.086   2.307  22.537  0.00  0.00    +0.148 HD
BRANCH   9   1
ATOM      1  S   UNL     1       1.350  -0.020  22.894  0.00  0.00    +0.058 S 
ATOM      5  O   UNL     1       1.152  -0.213  21.470  0.00  0.00    -0.153 OA
ATOM      6  O   UNL     1       0.662  -0.869  23.848  0.00  0.00    -0.153 OA
BRANCH   1  22
ATOM     22  C   UNL     1       3.080  -0.166  23.228  0.00  0.00    +0.105 A 
ATOM     23  C   UNL     1       3.598  -1.368  23.710  0.00  0.00    +0.028 A 
ATOM     24  C   UNL     1       3.925   0.922  23.015  0.00  0.00    +0.028 A 
ATOM     25  C   UNL     1       4.963  -1.482  23.978  0.00  0.00    +0.002 A 
ATOM     26  C   UNL     1       5.290   0.808  23.282  0.00  0.00    +0.002 A 
ATOM     27  C   UNL     1       5.808  -0.394  23.765  0.00  0.00    +0.000 A 
ENDBRANCH   1  22
ENDBRANCH   9   1
ENDBRANCH  19   9
ENDBRANCH  13  19
TORSDOF 7
ENDMDL
MODEL 9
REMARK VINA RESULT:      -0.3      1.854      3.562
REMARK  Name = 75536677
REMARK  8 active torsions:
REMARK  status: ('A' for Active; 'I' for Inactive)
REMARK    1  A    between atoms: S_1  and  N_9
REMARK    2  A    between atoms: S_1  and  C_22
REMARK    3  A    between atoms: O_3  and  C_12
REMARK    4  A    between atoms: N_7  and  C_10
REMARK    5  A    between atoms: N_7  and  C_11
REMARK    6  A    between atoms: N_9  and  C_19
REMARK    7  A    between atoms: C_13  and  C_19
REMARK    8  A    between atoms: C_20  and  C_21
REMARK                            x       y       z     vdW  Elec       q    Type
REMARK                         _______ _______ _______ _____ _____    ______ ____
ROOT
ATOM      2  O   UNL     1      -2.027  -2.300  24.131  0.00  0.00    -0.371 OA
ATOM     10  C   UNL     1      -0.270  -0.703  24.179  0.00  0.00    +0.111 C 
ATOM     12  C   UNL     1      -1.371  -0.256  25.122  0.00  0.00    +0.164 C 
ATOM     13  C   UNL     1      -2.100  -1.570  25.367  0.00  0.00    +0.164 C 
ATOM     14  C   UNL     1      -1.008  -1.705  23.308  0.00  0.00    +0.181 C 
ENDROOT
BRANCH  12   3
ATOM      3  O   UNL     1      -0.870   0.301  26.322  0.00  0.00    -0.388 OA
ATOM     29  H   UNL     1       0.097   0.212  26.319  0.00  0.00    +0.210 HD
ENDBRANCH  12   3
BRANCH  10   7
ATOM      7  N   UNL     1       0.322   0.383  23.416  0.00  0.00    -0.306 NA
ATOM     28  H   UNL     1       0.383   1.224  23.988  0.00  0.00    +0.123 HD
BRANCH   7  11
ATOM      4  O   UNL     1       6.119  -1.187  24.738  0.00  0.00    -0.276 OA
ATOM      8  N   UNL     1       4.500  -0.248  23.359  0.00  0.00    -0.302 N 
ATOM     11  C   UNL     1       1.649   0.012  22.930  0.00  0.00    +0.057 C 
ATOM     15  C   UNL     1       2.575   1.236  22.942  0.00  0.00    +0.037 C 
ATOM     16  C   UNL     1       2.232  -1.110  23.798  0.00  0.00    +0.037 C 
ATOM     17  C   UNL     1       3.996   0.852  22.528  0.00  0.00    +0.109 C 
ATOM     18  C   UNL     1       3.660  -1.447  23.368  0.00  0.00    +0.109 C 
ATOM     20  C   UNL     1       5.697  -0.236  24.074  0.00  0.00    +0.212 C 
ATOM     21  C   UNL     1       6.505   1.036  24.018  0.00  0.00    +0.109 C 
ENDBRANCH   7  11
ENDBRANCH  10   7
BRANCH  13  19
ATOM     19  C   UNL     1      -3.553  -1.385  25.768  0.00  0.00    +0.140 C 
BRANCH  19   9
ATOM      9  N   UNL     1      -3.827   0.049  25.985  0.00  0.00    -0.187 NA
ATOM     30  H   UNL     1      -4.122   0.308  26.934  0.00  0.00    +0.148 HD
BRANCH   9   1
ATOM      1  S   UNL     1      -4.331   1.025  24.685  0.00  0.00    +0.058 S 
ATOM      5  O   UNL     1      -5.718   1.401  24.876  0.00  0.00    -0.153 OA
ATOM      6  O   UNL     1      -3.905   0.410  23.442  0.00  0.00    -0.153 OA
BRANCH   1  22
ATOM     22  C   UNL     1      -3.338   2.470  24.911  0.00  0.00    +0.105 A 
ATOM     23  C   UNL     1      -2.185   2.651  24.147  0.00  0.00    +0.028 A 
ATOM     24  C   UNL     1      -3.704   3.426  25.858  0.00  0.00    +0.028 A 
ATOM     25  C   UNL     1      -1.400   3.790  24.328  0.00  0.00    +0.002 A 
ATOM     26  C   UNL     1      -2.919   4.565  26.039  0.00  0.00    +0.002 A 
ATOM     27  C   UNL     1      -1.766   4.746  25.275  0.00  0.00    +0.000 A 
ENDBRANCH   1  22
ENDBRANCH   9   1
ENDBRANCH  19   9
ENDBRANCH  13  19
TORSDOF 7
ENDMDL
MODEL 10
REMARK VINA RESULT:      -0.2      2.788      6.034
REMARK  Name = 75536677
REMARK  8 active torsions:
REMARK  status: ('A' for Active; 'I' for Inactive)
REMARK    1  A    between atoms: S_1  and  N_9
REMARK    2  A    between atoms: S_1  and  C_22
REMARK    3  A    between atoms: O_3  and  C_12
REMARK    4  A    between atoms: N_7  and  C_10
REMARK    5  A    between atoms: N_7  and  C_11
REMARK    6  A    between atoms: N_9  and  C_19
REMARK    7  A    between atoms: C_13  and  C_19
REMARK    8  A    between atoms: C_20  and  C_21
REMARK                            x       y       z     vdW  Elec       q    Type
REMARK                         _______ _______ _______ _____ _____    ______ ____
ROOT
ATOM      2  O   UNL     1      -2.993   4.697  23.759  0.00  0.00    -0.371 OA
ATOM     10  C   UNL     1      -4.549   3.778  25.301  0.00  0.00    +0.111 C 
ATOM     12  C   UNL     1      -3.163   3.749  25.919  0.00  0.00    +0.164 C 
ATOM     13  C   UNL     1      -2.447   4.802  25.085  0.00  0.00    +0.164 C 
ATOM     14  C   UNL     1      -4.217   3.944  23.828  0.00  0.00    +0.181 C 
ENDROOT
BRANCH  12   3
ATOM      3  O   UNL     1      -3.172   4.082  27.295  0.00  0.00    -0.388 OA
ATOM     29  H   UNL     1      -2.735   3.366  27.784  0.00  0.00    +0.210 HD
ENDBRANCH  12   3
BRANCH  10   7
ATOM      7  N   UNL     1      -5.335   2.586  25.574  0.00  0.00    -0.306 NA
ATOM     28  H   UNL     1      -6.329   2.792  25.484  0.00  0.00    +0.123 HD
BRANCH   7  11
ATOM      4  O   UNL     1      -3.619  -3.275  24.860  0.00  0.00    -0.276 OA
ATOM      8  N   UNL     1      -3.689  -1.052  24.190  0.00  0.00    -0.302 N 
ATOM     11  C   UNL     1      -4.965   1.503  24.666  0.00  0.00    +0.057 C 
ATOM     15  C   UNL     1      -3.438   1.367  24.603  0.00  0.00    +0.037 C 
ATOM     16  C   UNL     1      -5.602   0.187  25.131  0.00  0.00    +0.037 C 
ATOM     17  C   UNL     1      -3.029   0.178  23.733  0.00  0.00    +0.109 C 
ATOM     18  C   UNL     1      -5.150  -0.979  24.251  0.00  0.00    +0.109 C 
ATOM     20  C   UNL     1      -3.040  -2.243  24.513  0.00  0.00    +0.212 C 
ATOM     21  C   UNL     1      -1.534  -2.237  24.429  0.00  0.00    +0.109 C 
ENDBRANCH   7  11
ENDBRANCH  10   7
BRANCH  13  19
ATOM     19  C   UNL     1      -0.941   4.608  25.037  0.00  0.00    +0.140 C 
BRANCH  19   9
ATOM      9  N   UNL     1      -0.629   3.329  24.371  0.00  0.00    -0.187 NA
ATOM     30  H   UNL     1      -1.221   3.088  23.568  0.00  0.00    +0.148 HD
BRANCH   9   1
ATOM      1  S   UNL     1       0.095   2.066  25.252  0.00  0.00    +0.058 S 
ATOM      5  O   UNL     1      -0.933   1.160  25.728  0.00  0.00    -0.153 OA
ATOM      6  O   UNL     1       1.057   2.629  26.180  0.00  0.00    -0.153 OA
BRANCH   1  22
ATOM     22  C   UNL     1       1.019   1.232  23.996  0.00  0.00    +0.105 A 
ATOM     23  C   UNL     1       0.419   0.221  23.244  0.00  0.00    +0.028 A 
ATOM     24  C   UNL     1       2.348   1.581  23.761  0.00  0.00    +0.028 A 
ATOM     25  C   UNL     1       1.150  -0.439  22.256  0.00  0.00    +0.002 A 
ATOM     26  C   UNL     1       3.078   0.920  22.772  0.00  0.00    +0.002 A 
ATOM     27  C   UNL     1       2.479  -0.090  22.020  0.00  0.00    +0.000 A 
ENDBRANCH   1  22
ENDBRANCH   9   1
ENDBRANCH  19   9
ENDBRANCH  13  19
TORSDOF 7
ENDMDL
