MODEL 1
REMARK VINA RESULT:      -5.9      0.000      0.000
REMARK  Name = 75536792
REMARK  6 active torsions:
REMARK  status: ('A' for Active; 'I' for Inactive)
REMARK    1  A    between atoms: O_4  and  C_11
REMARK    2  A    between atoms: N_6  and  C_9
REMARK    3  A    between atoms: N_6  and  C_10
REMARK    4  A    between atoms: N_7  and  C_19
REMARK    5  A    between atoms: C_14  and  C_19
REMARK    6  A    between atoms: C_20  and  C_21
REMARK                            x       y       z     vdW  Elec       q    Type
REMARK                         _______ _______ _______ _____ _____    ______ ____
ROOT
ATOM      3  O   UNL     1      -1.500  -2.252  23.631  0.00  0.00    -0.371 OA
ATOM     10  C   UNL     1       0.023  -0.735  24.642  0.00  0.00    +0.111 C 
ATOM     11  C   UNL     1      -1.232  -0.818  25.493  0.00  0.00    +0.164 C 
ATOM     14  C   UNL     1      -1.812  -2.148  25.030  0.00  0.00    +0.165 C 
ATOM     15  C   UNL     1      -0.474  -1.294  23.319  0.00  0.00    +0.181 C 
ENDROOT
BRANCH  11   4
ATOM      4  O   UNL     1      -0.953  -0.818  26.880  0.00  0.00    -0.388 OA
ATOM     27  H   UNL     1       0.009  -0.730  26.997  0.00  0.00    +0.210 HD
ENDBRANCH  11   4
BRANCH  10   6
ATOM      6  N   UNL     1       0.559   0.612  24.524  0.00  0.00    -0.306 NA
ATOM     26  H   UNL     1       0.966   0.749  23.599  0.00  0.00    +0.123 HD
BRANCH   6   9
ATOM      1  F   UNL     1      -0.182   5.111  25.028  0.00  0.00    -0.206 F 
ATOM      2  F   UNL     1      -2.322   5.298  25.357  0.00  0.00    -0.206 F 
ATOM      9  C   UNL     1      -0.484   1.607  24.763  0.00  0.00    +0.054 C 
ATOM     12  C   UNL     1      -0.562   2.575  23.576  0.00  0.00    +0.024 C 
ATOM     13  C   UNL     1      -0.198   2.355  26.071  0.00  0.00    +0.024 C 
ATOM     16  C   UNL     1      -1.595   3.674  23.823  0.00  0.00    +0.077 C 
ATOM     17  C   UNL     1      -1.229   3.454  26.319  0.00  0.00    +0.077 C 
ATOM     18  C   UNL     1      -1.333   4.398  25.133  0.00  0.00    +0.249 C 
ENDBRANCH   6   9
ENDBRANCH  10   6
BRANCH  14  19
ATOM     19  C   UNL     1      -3.314  -2.249  25.230  0.00  0.00    +0.138 C 
BRANCH  19   7
ATOM      5  O   UNL     1      -3.966  -0.243  23.282  0.00  0.00    -0.270 OA
ATOM      7  N   UNL     1      -3.893  -0.962  25.487  0.00  0.00    -0.309 N 
ATOM     20  C   UNL     1      -4.177  -0.048  24.476  0.00  0.00    +0.244 C 
ATOM     28  H   UNL     1      -4.031  -0.710  26.460  0.00  0.00    +0.149 HD
BRANCH  20  21
ATOM      8  N   UNL     1      -5.828   3.698  25.726  0.00  0.00    -0.263 NA
ATOM     21  C   UNL     1      -4.752   1.252  24.909  0.00  0.00    +0.040 A 
ATOM     22  C   UNL     1      -4.328   2.434  24.313  0.00  0.00    +0.033 A 
ATOM     23  C   UNL     1      -5.712   1.291  25.913  0.00  0.00    +0.033 A 
ATOM     24  C   UNL     1      -4.893   3.621  24.754  0.00  0.00    +0.111 A 
ATOM     25  C   UNL     1      -6.215   2.528  26.283  0.00  0.00    +0.111 A 
ENDBRANCH  20  21
ENDBRANCH  19   7
ENDBRANCH  14  19
TORSDOF 6
ENDMDL
MODEL 2
REMARK VINA RESULT:      -5.2      3.313      6.497
REMARK  Name = 75536792
REMARK  6 active torsions:
REMARK  status: ('A' for Active; 'I' for Inactive)
REMARK    1  A    between atoms: O_4  and  C_11
REMARK    2  A    between atoms: N_6  and  C_9
REMARK    3  A    between atoms: N_6  and  C_10
REMARK    4  A    between atoms: N_7  and  C_19
REMARK    5  A    between atoms: C_14  and  C_19
REMARK    6  A    between atoms: C_20  and  C_21
REMARK                            x       y       z     vdW  Elec       q    Type
REMARK                         _______ _______ _______ _____ _____    ______ ____
ROOT
ATOM      3  O   UNL     1      -2.877   3.889  23.503  0.00  0.00    -0.371 OA
ATOM     10  C   UNL     1      -4.308   2.768  25.032  0.00  0.00    +0.111 C 
ATOM     11  C   UNL     1      -3.045   3.194  25.758  0.00  0.00    +0.164 C 
ATOM     14  C   UNL     1      -2.537   4.297  24.839  0.00  0.00    +0.165 C 
ATOM     15  C   UNL     1      -3.862   2.843  23.581  0.00  0.00    +0.181 C 
ENDROOT
BRANCH  11   4
ATOM      4  O   UNL     1      -3.301   3.672  27.065  0.00  0.00    -0.388 OA
ATOM     27  H   UNL     1      -3.716   2.956  27.576  0.00  0.00    +0.210 HD
ENDBRANCH  11   4
BRANCH  10   6
ATOM      6  N   UNL     1      -4.782   1.447  25.412  0.00  0.00    -0.306 NA
ATOM     26  H   UNL     1      -5.761   1.336  25.152  0.00  0.00    +0.123 HD
BRANCH   6   9
ATOM      1  F   UNL     1      -3.591  -2.974  25.709  0.00  0.00    -0.206 F 
ATOM      2  F   UNL     1      -2.237  -3.307  24.041  0.00  0.00    -0.206 F 
ATOM      9  C   UNL     1      -3.975   0.406  24.777  0.00  0.00    +0.054 C 
ATOM     12  C   UNL     1      -4.882  -0.734  24.296  0.00  0.00    +0.024 C 
ATOM     13  C   UNL     1      -2.918  -0.105  25.763  0.00  0.00    +0.024 C 
ATOM     16  C   UNL     1      -4.066  -1.874  23.689  0.00  0.00    +0.077 C 
ATOM     17  C   UNL     1      -2.101  -1.245  25.158  0.00  0.00    +0.077 C 
ATOM     18  C   UNL     1      -2.996  -2.364  24.651  0.00  0.00    +0.249 C 
ENDBRANCH   6   9
ENDBRANCH  10   6
BRANCH  14  19
ATOM     19  C   UNL     1      -1.038   4.520  24.942  0.00  0.00    +0.138 C 
BRANCH  19   7
ATOM      5  O   UNL     1       0.006   2.043  25.950  0.00  0.00    -0.270 OA
ATOM      7  N   UNL     1      -0.312   3.531  24.199  0.00  0.00    -0.309 N 
ATOM     20  C   UNL     1       0.158   2.353  24.772  0.00  0.00    +0.244 C 
ATOM     28  H   UNL     1      -0.093   3.757  23.235  0.00  0.00    +0.149 HD
BRANCH  20  21
ATOM      8  N   UNL     1       2.339  -0.271  22.187  0.00  0.00    -0.263 NA
ATOM     21  C   UNL     1       0.915   1.443  23.873  0.00  0.00    +0.040 A 
ATOM     22  C   UNL     1       0.286   0.341  23.306  0.00  0.00    +0.033 A 
ATOM     23  C   UNL     1       2.255   1.689  23.599  0.00  0.00    +0.033 A 
ATOM     24  C   UNL     1       1.036  -0.478  22.477  0.00  0.00    +0.111 A 
ATOM     25  C   UNL     1       2.918   0.810  22.757  0.00  0.00    +0.111 A 
ENDBRANCH  20  21
ENDBRANCH  19   7
ENDBRANCH  14  19
TORSDOF 6
ENDMDL
MODEL 3
REMARK VINA RESULT:      -5.0      2.449      4.891
REMARK  Name = 75536792
REMARK  6 active torsions:
REMARK  status: ('A' for Active; 'I' for Inactive)
REMARK    1  A    between atoms: O_4  and  C_11
REMARK    2  A    between atoms: N_6  and  C_9
REMARK    3  A    between atoms: N_6  and  C_10
REMARK    4  A    between atoms: N_7  and  C_19
REMARK    5  A    between atoms: C_14  and  C_19
REMARK    6  A    between atoms: C_20  and  C_21
REMARK                            x       y       z     vdW  Elec       q    Type
REMARK                         _______ _______ _______ _____ _____    ______ ____
ROOT
ATOM      3  O   UNL     1      -0.133   2.906  23.318  0.00  0.00    -0.371 OA
ATOM     10  C   UNL     1      -0.846   3.728  25.431  0.00  0.00    +0.111 C 
ATOM     11  C   UNL     1      -0.271   2.334  25.610  0.00  0.00    +0.164 C 
ATOM     14  C   UNL     1       0.577   2.203  24.352  0.00  0.00    +0.165 C 
ATOM     15  C   UNL     1      -1.121   3.750  23.936  0.00  0.00    +0.181 C 
ENDROOT
BRANCH  11   4
ATOM      4  O   UNL     1       0.506   2.211  26.786  0.00  0.00    -0.388 OA
ATOM     27  H   UNL     1       1.301   2.762  26.685  0.00  0.00    +0.210 HD
ENDBRANCH  11   4
BRANCH  10   6
ATOM      6  N   UNL     1      -2.035   3.976  26.230  0.00  0.00    -0.306 NA
ATOM     26  H   UNL     1      -2.072   4.955  26.512  0.00  0.00    +0.123 HD
BRANCH   6   9
ATOM      1  F   UNL     1      -5.970   1.633  26.502  0.00  0.00    -0.206 F 
ATOM      2  F   UNL     1      -6.940   1.934  24.580  0.00  0.00    -0.206 F 
ATOM      9  C   UNL     1      -3.242   3.624  25.485  0.00  0.00    +0.054 C 
ATOM     12  C   UNL     1      -4.480   4.159  26.216  0.00  0.00    +0.024 C 
ATOM     13  C   UNL     1      -3.317   2.103  25.307  0.00  0.00    +0.024 C 
ATOM     16  C   UNL     1      -5.766   3.748  25.503  0.00  0.00    +0.077 C 
ATOM     17  C   UNL     1      -4.603   1.690  24.593  0.00  0.00    +0.077 C 
ATOM     18  C   UNL     1      -5.832   2.244  25.296  0.00  0.00    +0.249 C 
ENDBRANCH   6   9
ENDBRANCH  10   6
BRANCH  14  19
ATOM     19  C   UNL     1       0.805   0.762  23.929  0.00  0.00    +0.138 C 
BRANCH  19   7
ATOM      5  O   UNL     1      -0.075  -1.417  25.579  0.00  0.00    -0.270 OA
ATOM      7  N   UNL     1      -0.436   0.050  23.819  0.00  0.00    -0.309 N 
ATOM     20  C   UNL     1      -0.781  -0.998  24.666  0.00  0.00    +0.244 C 
ATOM     28  H   UNL     1      -1.037   0.302  23.041  0.00  0.00    +0.149 HD
BRANCH  20  21
ATOM      8  N   UNL     1      -4.555  -2.874  23.913  0.00  0.00    -0.263 NA
ATOM     21  C   UNL     1      -2.091  -1.650  24.403  0.00  0.00    +0.040 A 
ATOM     22  C   UNL     1      -3.153  -0.905  23.903  0.00  0.00    +0.033 A 
ATOM     23  C   UNL     1      -2.259  -3.006  24.659  0.00  0.00    +0.033 A 
ATOM     24  C   UNL     1      -4.353  -1.559  23.678  0.00  0.00    +0.111 A 
ATOM     25  C   UNL     1      -3.500  -3.566  24.400  0.00  0.00    +0.111 A 
ENDBRANCH  20  21
ENDBRANCH  19   7
ENDBRANCH  14  19
TORSDOF 6
ENDMDL
MODEL 4
REMARK VINA RESULT:      -4.0      2.606      4.987
REMARK  Name = 75536792
REMARK  6 active torsions:
REMARK  status: ('A' for Active; 'I' for Inactive)
REMARK    1  A    between atoms: O_4  and  C_11
REMARK    2  A    between atoms: N_6  and  C_9
REMARK    3  A    between atoms: N_6  and  C_10
REMARK    4  A    between atoms: N_7  and  C_19
REMARK    5  A    between atoms: C_14  and  C_19
REMARK    6  A    between atoms: C_20  and  C_21
REMARK                            x       y       z     vdW  Elec       q    Type
REMARK                         _______ _______ _______ _____ _____    ______ ____
ROOT
ATOM      3  O   UNL     1      -4.502   3.805  26.947  0.00  0.00    -0.371 OA
ATOM     10  C   UNL     1      -2.725   4.426  25.497  0.00  0.00    +0.111 C 
ATOM     11  C   UNL     1      -3.796   3.714  24.691  0.00  0.00    +0.164 C 
ATOM     14  C   UNL     1      -5.005   3.876  25.602  0.00  0.00    +0.165 C 
ATOM     15  C   UNL     1      -3.076   3.994  26.911  0.00  0.00    +0.181 C 
ENDROOT
BRANCH  11   4
ATOM      4  O   UNL     1      -4.008   4.304  23.422  0.00  0.00    -0.388 OA
ATOM     27  H   UNL     1      -4.139   3.593  22.773  0.00  0.00    +0.210 HD
ENDBRANCH  11   4
BRANCH  10   6
ATOM      6  N   UNL     1      -1.370   4.066  25.114  0.00  0.00    -0.306 NA
ATOM     26  H   UNL     1      -0.721   4.280  25.871  0.00  0.00    +0.123 HD
BRANCH   6   9
ATOM      1  F   UNL     1       1.418   0.853  23.396  0.00  0.00    -0.206 F 
ATOM      2  F   UNL     1       0.248  -0.979  23.415  0.00  0.00    -0.206 F 
ATOM      9  C   UNL     1      -1.289   2.647  24.772  0.00  0.00    +0.054 C 
ATOM     12  C   UNL     1      -0.185   1.975  25.599  0.00  0.00    +0.024 C 
ATOM     13  C   UNL     1      -1.029   2.489  23.269  0.00  0.00    +0.024 C 
ATOM     16  C   UNL     1      -0.024   0.504  25.217  0.00  0.00    +0.077 C 
ATOM     17  C   UNL     1      -0.867   1.020  22.885  0.00  0.00    +0.077 C 
ATOM     18  C   UNL     1       0.203   0.340  23.723  0.00  0.00    +0.249 C 
ENDBRANCH   6   9
ENDBRANCH  10   6
BRANCH  14  19
ATOM     19  C   UNL     1      -6.062   2.805  25.392  0.00  0.00    +0.138 C 
BRANCH  19   7
ATOM      5  O   UNL     1      -4.339   1.545  23.471  0.00  0.00    -0.270 OA
ATOM      7  N   UNL     1      -5.495   1.490  25.482  0.00  0.00    -0.309 N 
ATOM     20  C   UNL     1      -4.666   0.957  24.499  0.00  0.00    +0.244 C 
ATOM     28  H   UNL     1      -5.780   0.925  26.275  0.00  0.00    +0.149 HD
BRANCH  20  21
ATOM      8  N   UNL     1      -3.267  -3.033  25.160  0.00  0.00    -0.263 NA
ATOM     21  C   UNL     1      -4.182  -0.428  24.729  0.00  0.00    +0.040 A 
ATOM     22  C   UNL     1      -3.513  -0.747  25.905  0.00  0.00    +0.033 A 
ATOM     23  C   UNL     1      -4.394  -1.410  23.768  0.00  0.00    +0.033 A 
ATOM     24  C   UNL     1      -3.079  -2.053  26.071  0.00  0.00    +0.111 A 
ATOM     25  C   UNL     1      -3.921  -2.687  24.029  0.00  0.00    +0.111 A 
ENDBRANCH  20  21
ENDBRANCH  19   7
ENDBRANCH  14  19
TORSDOF 6
ENDMDL
MODEL 5
REMARK VINA RESULT:      -3.6      3.039      3.972
REMARK  Name = 75536792
REMARK  6 active torsions:
REMARK  status: ('A' for Active; 'I' for Inactive)
REMARK    1  A    between atoms: O_4  and  C_11
REMARK    2  A    between atoms: N_6  and  C_9
REMARK    3  A    between atoms: N_6  and  C_10
REMARK    4  A    between atoms: N_7  and  C_19
REMARK    5  A    between atoms: C_14  and  C_19
REMARK    6  A    between atoms: C_20  and  C_21
REMARK                            x       y       z     vdW  Elec       q    Type
REMARK                         _______ _______ _______ _____ _____    ______ ____
ROOT
ATOM      3  O   UNL     1      -1.527  -2.662  23.889  0.00  0.00    -0.371 OA
ATOM     10  C   UNL     1       0.140  -0.987  24.135  0.00  0.00    +0.111 C 
ATOM     11  C   UNL     1      -1.008  -0.687  25.082  0.00  0.00    +0.164 C 
ATOM     14  C   UNL     1      -1.670  -2.055  25.183  0.00  0.00    +0.165 C 
ATOM     15  C   UNL     1      -0.522  -1.941  23.154  0.00  0.00    +0.181 C 
ENDROOT
BRANCH  11   4
ATOM      4  O   UNL     1      -0.568  -0.219  26.343  0.00  0.00    -0.388 OA
ATOM     27  H   UNL     1      -1.345  -0.112  26.917  0.00  0.00    +0.210 HD
ENDBRANCH  11   4
BRANCH  10   6
ATOM      6  N   UNL     1       0.691   0.195  23.492  0.00  0.00    -0.306 NA
ATOM     26  H   UNL     1       0.699   0.979  24.144  0.00  0.00    +0.123 HD
BRANCH   6   9
ATOM      1  F   UNL     1       5.126   0.536  24.613  0.00  0.00    -0.206 F 
ATOM      2  F   UNL     1       6.205  -0.252  22.898  0.00  0.00    -0.206 F 
ATOM      9  C   UNL     1       2.045  -0.064  23.006  0.00  0.00    +0.054 C 
ATOM     12  C   UNL     1       2.747  -1.064  23.933  0.00  0.00    +0.024 C 
ATOM     13  C   UNL     1       2.825   1.253  22.917  0.00  0.00    +0.024 C 
ATOM     16  C   UNL     1       4.191  -1.306  23.496  0.00  0.00    +0.077 C 
ATOM     17  C   UNL     1       4.269   1.013  22.480  0.00  0.00    +0.077 C 
ATOM     18  C   UNL     1       4.961  -0.001  23.376  0.00  0.00    +0.249 C 
ENDBRANCH   6   9
ENDBRANCH  10   6
BRANCH  14  19
ATOM     19  C   UNL     1      -3.140  -1.983  25.558  0.00  0.00    +0.138 C 
BRANCH  19   7
ATOM      5  O   UNL     1      -4.027  -0.311  23.398  0.00  0.00    -0.270 OA
ATOM      7  N   UNL     1      -3.587  -0.624  25.655  0.00  0.00    -0.309 N 
ATOM     20  C   UNL     1      -4.002   0.114  24.550  0.00  0.00    +0.244 C 
ATOM     28  H   UNL     1      -3.527  -0.189  26.569  0.00  0.00    +0.149 HD
BRANCH  20  21
ATOM      8  N   UNL     1      -5.177   4.159  25.315  0.00  0.00    -0.263 NA
ATOM     21  C   UNL     1      -4.411   1.518  24.814  0.00  0.00    +0.040 A 
ATOM     22  C   UNL     1      -3.621   2.571  24.366  0.00  0.00    +0.033 A 
ATOM     23  C   UNL     1      -5.582   1.784  25.513  0.00  0.00    +0.033 A 
ATOM     24  C   UNL     1      -4.045   3.861  24.640  0.00  0.00    +0.111 A 
ATOM     25  C   UNL     1      -5.919   3.110  25.736  0.00  0.00    +0.111 A 
ENDBRANCH  20  21
ENDBRANCH  19   7
ENDBRANCH  14  19
TORSDOF 6
ENDMDL
MODEL 6
REMARK VINA RESULT:      -3.5      3.130      4.899
REMARK  Name = 75536792
REMARK  6 active torsions:
REMARK  status: ('A' for Active; 'I' for Inactive)
REMARK    1  A    between atoms: O_4  and  C_11
REMARK    2  A    between atoms: N_6  and  C_9
REMARK    3  A    between atoms: N_6  and  C_10
REMARK    4  A    between atoms: N_7  and  C_19
REMARK    5  A    between atoms: C_14  and  C_19
REMARK    6  A    between atoms: C_20  and  C_21
REMARK                            x       y       z     vdW  Elec       q    Type
REMARK                         _______ _______ _______ _____ _____    ______ ____
ROOT
ATOM      3  O   UNL     1       0.024   3.677  25.657  0.00  0.00    -0.371 OA
ATOM     10  C   UNL     1       0.226   1.374  25.110  0.00  0.00    +0.111 C 
ATOM     11  C   UNL     1      -0.818   2.007  24.209  0.00  0.00    +0.164 C 
ATOM     14  C   UNL     1      -0.440   3.479  24.311  0.00  0.00    +0.165 C 
ATOM     15  C   UNL     1       0.307   2.391  26.237  0.00  0.00    +0.181 C 
ENDROOT
BRANCH  11   4
ATOM      4  O   UNL     1      -0.748   1.536  22.876  0.00  0.00    -0.388 OA
ATOM     27  H   UNL     1       0.131   1.143  22.738  0.00  0.00    +0.210 HD
ENDBRANCH  11   4
BRANCH  10   6
ATOM      6  N   UNL     1      -0.133   0.043  25.573  0.00  0.00    -0.306 NA
ATOM     26  H   UNL     1      -0.381   0.069  26.561  0.00  0.00    +0.123 HD
BRANCH   6   9
ATOM      1  F   UNL     1      -3.643  -2.908  25.724  0.00  0.00    -0.206 F 
ATOM      2  F   UNL     1      -4.595  -2.752  23.776  0.00  0.00    -0.206 F 
ATOM      9  C   UNL     1      -1.246  -0.494  24.792  0.00  0.00    +0.054 C 
ATOM     12  C   UNL     1      -2.574  -0.171  25.490  0.00  0.00    +0.024 C 
ATOM     13  C   UNL     1      -1.069  -2.006  24.607  0.00  0.00    +0.024 C 
ATOM     16  C   UNL     1      -3.757  -0.779  24.738  0.00  0.00    +0.077 C 
ATOM     17  C   UNL     1      -2.251  -2.615  23.856  0.00  0.00    +0.077 C 
ATOM     18  C   UNL     1      -3.572  -2.273  24.525  0.00  0.00    +0.249 C 
ENDBRANCH   6   9
ENDBRANCH  10   6
BRANCH  14  19
ATOM     19  C   UNL     1      -1.600   4.417  24.024  0.00  0.00    +0.138 C 
BRANCH  19   7
ATOM      5  O   UNL     1      -2.992   4.096  26.514  0.00  0.00    -0.270 OA
ATOM      7  N   UNL     1      -2.860   3.763  24.223  0.00  0.00    -0.309 N 
ATOM     20  C   UNL     1      -3.465   3.654  25.471  0.00  0.00    +0.244 C 
ATOM     28  H   UNL     1      -3.274   3.315  23.411  0.00  0.00    +0.149 HD
BRANCH  20  21
ATOM      8  N   UNL     1      -7.189   1.546  25.593  0.00  0.00    -0.263 NA
ATOM     21  C   UNL     1      -4.758   2.923  25.513  0.00  0.00    +0.040 A 
ATOM     22  C   UNL     1      -5.456   2.807  26.710  0.00  0.00    +0.033 A 
ATOM     23  C   UNL     1      -5.274   2.351  24.356  0.00  0.00    +0.033 A 
ATOM     24  C   UNL     1      -6.655   2.115  26.697  0.00  0.00    +0.111 A 
ATOM     25  C   UNL     1      -6.483   1.678  24.448  0.00  0.00    +0.111 A 
ENDBRANCH  20  21
ENDBRANCH  19   7
ENDBRANCH  14  19
TORSDOF 6
ENDMDL
MODEL 7
REMARK VINA RESULT:      -2.2      2.879      6.244
REMARK  Name = 75536792
REMARK  6 active torsions:
REMARK  status: ('A' for Active; 'I' for Inactive)
REMARK    1  A    between atoms: O_4  and  C_11
REMARK    2  A    between atoms: N_6  and  C_9
REMARK    3  A    between atoms: N_6  and  C_10
REMARK    4  A    between atoms: N_7  and  C_19
REMARK    5  A    between atoms: C_14  and  C_19
REMARK    6  A    between atoms: C_20  and  C_21
REMARK                            x       y       z     vdW  Elec       q    Type
REMARK                         _______ _______ _______ _____ _____    ______ ____
ROOT
ATOM      3  O   UNL     1      -1.130   0.495  25.234  0.00  0.00    -0.371 OA
ATOM     10  C   UNL     1      -3.320  -0.367  25.561  0.00  0.00    +0.111 C 
ATOM     11  C   UNL     1      -2.707  -1.024  24.338  0.00  0.00    +0.164 C 
ATOM     14  C   UNL     1      -1.224  -0.787  24.590  0.00  0.00    +0.165 C 
ATOM     15  C   UNL     1      -2.434   0.858  25.720  0.00  0.00    +0.181 C 
ENDROOT
BRANCH  11   4
ATOM      4  O   UNL     1      -3.014  -2.402  24.247  0.00  0.00    -0.388 OA
ATOM     27  H   UNL     1      -2.361  -2.822  23.661  0.00  0.00    +0.210 HD
ENDBRANCH  11   4
BRANCH  10   6
ATOM      6  N   UNL     1      -4.726  -0.033  25.402  0.00  0.00    -0.306 NA
ATOM     26  H   UNL     1      -5.196  -0.045  26.306  0.00  0.00    +0.123 HD
BRANCH   6   9
ATOM      1  F   UNL     1      -2.697   4.049  24.887  0.00  0.00    -0.206 F 
ATOM      2  F   UNL     1      -4.054   5.202  23.640  0.00  0.00    -0.206 F 
ATOM      9  C   UNL     1      -4.878   1.280  24.776  0.00  0.00    +0.054 C 
ATOM     12  C   UNL     1      -3.731   1.520  23.785  0.00  0.00    +0.024 C 
ATOM     13  C   UNL     1      -4.915   2.368  25.856  0.00  0.00    +0.024 C 
ATOM     16  C   UNL     1      -3.818   2.913  23.164  0.00  0.00    +0.077 C 
ATOM     17  C   UNL     1      -5.001   3.762  25.237  0.00  0.00    +0.077 C 
ATOM     18  C   UNL     1      -3.885   3.993  24.231  0.00  0.00    +0.249 C 
ENDBRANCH   6   9
ENDBRANCH  10   6
BRANCH  14  19
ATOM     19  C   UNL     1      -0.393  -0.785  23.319  0.00  0.00    +0.138 C 
BRANCH  19   7
ATOM      5  O   UNL     1       1.702  -0.225  21.437  0.00  0.00    -0.270 OA
ATOM      7  N   UNL     1       1.004  -0.636  23.610  0.00  0.00    -0.309 N 
ATOM     20  C   UNL     1       1.954  -0.363  22.631  0.00  0.00    +0.244 C 
ATOM     28  H   UNL     1       1.289  -0.805  24.569  0.00  0.00    +0.149 HD
BRANCH  20  21
ATOM      8  N   UNL     1       6.014  -0.078  23.954  0.00  0.00    -0.263 NA
ATOM     21  C   UNL     1       3.363  -0.264  23.091  0.00  0.00    +0.040 A 
ATOM     22  C   UNL     1       4.079   0.911  22.897  0.00  0.00    +0.033 A 
ATOM     23  C   UNL     1       3.970  -1.347  23.716  0.00  0.00    +0.033 A 
ATOM     24  C   UNL     1       5.390   0.952  23.343  0.00  0.00    +0.111 A 
ATOM     25  C   UNL     1       5.287  -1.205  24.125  0.00  0.00    +0.111 A 
ENDBRANCH  20  21
ENDBRANCH  19   7
ENDBRANCH  14  19
TORSDOF 6
ENDMDL
MODEL 8
REMARK VINA RESULT:      -2.1      3.615      7.156
REMARK  Name = 75536792
REMARK  6 active torsions:
REMARK  status: ('A' for Active; 'I' for Inactive)
REMARK    1  A    between atoms: O_4  and  C_11
REMARK    2  A    between atoms: N_6  and  C_9
REMARK    3  A    between atoms: N_6  and  C_10
REMARK    4  A    between atoms: N_7  and  C_19
REMARK    5  A    between atoms: C_14  and  C_19
REMARK    6  A    between atoms: C_20  and  C_21
REMARK                            x       y       z     vdW  Elec       q    Type
REMARK                         _______ _______ _______ _____ _____    ______ ____
ROOT
ATOM      3  O   UNL     1      -0.463   4.026  23.652  0.00  0.00    -0.371 OA
ATOM     10  C   UNL     1      -1.438   4.032  25.818  0.00  0.00    +0.111 C 
ATOM     11  C   UNL     1      -0.896   2.645  25.522  0.00  0.00    +0.164 C 
ATOM     14  C   UNL     1       0.106   2.951  24.417  0.00  0.00    +0.165 C 
ATOM     15  C   UNL     1      -1.519   4.627  24.422  0.00  0.00    +0.181 C 
ENDROOT
BRANCH  11   4
ATOM      4  O   UNL     1      -0.277   2.049  26.647  0.00  0.00    -0.388 OA
ATOM     27  H   UNL     1      -0.186   1.096  26.475  0.00  0.00    +0.210 HD
ENDBRANCH  11   4
BRANCH  10   6
ATOM      6  N   UNL     1      -2.718   4.024  26.507  0.00  0.00    -0.306 NA
ATOM     26  H   UNL     1      -2.949   4.961  26.832  0.00  0.00    +0.123 HD
BRANCH   6   9
ATOM      1  F   UNL     1      -6.445   1.350  26.390  0.00  0.00    -0.206 F 
ATOM      2  F   UNL     1      -7.156   1.461  24.338  0.00  0.00    -0.206 F 
ATOM      9  C   UNL     1      -3.775   3.525  25.628  0.00  0.00    +0.054 C 
ATOM     12  C   UNL     1      -5.144   3.983  26.148  0.00  0.00    +0.024 C 
ATOM     13  C   UNL     1      -3.698   1.996  25.540  0.00  0.00    +0.024 C 
ATOM     16  C   UNL     1      -6.278   3.420  25.294  0.00  0.00    +0.077 C 
ATOM     17  C   UNL     1      -4.832   1.432  24.686  0.00  0.00    +0.077 C 
ATOM     18  C   UNL     1      -6.189   1.908  25.178  0.00  0.00    +0.249 C 
ENDBRANCH   6   9
ENDBRANCH  10   6
BRANCH  14  19
ATOM     19  C   UNL     1       0.380   1.764  23.511  0.00  0.00    +0.138 C 
BRANCH  19   7
ATOM      5  O   UNL     1       1.728  -0.177  21.880  0.00  0.00    -0.270 OA
ATOM      7  N   UNL     1       1.708   1.257  23.703  0.00  0.00    -0.309 N 
ATOM     20  C   UNL     1       2.285   0.313  22.859  0.00  0.00    +0.244 C 
ATOM     28  H   UNL     1       2.199   1.571  24.533  0.00  0.00    +0.149 HD
BRANCH  20  21
ATOM      8  N   UNL     1       6.246  -0.960  23.864  0.00  0.00    -0.263 NA
ATOM     21  C   UNL     1       3.659  -0.128  23.209  0.00  0.00    +0.040 A 
ATOM     22  C   UNL     1       4.732   0.744  23.059  0.00  0.00    +0.033 A 
ATOM     23  C   UNL     1       3.879  -1.416  23.685  0.00  0.00    +0.033 A 
ATOM     24  C   UNL     1       5.994   0.283  23.397  0.00  0.00    +0.111 A 
ATOM     25  C   UNL     1       5.179  -1.780  23.996  0.00  0.00    +0.111 A 
ENDBRANCH  20  21
ENDBRANCH  19   7
ENDBRANCH  14  19
TORSDOF 6
ENDMDL
