MODEL 1
REMARK VINA RESULT:       1.5      0.000      0.000
REMARK  Name = 51136656
REMARK  8 active torsions:
REMARK  status: ('A' for Active; 'I' for Inactive)
REMARK    1  A    between atoms: O_3  and  C_18
REMARK    2  A    between atoms: O_5  and  C_26
REMARK    3  A    between atoms: O_5  and  C_32
REMARK    4  A    between atoms: C_8  and  C_13
REMARK    5  A    between atoms: C_9  and  C_14
REMARK    6  A    between atoms: C_13  and  C_15
REMARK    7  A    between atoms: C_14  and  C_18
REMARK    8  A    between atoms: C_16  and  C_22
REMARK                            x       y       z     vdW  Elec       q    Type
REMARK                         _______ _______ _______ _____ _____    ______ ____
ROOT
ATOM      2  O   UNL     1      -5.539   1.195  26.046  0.00  0.00    -0.270 OA
ATOM      6  N   UNL     1      -4.181   1.814  24.244  0.00  0.00    -0.297 N 
ATOM      8  C   UNL     1      -1.928   2.314  23.323  0.00  0.00    +0.016 C 
ATOM      9  C   UNL     1      -2.282   3.821  23.376  0.00  0.00    +0.006 C 
ATOM     10  C   UNL     1      -3.332   4.117  24.461  0.00  0.00    +0.023 C 
ATOM     11  C   UNL     1      -3.213   1.476  23.191  0.00  0.00    +0.112 C 
ATOM     12  C   UNL     1      -4.561   3.225  24.300  0.00  0.00    +0.108 C 
ATOM     16  C   UNL     1      -4.733   0.915  25.160  0.00  0.00    +0.247 C 
ENDROOT
BRANCH  16  22
ATOM      1  F   UNL     1      -4.531  -3.290  22.758  0.00  0.00    -0.205 F 
ATOM     22  C   UNL     1      -4.328  -0.493  25.074  0.00  0.00    +0.040 A 
ATOM     27  C   UNL     1      -4.628  -1.237  23.933  0.00  0.00    +0.051 A 
ATOM     28  C   UNL     1      -3.644  -1.086  26.135  0.00  0.00    +0.013 A 
ATOM     29  C   UNL     1      -4.244  -2.575  23.853  0.00  0.00    +0.124 A 
ATOM     30  C   UNL     1      -3.260  -2.426  26.055  0.00  0.00    +0.004 A 
ATOM     31  C   UNL     1      -3.560  -3.169  24.914  0.00  0.00    +0.038 A 
ENDBRANCH  16  22
BRANCH   8  13
ATOM     13  C   UNL     1      -1.095   1.827  24.516  0.00  0.00    +0.061 C 
BRANCH  13  15
ATOM      7  N   UNL     1      -1.149  -0.567  24.316  0.00  0.00    -0.287 NA
ATOM     15  C   UNL     1      -0.442   0.507  24.181  0.00  0.00    +0.044 C 
ATOM     17  C   UNL     1       0.971   0.505  23.723  0.00  0.00    -0.001 A 
ATOM     19  C   UNL     1       1.655  -0.716  23.795  0.00  0.00    -0.033 A 
ATOM     20  C   UNL     1       0.934  -1.915  24.333  0.00  0.00    +0.059 C 
ATOM     21  C   UNL     1      -0.534  -1.842  23.933  0.00  0.00    +0.146 C 
ATOM     23  C   UNL     1       1.615   1.651  23.254  0.00  0.00    +0.013 A 
ATOM     24  C   UNL     1       2.999  -0.777  23.417  0.00  0.00    +0.050 A 
ATOM     25  C   UNL     1       2.953   1.577  22.865  0.00  0.00    +0.046 A 
ATOM     26  C   UNL     1       3.644   0.368  22.949  0.00  0.00    +0.120 A 
BRANCH  26   5
ATOM      5  O   UNL     1       4.952   0.306  22.574  0.00  0.00    -0.495 OA
ATOM     32  C   UNL     1       5.875  -0.220  23.526  0.00  0.00    +0.277 C 
ENDBRANCH  26   5
ENDBRANCH  13  15
ENDBRANCH   8  13
BRANCH   9  14
ATOM     14  C   UNL     1      -1.060   4.720  23.551  0.00  0.00    +0.124 C 
BRANCH  14  18
ATOM      4  O   UNL     1      -1.444   6.305  25.362  0.00  0.00    -0.251 OA
ATOM     18  C   UNL     1      -0.963   5.260  24.951  0.00  0.00    +0.305 C 
BRANCH  18   3
ATOM      3  O   UNL     1      -0.247   4.404  25.724  0.00  0.00    -0.481 OA
ATOM     33  H   UNL     1      -0.602   4.352  26.637  0.00  0.00    +0.295 HD
ENDBRANCH  18   3
ENDBRANCH  14  18
ENDBRANCH   9  14
TORSDOF 7
ENDMDL
MODEL 2
REMARK VINA RESULT:       1.8      2.648      5.022
REMARK  Name = 51136656
REMARK  8 active torsions:
REMARK  status: ('A' for Active; 'I' for Inactive)
REMARK    1  A    between atoms: O_3  and  C_18
REMARK    2  A    between atoms: O_5  and  C_26
REMARK    3  A    between atoms: O_5  and  C_32
REMARK    4  A    between atoms: C_8  and  C_13
REMARK    5  A    between atoms: C_9  and  C_14
REMARK    6  A    between atoms: C_13  and  C_15
REMARK    7  A    between atoms: C_14  and  C_18
REMARK    8  A    between atoms: C_16  and  C_22
REMARK                            x       y       z     vdW  Elec       q    Type
REMARK                         _______ _______ _______ _____ _____    ______ ____
ROOT
ATOM      2  O   UNL     1      -5.948   2.669  23.871  0.00  0.00    -0.270 OA
ATOM      6  N   UNL     1      -4.880   0.936  25.024  0.00  0.00    -0.297 N 
ATOM      8  C   UNL     1      -3.032  -0.718  25.188  0.00  0.00    +0.016 C 
ATOM      9  C   UNL     1      -4.035  -1.822  24.766  0.00  0.00    +0.006 C 
ATOM     10  C   UNL     1      -5.187  -1.248  23.925  0.00  0.00    +0.023 C 
ATOM     11  C   UNL     1      -3.783   0.441  25.869  0.00  0.00    +0.112 C 
ATOM     12  C   UNL     1      -5.861  -0.076  24.636  0.00  0.00    +0.108 C 
ATOM     16  C   UNL     1      -5.035   2.252  24.582  0.00  0.00    +0.247 C 
ENDROOT
BRANCH  16  22
ATOM      1  F   UNL     1      -1.068   4.880  23.665  0.00  0.00    -0.205 F 
ATOM     22  C   UNL     1      -4.031   3.240  24.991  0.00  0.00    +0.040 A 
ATOM     27  C   UNL     1      -3.006   3.598  24.115  0.00  0.00    +0.051 A 
ATOM     28  C   UNL     1      -4.102   3.822  26.257  0.00  0.00    +0.013 A 
ATOM     29  C   UNL     1      -2.051   4.536  24.505  0.00  0.00    +0.124 A 
ATOM     30  C   UNL     1      -3.146   4.762  26.647  0.00  0.00    +0.004 A 
ATOM     31  C   UNL     1      -2.122   5.118  25.771  0.00  0.00    +0.038 A 
ENDBRANCH  16  22
BRANCH   8  13
ATOM     13  C   UNL     1      -2.167  -0.189  24.036  0.00  0.00    +0.061 C 
BRANCH  13  15
ATOM      7  N   UNL     1      -1.255   1.359  25.631  0.00  0.00    -0.287 NA
ATOM     15  C   UNL     1      -1.026   0.632  24.587  0.00  0.00    +0.044 C 
ATOM     17  C   UNL     1       0.293   0.571  23.905  0.00  0.00    -0.001 A 
ATOM     19  C   UNL     1       1.195   1.605  24.185  0.00  0.00    -0.033 A 
ATOM     20  C   UNL     1       0.774   2.694  25.125  0.00  0.00    +0.059 C 
ATOM     21  C   UNL     1      -0.131   2.109  26.201  0.00  0.00    +0.146 C 
ATOM     23  C   UNL     1       0.635  -0.448  23.015  0.00  0.00    +0.013 A 
ATOM     24  C   UNL     1       2.438   1.627  23.546  0.00  0.00    +0.050 A 
ATOM     25  C   UNL     1       1.884  -0.426  22.393  0.00  0.00    +0.046 A 
ATOM     26  C   UNL     1       2.782   0.611  22.655  0.00  0.00    +0.120 A 
BRANCH  26   5
ATOM      5  O   UNL     1       3.995   0.630  22.038  0.00  0.00    -0.495 OA
ATOM     32  C   UNL     1       5.122   0.220  22.811  0.00  0.00    +0.277 C 
ENDBRANCH  26   5
ENDBRANCH  13  15
ENDBRANCH   8  13
BRANCH   9  14
ATOM     14  C   UNL     1      -3.370  -2.992  24.042  0.00  0.00    +0.124 C 
BRANCH  14  18
ATOM      4  O   UNL     1      -1.356  -2.891  25.411  0.00  0.00    -0.251 OA
ATOM     18  C   UNL     1      -1.895  -3.056  24.327  0.00  0.00    +0.305 C 
BRANCH  18   3
ATOM      3  O   UNL     1      -1.219  -3.333  23.183  0.00  0.00    -0.481 OA
ATOM     33  H   UNL     1      -1.715  -3.046  22.387  0.00  0.00    +0.295 HD
ENDBRANCH  18   3
ENDBRANCH  14  18
ENDBRANCH   9  14
TORSDOF 7
ENDMDL
MODEL 3
REMARK VINA RESULT:       2.7      2.280      5.574
REMARK  Name = 51136656
REMARK  8 active torsions:
REMARK  status: ('A' for Active; 'I' for Inactive)
REMARK    1  A    between atoms: O_3  and  C_18
REMARK    2  A    between atoms: O_5  and  C_26
REMARK    3  A    between atoms: O_5  and  C_32
REMARK    4  A    between atoms: C_8  and  C_13
REMARK    5  A    between atoms: C_9  and  C_14
REMARK    6  A    between atoms: C_13  and  C_15
REMARK    7  A    between atoms: C_14  and  C_18
REMARK    8  A    between atoms: C_16  and  C_22
REMARK                            x       y       z     vdW  Elec       q    Type
REMARK                         _______ _______ _______ _____ _____    ______ ____
ROOT
ATOM      2  O   UNL     1      -3.159   5.164  25.889  0.00  0.00    -0.270 OA
ATOM      6  N   UNL     1      -2.082   3.694  24.422  0.00  0.00    -0.297 N 
ATOM      8  C   UNL     1      -0.851   1.572  24.024  0.00  0.00    +0.016 C 
ATOM      9  C   UNL     1       0.457   2.396  23.917  0.00  0.00    +0.006 C 
ATOM     10  C   UNL     1       0.365   3.709  24.712  0.00  0.00    +0.023 C 
ATOM     11  C   UNL     1      -2.057   2.449  23.641  0.00  0.00    +0.112 C 
ATOM     12  C   UNL     1      -0.873   4.510  24.316  0.00  0.00    +0.108 C 
ATOM     16  C   UNL     1      -3.137   4.126  25.229  0.00  0.00    +0.247 C 
ENDROOT
BRANCH  16  22
ATOM      1  F   UNL     1      -6.552   1.871  27.826  0.00  0.00    -0.205 F 
ATOM     22  C   UNL     1      -4.333   3.281  25.312  0.00  0.00    +0.040 A 
ATOM     27  C   UNL     1      -4.885   2.972  26.555  0.00  0.00    +0.051 A 
ATOM     28  C   UNL     1      -4.918   2.786  24.147  0.00  0.00    +0.013 A 
ATOM     29  C   UNL     1      -6.022   2.168  26.633  0.00  0.00    +0.124 A 
ATOM     30  C   UNL     1      -6.056   1.981  24.224  0.00  0.00    +0.004 A 
ATOM     31  C   UNL     1      -6.607   1.673  25.467  0.00  0.00    +0.038 A 
ENDBRANCH  16  22
BRANCH   8  13
ATOM     13  C   UNL     1      -1.074   0.933  25.401  0.00  0.00    +0.061 C 
BRANCH  13  15
ATOM      7  N   UNL     1      -0.058  -1.238  25.565  0.00  0.00    -0.287 NA
ATOM     15  C   UNL     1      -1.123  -0.570  25.267  0.00  0.00    +0.044 C 
ATOM     17  C   UNL     1      -2.381  -1.205  24.794  0.00  0.00    -0.001 A 
ATOM     19  C   UNL     1      -2.283  -2.517  24.315  0.00  0.00    -0.033 A 
ATOM     20  C   UNL     1      -0.939  -3.180  24.297  0.00  0.00    +0.059 C 
ATOM     21  C   UNL     1      -0.125  -2.701  25.492  0.00  0.00    +0.146 C 
ATOM     23  C   UNL     1      -3.610  -0.543  24.802  0.00  0.00    +0.013 A 
ATOM     24  C   UNL     1      -3.423  -3.157  23.819  0.00  0.00    +0.050 A 
ATOM     25  C   UNL     1      -4.745  -1.194  24.320  0.00  0.00    +0.046 A 
ATOM     26  C   UNL     1      -4.652  -2.497  23.826  0.00  0.00    +0.120 A 
BRANCH  26   5
ATOM      5  O   UNL     1      -5.763  -3.123  23.349  0.00  0.00    -0.495 OA
ATOM     32  C   UNL     1      -5.572  -4.078  22.307  0.00  0.00    +0.277 C 
ENDBRANCH  26   5
ENDBRANCH  13  15
ENDBRANCH   8  13
BRANCH   9  14
ATOM     14  C   UNL     1       1.700   1.605  24.324  0.00  0.00    +0.124 C 
BRANCH  14  18
ATOM      4  O   UNL     1       1.688  -0.082  22.565  0.00  0.00    -0.251 OA
ATOM     18  C   UNL     1       2.256   0.812  23.173  0.00  0.00    +0.305 C 
BRANCH  18   3
ATOM      3  O   UNL     1       3.514   1.237  22.890  0.00  0.00    -0.481 OA
ATOM     33  H   UNL     1       3.955   1.623  23.676  0.00  0.00    +0.295 HD
ENDBRANCH  18   3
ENDBRANCH  14  18
ENDBRANCH   9  14
TORSDOF 7
ENDMDL
MODEL 4
REMARK VINA RESULT:       3.4      2.105      6.248
REMARK  Name = 51136656
REMARK  8 active torsions:
REMARK  status: ('A' for Active; 'I' for Inactive)
REMARK    1  A    between atoms: O_3  and  C_18
REMARK    2  A    between atoms: O_5  and  C_26
REMARK    3  A    between atoms: O_5  and  C_32
REMARK    4  A    between atoms: C_8  and  C_13
REMARK    5  A    between atoms: C_9  and  C_14
REMARK    6  A    between atoms: C_13  and  C_15
REMARK    7  A    between atoms: C_14  and  C_18
REMARK    8  A    between atoms: C_16  and  C_22
REMARK                            x       y       z     vdW  Elec       q    Type
REMARK                         _______ _______ _______ _____ _____    ______ ____
ROOT
ATOM      2  O   UNL     1      -1.601  -3.032  23.428  0.00  0.00    -0.270 OA
ATOM      6  N   UNL     1      -0.263  -1.378  24.400  0.00  0.00    -0.297 N 
ATOM      8  C   UNL     1       0.563   0.965  24.449  0.00  0.00    +0.016 C 
ATOM      9  C   UNL     1       1.893   0.469  23.829  0.00  0.00    +0.006 C 
ATOM     10  C   UNL     1       1.690  -0.815  23.007  0.00  0.00    +0.023 C 
ATOM     11  C   UNL     1      -0.110  -0.177  25.233  0.00  0.00    +0.112 C 
ATOM     12  C   UNL     1       0.981  -1.890  23.827  0.00  0.00    +0.108 C 
ATOM     16  C   UNL     1      -1.468  -2.030  24.128  0.00  0.00    +0.247 C 
ENDROOT
BRANCH  16  22
ATOM      1  F   UNL     1      -6.115  -0.704  23.759  0.00  0.00    -0.205 F 
ATOM     22  C   UNL     1      -2.695  -1.487  24.720  0.00  0.00    +0.040 A 
ATOM     27  C   UNL     1      -3.845  -1.352  23.942  0.00  0.00    +0.051 A 
ATOM     28  C   UNL     1      -2.712  -1.107  26.062  0.00  0.00    +0.013 A 
ATOM     29  C   UNL     1      -5.011  -0.834  24.505  0.00  0.00    +0.124 A 
ATOM     30  C   UNL     1      -3.880  -0.589  26.626  0.00  0.00    +0.004 A 
ATOM     31  C   UNL     1      -5.028  -0.454  25.847  0.00  0.00    +0.038 A 
ENDBRANCH  16  22
BRANCH   8  13
ATOM     13  C   UNL     1      -0.417   1.559  23.428  0.00  0.00    +0.061 C 
BRANCH  13  15
ATOM      7  N   UNL     1      -0.079   3.883  23.934  0.00  0.00    -0.287 NA
ATOM     15  C   UNL     1      -0.915   2.898  23.915  0.00  0.00    +0.044 C 
ATOM     17  C   UNL     1      -2.330   3.018  24.353  0.00  0.00    -0.001 A 
ATOM     19  C   UNL     1      -2.653   4.127  25.144  0.00  0.00    -0.033 A 
ATOM     20  C   UNL     1      -1.567   5.097  25.505  0.00  0.00    +0.059 C 
ATOM     21  C   UNL     1      -0.579   5.197  24.351  0.00  0.00    +0.146 C 
ATOM     23  C   UNL     1      -3.306   2.078  24.018  0.00  0.00    +0.013 A 
ATOM     24  C   UNL     1      -3.958   4.278  25.622  0.00  0.00    +0.050 A 
ATOM     25  C   UNL     1      -4.610   2.244  24.486  0.00  0.00    +0.046 A 
ATOM     26  C   UNL     1      -4.935   3.339  25.289  0.00  0.00    +0.120 A 
BRANCH  26   5
ATOM      5  O   UNL     1      -6.207   3.490  25.749  0.00  0.00    -0.495 OA
ATOM     32  C   UNL     1      -6.776   2.390  26.457  0.00  0.00    +0.277 C 
ENDBRANCH  26   5
ENDBRANCH  13  15
ENDBRANCH   8  13
BRANCH   9  14
ATOM     14  C   UNL     1       2.603   1.535  22.996  0.00  0.00    +0.124 C 
BRANCH  14  18
ATOM      4  O   UNL     1       4.954   0.937  23.235  0.00  0.00    -0.251 OA
ATOM     18  C   UNL     1       3.959   1.072  22.539  0.00  0.00    +0.305 C 
BRANCH  18   3
ATOM      3  O   UNL     1       3.930   0.813  21.207  0.00  0.00    -0.481 OA
ATOM     33  H   UNL     1       3.223   1.319  20.752  0.00  0.00    +0.295 HD
ENDBRANCH  18   3
ENDBRANCH  14  18
ENDBRANCH   9  14
TORSDOF 7
ENDMDL
MODEL 5
REMARK VINA RESULT:       3.5      3.217      7.448
REMARK  Name = 51136656
REMARK  8 active torsions:
REMARK  status: ('A' for Active; 'I' for Inactive)
REMARK    1  A    between atoms: O_3  and  C_18
REMARK    2  A    between atoms: O_5  and  C_26
REMARK    3  A    between atoms: O_5  and  C_32
REMARK    4  A    between atoms: C_8  and  C_13
REMARK    5  A    between atoms: C_9  and  C_14
REMARK    6  A    between atoms: C_13  and  C_15
REMARK    7  A    between atoms: C_14  and  C_18
REMARK    8  A    between atoms: C_16  and  C_22
REMARK                            x       y       z     vdW  Elec       q    Type
REMARK                         _______ _______ _______ _____ _____    ______ ____
ROOT
ATOM      2  O   UNL     1       0.001   1.036  27.483  0.00  0.00    -0.270 OA
ATOM      6  N   UNL     1      -0.166   0.041  25.372  0.00  0.00    -0.297 N 
ATOM      8  C   UNL     1      -1.563  -0.869  23.529  0.00  0.00    +0.016 C 
ATOM      9  C   UNL     1      -1.192  -2.296  24.004  0.00  0.00    +0.006 C 
ATOM     10  C   UNL     1      -0.851  -2.322  25.503  0.00  0.00    +0.023 C 
ATOM     11  C   UNL     1      -0.457   0.124  23.934  0.00  0.00    +0.112 C 
ATOM     12  C   UNL     1       0.218  -1.288  25.846  0.00  0.00    +0.108 C 
ATOM     16  C   UNL     1      -0.237   1.102  26.278  0.00  0.00    +0.247 C 
ENDROOT
BRANCH  16  22
ATOM      1  F   UNL     1      -2.973   5.095  26.524  0.00  0.00    -0.205 F 
ATOM     22  C   UNL     1      -0.626   2.421  25.767  0.00  0.00    +0.040 A 
ATOM     27  C   UNL     1      -1.635   3.145  26.402  0.00  0.00    +0.051 A 
ATOM     28  C   UNL     1       0.012   2.949  24.645  0.00  0.00    +0.013 A 
ATOM     29  C   UNL     1      -2.005   4.399  25.915  0.00  0.00    +0.124 A 
ATOM     30  C   UNL     1      -0.359   4.203  24.157  0.00  0.00    +0.004 A 
ATOM     31  C   UNL     1      -1.367   4.927  24.793  0.00  0.00    +0.038 A 
ENDBRANCH  16  22
BRANCH   8  13
ATOM     13  C   UNL     1      -2.927  -0.379  24.031  0.00  0.00    +0.061 C 
BRANCH  13  15
ATOM      7  N   UNL     1      -2.752   1.198  22.228  0.00  0.00    -0.287 NA
ATOM     15  C   UNL     1      -3.268   0.942  23.386  0.00  0.00    +0.044 C 
ATOM     17  C   UNL     1      -4.165   1.881  24.107  0.00  0.00    -0.001 A 
ATOM     19  C   UNL     1      -4.151   3.216  23.686  0.00  0.00    -0.033 A 
ATOM     20  C   UNL     1      -3.237   3.608  22.564  0.00  0.00    +0.059 C 
ATOM     21  C   UNL     1      -3.131   2.455  21.575  0.00  0.00    +0.146 C 
ATOM     23  C   UNL     1      -4.982   1.480  25.166  0.00  0.00    +0.013 A 
ATOM     24  C   UNL     1      -4.944   4.157  24.349  0.00  0.00    +0.050 A 
ATOM     25  C   UNL     1      -5.781   2.423  25.813  0.00  0.00    +0.046 A 
ATOM     26  C   UNL     1      -5.760   3.759  25.408  0.00  0.00    +0.120 A 
BRANCH  26   5
ATOM      5  O   UNL     1      -6.536   4.675  26.050  0.00  0.00    -0.495 OA
ATOM     32  C   UNL     1      -6.569   5.993  25.505  0.00  0.00    +0.277 C 
ENDBRANCH  26   5
ENDBRANCH  13  15
ENDBRANCH   8  13
BRANCH   9  14
ATOM     14  C   UNL     1      -2.263  -3.335  23.677  0.00  0.00    +0.124 C 
BRANCH  14  18
ATOM      4  O   UNL     1      -3.630  -3.015  25.670  0.00  0.00    -0.251 OA
ATOM     18  C   UNL     1      -3.528  -3.093  24.455  0.00  0.00    +0.305 C 
BRANCH  18   3
ATOM      3  O   UNL     1      -4.575  -2.968  23.600  0.00  0.00    -0.481 OA
ATOM     33  H   UNL     1      -4.344  -3.265  22.694  0.00  0.00    +0.295 HD
ENDBRANCH  18   3
ENDBRANCH  14  18
ENDBRANCH   9  14
TORSDOF 7
ENDMDL
MODEL 6
REMARK VINA RESULT:       3.9      2.240      6.274
REMARK  Name = 51136656
REMARK  8 active torsions:
REMARK  status: ('A' for Active; 'I' for Inactive)
REMARK    1  A    between atoms: O_3  and  C_18
REMARK    2  A    between atoms: O_5  and  C_26
REMARK    3  A    between atoms: O_5  and  C_32
REMARK    4  A    between atoms: C_8  and  C_13
REMARK    5  A    between atoms: C_9  and  C_14
REMARK    6  A    between atoms: C_13  and  C_15
REMARK    7  A    between atoms: C_14  and  C_18
REMARK    8  A    between atoms: C_16  and  C_22
REMARK                            x       y       z     vdW  Elec       q    Type
REMARK                         _______ _______ _______ _____ _____    ______ ____
ROOT
ATOM      2  O   UNL     1      -3.934  -2.580  23.581  0.00  0.00    -0.270 OA
ATOM      6  N   UNL     1      -1.992  -1.537  24.365  0.00  0.00    -0.297 N 
ATOM      8  C   UNL     1      -0.349   0.323  24.237  0.00  0.00    +0.016 C 
ATOM      9  C   UNL     1       0.636  -0.647  23.537  0.00  0.00    +0.006 C 
ATOM     10  C   UNL     1      -0.107  -1.771  22.796  0.00  0.00    +0.023 C 
ATOM     11  C   UNL     1      -1.326  -0.471  25.125  0.00  0.00    +0.112 C 
ATOM     12  C   UNL     1      -1.088  -2.488  23.719  0.00  0.00    +0.108 C 
ATOM     16  C   UNL     1      -3.373  -1.692  24.221  0.00  0.00    +0.247 C 
ENDROOT
BRANCH  16  22
ATOM      1  F   UNL     1      -7.204   1.276  24.162  0.00  0.00    -0.205 F 
ATOM     22  C   UNL     1      -4.249  -0.718  24.882  0.00  0.00    +0.040 A 
ATOM     27  C   UNL     1      -5.332  -0.173  24.193  0.00  0.00    +0.051 A 
ATOM     28  C   UNL     1      -3.997  -0.338  26.200  0.00  0.00    +0.013 A 
ATOM     29  C   UNL     1      -6.164   0.753  24.822  0.00  0.00    +0.124 A 
ATOM     30  C   UNL     1      -4.830   0.589  26.830  0.00  0.00    +0.004 A 
ATOM     31  C   UNL     1      -5.912   1.133  26.140  0.00  0.00    +0.038 A 
ENDBRANCH  16  22
BRANCH   8  13
ATOM     13  C   UNL     1      -1.125   1.228  23.270  0.00  0.00    +0.061 C 
BRANCH  13  15
ATOM      7  N   UNL     1      -0.079   3.312  23.846  0.00  0.00    -0.287 NA
ATOM     15  C   UNL     1      -1.179   2.634  23.816  0.00  0.00    +0.044 C 
ATOM     17  C   UNL     1      -2.481   3.165  24.296  0.00  0.00    -0.001 A 
ATOM     19  C   UNL     1      -2.434   4.287  25.133  0.00  0.00    -0.033 A 
ATOM     20  C   UNL     1      -1.097   4.859  25.497  0.00  0.00    +0.059 C 
ATOM     21  C   UNL     1      -0.143   4.698  24.320  0.00  0.00    +0.146 C 
ATOM     23  C   UNL     1      -3.704   2.586  23.955  0.00  0.00    +0.013 A 
ATOM     24  C   UNL     1      -3.621   4.812  25.651  0.00  0.00    +0.050 A 
ATOM     25  C   UNL     1      -4.886   3.125  24.465  0.00  0.00    +0.046 A 
ATOM     26  C   UNL     1      -4.845   4.233  25.312  0.00  0.00    +0.120 A 
BRANCH  26   5
ATOM      5  O   UNL     1      -6.002   4.749  25.812  0.00  0.00    -0.495 OA
ATOM     32  C   UNL     1      -6.575   5.852  25.111  0.00  0.00    +0.277 C 
ENDBRANCH  26   5
ENDBRANCH  13  15
ENDBRANCH   8  13
BRANCH   9  14
ATOM     14  C   UNL     1       1.613   0.062  22.601  0.00  0.00    +0.124 C 
BRANCH  14  18
ATOM      4  O   UNL     1       3.622  -1.034  23.442  0.00  0.00    -0.251 OA
ATOM     18  C   UNL     1       3.027  -0.020  23.108  0.00  0.00    +0.305 C 
BRANCH  18   3
ATOM      3  O   UNL     1       3.574   1.222  23.144  0.00  0.00    -0.481 OA
ATOM     33  H   UNL     1       4.276   1.332  22.468  0.00  0.00    +0.295 HD
ENDBRANCH  18   3
ENDBRANCH  14  18
ENDBRANCH   9  14
TORSDOF 7
ENDMDL
MODEL 7
REMARK VINA RESULT:       5.3      2.854      5.436
REMARK  Name = 51136656
REMARK  8 active torsions:
REMARK  status: ('A' for Active; 'I' for Inactive)
REMARK    1  A    between atoms: O_3  and  C_18
REMARK    2  A    between atoms: O_5  and  C_26
REMARK    3  A    between atoms: O_5  and  C_32
REMARK    4  A    between atoms: C_8  and  C_13
REMARK    5  A    between atoms: C_9  and  C_14
REMARK    6  A    between atoms: C_13  and  C_15
REMARK    7  A    between atoms: C_14  and  C_18
REMARK    8  A    between atoms: C_16  and  C_22
REMARK                            x       y       z     vdW  Elec       q    Type
REMARK                         _______ _______ _______ _____ _____    ______ ____
ROOT
ATOM      2  O   UNL     1      -1.264  -2.623  23.929  0.00  0.00    -0.270 OA
ATOM      6  N   UNL     1      -2.717  -0.845  23.483  0.00  0.00    -0.297 N 
ATOM      8  C   UNL     1      -3.864   1.232  24.223  0.00  0.00    +0.016 C 
ATOM      9  C   UNL     1      -5.166   0.408  24.388  0.00  0.00    +0.006 C 
ATOM     10  C   UNL     1      -4.866  -1.075  24.667  0.00  0.00    +0.023 C 
ATOM     11  C   UNL     1      -2.955   0.571  23.170  0.00  0.00    +0.112 C 
ATOM     12  C   UNL     1      -3.927  -1.657  23.613  0.00  0.00    +0.108 C 
ATOM     16  C   UNL     1      -1.466  -1.439  23.662  0.00  0.00    +0.247 C 
ENDROOT
BRANCH  16  22
ATOM      1  F   UNL     1       2.523  -0.113  21.250  0.00  0.00    -0.205 F 
ATOM     22  C   UNL     1      -0.275  -0.594  23.524  0.00  0.00    +0.040 A 
ATOM     27  C   UNL     1       0.575  -0.759  22.430  0.00  0.00    +0.051 A 
ATOM     28  C   UNL     1       0.008   0.373  24.488  0.00  0.00    +0.013 A 
ATOM     29  C   UNL     1       1.708   0.044  22.300  0.00  0.00    +0.124 A 
ATOM     30  C   UNL     1       1.141   1.177  24.358  0.00  0.00    +0.004 A 
ATOM     31  C   UNL     1       1.990   1.012  23.264  0.00  0.00    +0.038 A 
ENDBRANCH  16  22
BRANCH   8  13
ATOM     13  C   UNL     1      -3.093   1.447  25.532  0.00  0.00    +0.061 C 
BRANCH  13  15
ATOM      7  N   UNL     1      -2.671   3.641  24.647  0.00  0.00    -0.287 NA
ATOM     15  C   UNL     1      -2.260   2.702  25.435  0.00  0.00    +0.044 C 
ATOM     17  C   UNL     1      -1.012   2.795  26.236  0.00  0.00    -0.001 A 
ATOM     19  C   UNL     1      -0.082   3.767  25.844  0.00  0.00    -0.033 A 
ATOM     20  C   UNL     1      -0.394   4.624  24.654  0.00  0.00    +0.059 C 
ATOM     21  C   UNL     1      -1.893   4.883  24.599  0.00  0.00    +0.146 C 
ATOM     23  C   UNL     1      -0.748   1.959  27.322  0.00  0.00    +0.013 A 
ATOM     24  C   UNL     1       1.129   3.880  26.532  0.00  0.00    +0.050 A 
ATOM     25  C   UNL     1       0.458   2.089  28.012  0.00  0.00    +0.046 A 
ATOM     26  C   UNL     1       1.395   3.044  27.617  0.00  0.00    +0.120 A 
BRANCH  26   5
ATOM      5  O   UNL     1       2.573   3.159  28.291  0.00  0.00    -0.495 OA
ATOM     32  C   UNL     1       2.639   2.568  29.587  0.00  0.00    +0.277 C 
ENDBRANCH  26   5
ENDBRANCH  13  15
ENDBRANCH   8  13
BRANCH   9  14
ATOM     14  C   UNL     1      -6.106   0.976  25.451  0.00  0.00    +0.124 C 
BRANCH  14  18
ATOM      4  O   UNL     1      -5.805   3.255  24.641  0.00  0.00    -0.251 OA
ATOM     18  C   UNL     1      -5.981   2.471  25.561  0.00  0.00    +0.305 C 
BRANCH  18   3
ATOM      3  O   UNL     1      -6.096   2.846  26.860  0.00  0.00    -0.481 OA
ATOM     33  H   UNL     1      -5.819   2.131  27.472  0.00  0.00    +0.295 HD
ENDBRANCH  18   3
ENDBRANCH  14  18
ENDBRANCH   9  14
TORSDOF 7
ENDMDL
