MODEL 1
REMARK VINA RESULT:      -1.3      0.000      0.000
REMARK  Name = 40533465
REMARK  2 active torsions:
REMARK  status: ('A' for Active; 'I' for Inactive)
REMARK    1  A    between atoms: N_5  and  C_20
REMARK    2  A    between atoms: C_17  and  C_19
REMARK                            x       y       z     vdW  Elec       q    Type
REMARK                         _______ _______ _______ _____ _____    ______ ____
ROOT
ATOM      1  O   UNL     1      -5.819  -7.454  11.276  0.00  0.00    -0.267 OA
ATOM      2  O   UNL     1     -10.467 -10.781  12.291  0.00  0.00    -0.252 OA
ATOM      3  N   UNL     1     -10.546  -9.061  10.745  0.00  0.00    -0.284 N 
ATOM      4  N   UNL     1      -7.499  -8.450  10.002  0.00  0.00    -0.311 N 
ATOM      5  N   UNL     1     -10.718  -8.605  13.053  0.00  0.00    -0.269 N 
ATOM      7  C   UNL     1      -9.632  -7.209   9.325  0.00  0.00    +0.027 C 
ATOM      8  C   UNL     1      -9.311  -9.546   8.637  0.00  0.00    +0.054 C 
ATOM      9  C   UNL     1      -9.637  -8.145   8.124  0.00  0.00    +0.018 C 
ATOM     10  C   UNL     1     -10.678  -7.644  10.372  0.00  0.00    +0.114 C 
ATOM     11  C   UNL     1      -8.216  -7.171   9.913  0.00  0.00    +0.130 C 
ATOM     12  C   UNL     1     -10.411  -9.991   9.617  0.00  0.00    +0.119 C 
ATOM     13  C   UNL     1      -7.961  -9.583   9.329  0.00  0.00    +0.027 A 
ATOM     14  C   UNL     1      -7.229 -10.708   9.323  0.00  0.00    +0.022 A 
ATOM     15  C   UNL     1      -6.278  -8.444  10.702  0.00  0.00    +0.259 A 
ATOM     16  C   UNL     1     -10.562  -9.573  12.062  0.00  0.00    +0.306 C 
ATOM     17  C   UNL     1      -5.498  -9.732  10.712  0.00  0.00    +0.048 A 
ATOM     18  C   UNL     1      -5.982 -10.781  10.031  0.00  0.00    +0.015 A 
ATOM     30  H   UNL     1     -11.256  -7.775  12.829  0.00  0.00    +0.156 HD
ENDROOT
BRANCH  17  19
ATOM      6  N   UNL     1      -3.096 -10.431  13.512  0.00  0.00    -0.263 NA
ATOM     19  C   UNL     1      -4.234  -9.853  11.458  0.00  0.00    +0.005 A 
ATOM     21  C   UNL     1      -3.017  -9.525  10.867  0.00  0.00    +0.011 A 
ATOM     22  C   UNL     1      -4.218 -10.297  12.770  0.00  0.00    +0.119 A 
ATOM     25  C   UNL     1      -1.841  -9.649  11.598  0.00  0.00    +0.020 A 
ATOM     26  C   UNL     1      -1.932 -10.103  12.904  0.00  0.00    +0.111 A 
ENDBRANCH  17  19
BRANCH   5  20
ATOM     20  C   UNL     1     -10.216  -8.647  14.378  0.00  0.00    +0.035 A 
ATOM     23  C   UNL     1      -9.300  -9.633  14.745  0.00  0.00    +0.023 A 
ATOM     24  C   UNL     1     -10.639  -7.704  15.314  0.00  0.00    +0.023 A 
ATOM     27  C   UNL     1      -8.807  -9.675  16.049  0.00  0.00    +0.002 A 
ATOM     28  C   UNL     1     -10.146  -7.747  16.619  0.00  0.00    +0.002 A 
ATOM     29  C   UNL     1      -9.230  -8.732  16.985  0.00  0.00    +0.000 A 
ENDBRANCH   5  20
TORSDOF 2
ENDMDL
