MODEL 1
REMARK VINA RESULT:      -1.2      0.000      0.000
REMARK  Name = 26743187
REMARK  9 active torsions:
REMARK  status: ('A' for Active; 'I' for Inactive)
REMARK    1  A    between atoms: O_3  and  C_27
REMARK    2  A    between atoms: O_3  and  C_31
REMARK    3  A    between atoms: C_7  and  C_10
REMARK    4  A    between atoms: C_8  and  C_14
REMARK    5  A    between atoms: C_10  and  C_19
REMARK    6  A    between atoms: C_12  and  C_20
REMARK    7  A    between atoms: C_14  and  C_21
REMARK    8  A    between atoms: C_20  and  C_22
REMARK    9  A    between atoms: C_24  and  C_27
REMARK                            x       y       z     vdW  Elec       q    Type
REMARK                         _______ _______ _______ _____ _____    ______ ____
ROOT
ATOM      5  N   UNL     1      -0.261   5.719  24.635  0.00  0.00    -0.316 NA
ATOM      7  C   UNL     1      -2.713   4.498  25.731  0.00  0.00    +0.004 C 
ATOM      8  C   UNL     1      -1.370   3.735  25.635  0.00  0.00    +0.012 C 
ATOM      9  C   UNL     1      -2.430   6.009  25.780  0.00  0.00    +0.019 C 
ATOM     11  C   UNL     1      -0.487   4.280  24.499  0.00  0.00    +0.085 C 
ATOM     13  C   UNL     1      -1.516   6.468  24.646  0.00  0.00    +0.081 C 
ATOM     37  H   UNL     1       0.319   6.043  23.862  0.00  0.00    +0.122 HD
ENDROOT
BRANCH   7  10
ATOM     10  C   UNL     1      -3.701   4.165  24.607  0.00  0.00    +0.100 C 
BRANCH  10  19
ATOM      1  O   UNL     1      -5.446   3.623  26.116  0.00  0.00    -0.276 OA
ATOM      4  N   UNL     1      -4.994   2.066  24.451  0.00  0.00    -0.301 N 
ATOM     12  C   UNL     1      -4.737  -0.777  23.933  0.00  0.00    -0.004 C 
ATOM     15  C   UNL     1      -3.650   0.225  23.515  0.00  0.00    +0.023 C 
ATOM     16  C   UNL     1      -5.514  -0.241  25.146  0.00  0.00    +0.023 C 
ATOM     17  C   UNL     1      -4.236   1.615  23.279  0.00  0.00    +0.108 C 
ATOM     18  C   UNL     1      -6.062   1.158  24.875  0.00  0.00    +0.108 C 
ATOM     19  C   UNL     1      -4.793   3.267  25.130  0.00  0.00    +0.216 C 
BRANCH  12  20
ATOM     20  C   UNL     1      -4.129  -2.144  24.240  0.00  0.00    +0.038 C 
BRANCH  20  22
ATOM     22  C   UNL     1      -2.758  -2.018  24.846  0.00  0.00    -0.047 A 
ATOM     25  C   UNL     1      -1.676  -2.677  24.265  0.00  0.00    +0.003 A 
ATOM     26  C   UNL     1      -2.569  -1.241  25.989  0.00  0.00    +0.003 A 
ATOM     28  C   UNL     1      -0.404  -2.561  24.827  0.00  0.00    +0.000 A 
ATOM     29  C   UNL     1      -1.299  -1.123  26.550  0.00  0.00    +0.000 A 
ATOM     30  C   UNL     1      -0.216  -1.784  25.969  0.00  0.00    +0.000 A 
ENDBRANCH  20  22
ENDBRANCH  12  20
ENDBRANCH  10  19
ENDBRANCH   7  10
BRANCH   8  14
ATOM     14  C   UNL     1      -1.548   2.223  25.499  0.00  0.00    +0.064 C 
BRANCH  14  21
ATOM      2  O   UNL     1       1.539   1.192  23.961  0.00  0.00    -0.356 OA
ATOM      6  N   UNL     1       0.816   1.907  24.907  0.00  0.00    -0.083 NA
ATOM     21  C   UNL     1      -0.464   1.618  24.655  0.00  0.00    +0.084 A 
ATOM     23  C   UNL     1      -0.608   0.734  23.572  0.00  0.00    +0.074 A 
ATOM     24  C   UNL     1       0.681   0.499  23.171  0.00  0.00    +0.175 A 
BRANCH  24  27
ATOM     27  C   UNL     1       1.282  -0.318  22.108  0.00  0.00    +0.306 C 
BRANCH  27   3
ATOM      3  O   UNL     1       2.557   0.212  21.737  0.00  0.00    -0.484 OA
BRANCH   3  31
ATOM     31  C   UNL     1       3.595  -0.049  22.586  0.00  0.00    +0.121 A 
ATOM     32  C   UNL     1       4.550   0.935  22.843  0.00  0.00    +0.045 A 
ATOM     33  C   UNL     1       3.701  -1.300  23.195  0.00  0.00    +0.045 A 
ATOM     34  C   UNL     1       5.610   0.668  23.710  0.00  0.00    +0.004 A 
ATOM     35  C   UNL     1       4.760  -1.566  24.061  0.00  0.00    +0.004 A 
ATOM     36  C   UNL     1       5.716  -0.582  24.318  0.00  0.00    +0.000 A 
ENDBRANCH   3  31
ENDBRANCH  27   3
ENDBRANCH  24  27
ENDBRANCH  14  21
ENDBRANCH   8  14
TORSDOF 9
ENDMDL
MODEL 2
REMARK VINA RESULT:       2.1      2.094      6.582
REMARK  Name = 26743187
REMARK  9 active torsions:
REMARK  status: ('A' for Active; 'I' for Inactive)
REMARK    1  A    between atoms: O_3  and  C_27
REMARK    2  A    between atoms: O_3  and  C_31
REMARK    3  A    between atoms: C_7  and  C_10
REMARK    4  A    between atoms: C_8  and  C_14
REMARK    5  A    between atoms: C_10  and  C_19
REMARK    6  A    between atoms: C_12  and  C_20
REMARK    7  A    between atoms: C_14  and  C_21
REMARK    8  A    between atoms: C_20  and  C_22
REMARK    9  A    between atoms: C_24  and  C_27
REMARK                            x       y       z     vdW  Elec       q    Type
REMARK                         _______ _______ _______ _____ _____    ______ ____
ROOT
ATOM      5  N   UNL     1      -4.049  -2.931  24.110  0.00  0.00    -0.316 NA
ATOM      7  C   UNL     1      -4.002  -0.478  25.748  0.00  0.00    +0.004 C 
ATOM      8  C   UNL     1      -4.950  -0.658  24.539  0.00  0.00    +0.012 C 
ATOM      9  C   UNL     1      -3.617  -1.863  26.294  0.00  0.00    +0.019 C 
ATOM     11  C   UNL     1      -4.374  -1.639  23.504  0.00  0.00    +0.085 C 
ATOM     13  C   UNL     1      -3.090  -2.794  25.204  0.00  0.00    +0.081 C 
ATOM     37  H   UNL     1      -3.663  -3.550  23.397  0.00  0.00    +0.122 HD
ENDROOT
BRANCH   7  10
ATOM     10  C   UNL     1      -2.751   0.354  25.440  0.00  0.00    +0.100 C 
BRANCH  10  19
ATOM      1  O   UNL     1      -1.198  -0.796  26.812  0.00  0.00    -0.276 OA
ATOM      4  N   UNL     1      -0.789  -0.837  24.525  0.00  0.00    -0.301 N 
ATOM     12  C   UNL     1       1.312  -0.645  22.535  0.00  0.00    -0.004 C 
ATOM     15  C   UNL     1       0.039   0.211  22.454  0.00  0.00    +0.023 C 
ATOM     16  C   UNL     1       1.611  -1.016  23.995  0.00  0.00    +0.023 C 
ATOM     17  C   UNL     1      -1.136  -0.474  23.147  0.00  0.00    +0.108 C 
ATOM     18  C   UNL     1       0.404  -1.677  24.655  0.00  0.00    +0.108 C 
ATOM     19  C   UNL     1      -1.513  -0.478  25.662  0.00  0.00    +0.216 C 
BRANCH  12  20
ATOM     20  C   UNL     1       2.499   0.083  21.906  0.00  0.00    +0.038 C 
BRANCH  20  22
ATOM     22  C   UNL     1       3.737  -0.041  22.751  0.00  0.00    -0.047 A 
ATOM     25  C   UNL     1       4.086  -1.274  23.300  0.00  0.00    +0.003 A 
ATOM     26  C   UNL     1       4.536   1.078  22.986  0.00  0.00    +0.003 A 
ATOM     28  C   UNL     1       5.233  -1.389  24.085  0.00  0.00    +0.000 A 
ATOM     29  C   UNL     1       5.684   0.964  23.769  0.00  0.00    +0.000 A 
ATOM     30  C   UNL     1       6.033  -0.270  24.319  0.00  0.00    +0.000 A 
ENDBRANCH  20  22
ENDBRANCH  12  20
ENDBRANCH  10  19
ENDBRANCH   7  10
BRANCH   8  14
ATOM     14  C   UNL     1      -5.328   0.665  23.871  0.00  0.00    +0.064 C 
BRANCH  14  21
ATOM      2  O   UNL     1      -5.287   3.190  26.436  0.00  0.00    -0.356 OA
ATOM      6  N   UNL     1      -5.820   2.056  25.836  0.00  0.00    -0.083 NA
ATOM     21  C   UNL     1      -5.045   1.833  24.771  0.00  0.00    +0.084 A 
ATOM     23  C   UNL     1      -4.018   2.785  24.649  0.00  0.00    +0.074 A 
ATOM     24  C   UNL     1      -4.216   3.615  25.721  0.00  0.00    +0.175 A 
BRANCH  24  27
ATOM     27  C   UNL     1      -3.528   4.814  26.218  0.00  0.00    +0.306 C 
BRANCH  27   3
ATOM      3  O   UNL     1      -2.397   5.113  25.396  0.00  0.00    -0.484 OA
BRANCH   3  31
ATOM     31  C   UNL     1      -1.408   4.172  25.355  0.00  0.00    +0.121 A 
ATOM     32  C   UNL     1      -0.738   3.916  24.159  0.00  0.00    +0.045 A 
ATOM     33  C   UNL     1      -1.070   3.465  26.509  0.00  0.00    +0.045 A 
ATOM     34  C   UNL     1       0.272   2.954  24.117  0.00  0.00    +0.004 A 
ATOM     35  C   UNL     1      -0.061   2.503  26.467  0.00  0.00    +0.004 A 
ATOM     36  C   UNL     1       0.610   2.248  25.270  0.00  0.00    +0.000 A 
ENDBRANCH   3  31
ENDBRANCH  27   3
ENDBRANCH  24  27
ENDBRANCH  14  21
ENDBRANCH   8  14
TORSDOF 9
ENDMDL
