MODEL 1
REMARK VINA RESULT:      -0.7      0.000      0.000
REMARK  Name = 26742843
REMARK  5 active torsions:
REMARK  status: ('A' for Active; 'I' for Inactive)
REMARK    1  A    between atoms: N_5  and  C_18
REMARK    2  A    between atoms: N_6  and  C_20
REMARK    3  A    between atoms: N_7  and  C_24
REMARK    4  A    between atoms: C_18  and  C_20
REMARK    5  A    between atoms: C_24  and  C_25
REMARK                            x       y       z     vdW  Elec       q    Type
REMARK                         _______ _______ _______ _____ _____    ______ ____
ROOT
ATOM      1  O   UNL     1      -4.848  -0.260  26.039  0.00  0.00    -0.276 OA
ATOM      2  O   UNL     1       2.833  -1.540  23.697  0.00  0.00    -0.253 OA
ATOM      4  N   UNL     1       0.754  -0.508  23.794  0.00  0.00    -0.285 N 
ATOM      5  N   UNL     1      -4.045   1.505  24.762  0.00  0.00    -0.300 N 
ATOM      7  N   UNL     1       2.561   0.463  22.614  0.00  0.00    -0.296 N 
ATOM      9  C   UNL     1      -1.541   0.228  23.118  0.00  0.00    +0.011 C 
ATOM     10  C   UNL     1      -2.163  -0.847  24.037  0.00  0.00    +0.004 C 
ATOM     11  C   UNL     1      -1.177  -2.025  24.134  0.00  0.00    +0.023 C 
ATOM     12  C   UNL     1      -0.131   0.651  23.584  0.00  0.00    +0.113 C 
ATOM     13  C   UNL     1      -2.450   1.445  22.866  0.00  0.00    +0.024 C 
ATOM     14  C   UNL     1      -2.546  -0.339  25.436  0.00  0.00    +0.100 C 
ATOM     15  C   UNL     1       0.198  -1.584  24.619  0.00  0.00    +0.109 C 
ATOM     16  C   UNL     1      -2.920   2.182  24.116  0.00  0.00    +0.108 C 
ATOM     17  C   UNL     1      -3.922   0.300  25.449  0.00  0.00    +0.216 C 
ATOM     19  C   UNL     1       2.100  -0.595  23.387  0.00  0.00    +0.302 C 
ATOM     27  H   UNL     1       1.954   1.211  22.312  0.00  0.00    +0.151 HD
ENDROOT
BRANCH   5  18
ATOM     18  C   UNL     1      -5.345   2.152  24.654  0.00  0.00    +0.126 C 
BRANCH  18  20
ATOM     20  C   UNL     1      -5.387   3.481  25.389  0.00  0.00    +0.128 C 
BRANCH  20   6
ATOM      3  O   UNL     1      -3.144   3.747  27.371  0.00  0.00    -0.253 OA
ATOM      6  N   UNL     1      -4.145   4.196  25.282  0.00  0.00    -0.283 N 
ATOM      8  N   UNL     1      -2.093   5.039  25.725  0.00  0.00    -0.298 N 
ATOM     21  C   UNL     1      -3.746   4.884  24.066  0.00  0.00    +0.128 C 
ATOM     22  C   UNL     1      -2.420   5.543  24.414  0.00  0.00    +0.124 C 
ATOM     23  C   UNL     1      -3.134   4.262  26.261  0.00  0.00    +0.302 C 
ATOM     28  H   UNL     1      -1.237   5.256  26.224  0.00  0.00    +0.150 HD
ENDBRANCH  20   6
ENDBRANCH  18  20
ENDBRANCH   5  18
BRANCH   7  24
ATOM     24  C   UNL     1       3.922   0.525  22.128  0.00  0.00    +0.132 C 
BRANCH  24  25
ATOM     25  C   UNL     1       4.843   0.751  23.280  0.00  0.00    -0.016 C 
ATOM     26  C   UNL     1       5.778  -0.122  23.669  0.00  0.00    +0.005 C 
ENDBRANCH  24  25
ENDBRANCH   7  24
TORSDOF 5
ENDMDL
MODEL 2
REMARK VINA RESULT:       0.3      2.065      3.055
REMARK  Name = 26742843
REMARK  5 active torsions:
REMARK  status: ('A' for Active; 'I' for Inactive)
REMARK    1  A    between atoms: N_5  and  C_18
REMARK    2  A    between atoms: N_6  and  C_20
REMARK    3  A    between atoms: N_7  and  C_24
REMARK    4  A    between atoms: C_18  and  C_20
REMARK    5  A    between atoms: C_24  and  C_25
REMARK                            x       y       z     vdW  Elec       q    Type
REMARK                         _______ _______ _______ _____ _____    ______ ____
ROOT
ATOM      1  O   UNL     1      -3.946   2.293  23.254  0.00  0.00    -0.276 OA
ATOM      2  O   UNL     1       4.064   0.945  22.881  0.00  0.00    -0.253 OA
ATOM      4  N   UNL     1       1.830   0.530  23.364  0.00  0.00    -0.285 N 
ATOM      5  N   UNL     1      -3.423   0.112  23.853  0.00  0.00    -0.300 N 
ATOM      7  N   UNL     1       3.485  -1.138  23.646  0.00  0.00    -0.296 N 
ATOM      9  C   UNL     1      -0.278   0.241  24.682  0.00  0.00    +0.011 C 
ATOM     10  C   UNL     1      -0.756   1.641  24.235  0.00  0.00    +0.004 C 
ATOM     11  C   UNL     1       0.485   2.517  23.988  0.00  0.00    +0.023 C 
ATOM     12  C   UNL     1       0.719  -0.384  23.683  0.00  0.00    +0.113 C 
ATOM     13  C   UNL     1      -1.417  -0.730  25.039  0.00  0.00    +0.024 C 
ATOM     14  C   UNL     1      -1.673   1.632  23.001  0.00  0.00    +0.100 C 
ATOM     15  C   UNL     1       1.439   1.888  22.979  0.00  0.00    +0.109 C 
ATOM     16  C   UNL     1      -2.443  -0.971  23.936  0.00  0.00    +0.108 C 
ATOM     17  C   UNL     1      -3.122   1.384  23.375  0.00  0.00    +0.216 C 
ATOM     19  C   UNL     1       3.188   0.167  23.273  0.00  0.00    +0.302 C 
ATOM     27  H   UNL     1       2.784  -1.762  24.018  0.00  0.00    +0.151 HD
ENDROOT
BRANCH   5  18
ATOM     18  C   UNL     1      -4.772  -0.194  24.310  0.00  0.00    +0.126 C 
BRANCH  18  20
ATOM     20  C   UNL     1      -5.038   0.338  25.709  0.00  0.00    +0.128 C 
BRANCH  20   6
ATOM      3  O   UNL     1      -7.331   2.007  24.716  0.00  0.00    -0.253 OA
ATOM      6  N   UNL     1      -5.209   1.765  25.719  0.00  0.00    -0.283 N 
ATOM      8  N   UNL     1      -6.082   3.837  25.475  0.00  0.00    -0.298 N 
ATOM     21  C   UNL     1      -4.241   2.659  26.330  0.00  0.00    +0.128 C 
ATOM     22  C   UNL     1      -4.782   4.055  26.057  0.00  0.00    +0.124 C 
ATOM     23  C   UNL     1      -6.328   2.474  25.239  0.00  0.00    +0.302 C 
ATOM     28  H   UNL     1      -6.726   4.579  25.219  0.00  0.00    +0.150 HD
ENDBRANCH  20   6
ENDBRANCH  18  20
ENDBRANCH   5  18
BRANCH   7  24
ATOM     24  C   UNL     1       4.831  -1.665  23.599  0.00  0.00    +0.132 C 
BRANCH  24  25
ATOM     25  C   UNL     1       5.758  -0.696  24.256  0.00  0.00    -0.016 C 
ATOM     26  C   UNL     1       6.760  -0.076  23.623  0.00  0.00    +0.005 C 
ENDBRANCH  24  25
ENDBRANCH   7  24
TORSDOF 5
ENDMDL
MODEL 3
REMARK VINA RESULT:       0.6      1.687      2.540
REMARK  Name = 26742843
REMARK  5 active torsions:
REMARK  status: ('A' for Active; 'I' for Inactive)
REMARK    1  A    between atoms: N_5  and  C_18
REMARK    2  A    between atoms: N_6  and  C_20
REMARK    3  A    between atoms: N_7  and  C_24
REMARK    4  A    between atoms: C_18  and  C_20
REMARK    5  A    between atoms: C_24  and  C_25
REMARK                            x       y       z     vdW  Elec       q    Type
REMARK                         _______ _______ _______ _____ _____    ______ ____
ROOT
ATOM      1  O   UNL     1      -3.936  -1.499  23.575  0.00  0.00    -0.276 OA
ATOM      2  O   UNL     1       3.767   0.023  21.460  0.00  0.00    -0.253 OA
ATOM      4  N   UNL     1       1.841   0.064  22.758  0.00  0.00    -0.285 N 
ATOM      5  N   UNL     1      -2.750  -0.534  25.322  0.00  0.00    -0.300 N 
ATOM      7  N   UNL     1       3.900   0.900  23.574  0.00  0.00    -0.296 N 
ATOM      9  C   UNL     1      -0.229   0.926  23.869  0.00  0.00    +0.011 C 
ATOM     10  C   UNL     1      -1.100   0.216  22.809  0.00  0.00    +0.004 C 
ATOM     11  C   UNL     1      -0.294   0.133  21.501  0.00  0.00    +0.023 C 
ATOM     12  C   UNL     1       1.147   0.249  24.044  0.00  0.00    +0.113 C 
ATOM     13  C   UNL     1      -0.934   1.150  25.219  0.00  0.00    +0.024 C 
ATOM     14  C   UNL     1      -1.602  -1.174  23.231  0.00  0.00    +0.100 C 
ATOM     15  C   UNL     1       1.048  -0.562  21.698  0.00  0.00    +0.109 C 
ATOM     16  C   UNL     1      -1.472  -0.108  25.893  0.00  0.00    +0.108 C 
ATOM     17  C   UNL     1      -2.875  -1.091  24.053  0.00  0.00    +0.216 C 
ATOM     19  C   UNL     1       3.208   0.312  22.523  0.00  0.00    +0.302 C 
ATOM     27  H   UNL     1       3.439   1.188  24.424  0.00  0.00    +0.151 HD
ENDROOT
BRANCH   5  18
ATOM     18  C   UNL     1      -3.931  -0.341  26.152  0.00  0.00    +0.126 C 
BRANCH  18  20
ATOM     20  C   UNL     1      -5.073   0.306  25.385  0.00  0.00    +0.128 C 
BRANCH  20   6
ATOM      3  O   UNL     1      -6.120   2.663  26.927  0.00  0.00    -0.253 OA
ATOM      6  N   UNL     1      -4.854   1.711  25.177  0.00  0.00    -0.283 N 
ATOM      8  N   UNL     1      -4.886   3.960  25.418  0.00  0.00    -0.298 N 
ATOM     21  C   UNL     1      -3.961   2.215  24.149  0.00  0.00    +0.128 C 
ATOM     22  C   UNL     1      -4.081   3.729  24.245  0.00  0.00    +0.124 C 
ATOM     23  C   UNL     1      -5.378   2.760  25.959  0.00  0.00    +0.302 C 
ATOM     28  H   UNL     1      -5.113   4.878  25.784  0.00  0.00    +0.150 HD
ENDBRANCH  20   6
ENDBRANCH  18  20
ENDBRANCH   5  18
BRANCH   7  24
ATOM     24  C   UNL     1       5.310   1.208  23.491  0.00  0.00    +0.132 C 
BRANCH  24  25
ATOM     25  C   UNL     1       6.098  -0.005  23.862  0.00  0.00    -0.016 C 
ATOM     26  C   UNL     1       5.550  -1.147  24.292  0.00  0.00    +0.005 C 
ENDBRANCH  24  25
ENDBRANCH   7  24
TORSDOF 5
ENDMDL
MODEL 4
REMARK VINA RESULT:       1.7      1.648      2.624
REMARK  Name = 26742843
REMARK  5 active torsions:
REMARK  status: ('A' for Active; 'I' for Inactive)
REMARK    1  A    between atoms: N_5  and  C_18
REMARK    2  A    between atoms: N_6  and  C_20
REMARK    3  A    between atoms: N_7  and  C_24
REMARK    4  A    between atoms: C_18  and  C_20
REMARK    5  A    between atoms: C_24  and  C_25
REMARK                            x       y       z     vdW  Elec       q    Type
REMARK                         _______ _______ _______ _____ _____    ______ ____
ROOT
ATOM      1  O   UNL     1      -3.819   1.541  26.344  0.00  0.00    -0.276 OA
ATOM      2  O   UNL     1       2.860  -1.337  22.707  0.00  0.00    -0.253 OA
ATOM      4  N   UNL     1       1.388   0.236  23.574  0.00  0.00    -0.285 N 
ATOM      5  N   UNL     1      -2.237   3.211  26.029  0.00  0.00    -0.300 N 
ATOM      7  N   UNL     1       3.545   0.848  22.817  0.00  0.00    -0.296 N 
ATOM      9  C   UNL     1      -0.321   2.062  23.660  0.00  0.00    +0.011 C 
ATOM     10  C   UNL     1      -1.420   1.027  23.989  0.00  0.00    +0.004 C 
ATOM     11  C   UNL     1      -1.018  -0.317  23.356  0.00  0.00    +0.023 C 
ATOM     12  C   UNL     1       1.082   1.583  24.088  0.00  0.00    +0.113 C 
ATOM     13  C   UNL     1      -0.621   3.483  24.170  0.00  0.00    +0.024 C 
ATOM     14  C   UNL     1      -1.703   0.860  25.491  0.00  0.00    +0.100 C 
ATOM     15  C   UNL     1       0.359  -0.779  23.815  0.00  0.00    +0.109 C 
ATOM     16  C   UNL     1      -0.874   3.603  25.669  0.00  0.00    +0.108 C 
ATOM     17  C   UNL     1      -2.689   1.895  25.999  0.00  0.00    +0.216 C 
ATOM     19  C   UNL     1       2.614  -0.165  23.009  0.00  0.00    +0.302 C 
ATOM     27  H   UNL     1       3.332   1.816  23.010  0.00  0.00    +0.151 HD
ENDROOT
BRANCH   5  18
ATOM     18  C   UNL     1      -3.140   4.282  26.428  0.00  0.00    +0.126 C 
BRANCH  18  20
ATOM     20  C   UNL     1      -4.121   4.645  25.326  0.00  0.00    +0.128 C 
BRANCH  20   6
ATOM      3  O   UNL     1      -3.878   2.792  22.973  0.00  0.00    -0.253 OA
ATOM      6  N   UNL     1      -4.942   3.528  24.946  0.00  0.00    -0.283 N 
ATOM      8  N   UNL     1      -5.764   1.724  23.859  0.00  0.00    -0.298 N 
ATOM     21  C   UNL     1      -6.051   3.066  25.763  0.00  0.00    +0.128 C 
ATOM     22  C   UNL     1      -6.666   1.926  24.964  0.00  0.00    +0.124 C 
ATOM     23  C   UNL     1      -4.752   2.698  23.824  0.00  0.00    +0.302 C 
ATOM     28  H   UNL     1      -5.870   0.996  23.160  0.00  0.00    +0.150 HD
ENDBRANCH  20   6
ENDBRANCH  18  20
ENDBRANCH   5  18
BRANCH   7  24
ATOM     24  C   UNL     1       4.854   0.595  22.256  0.00  0.00    +0.132 C 
BRANCH  24  25
ATOM     25  C   UNL     1       5.807   0.283  23.361  0.00  0.00    -0.016 C 
ATOM     26  C   UNL     1       5.576  -0.633  24.308  0.00  0.00    +0.005 C 
ENDBRANCH  24  25
ENDBRANCH   7  24
TORSDOF 5
ENDMDL
MODEL 5
REMARK VINA RESULT:       2.0      2.119      4.128
REMARK  Name = 26742843
REMARK  5 active torsions:
REMARK  status: ('A' for Active; 'I' for Inactive)
REMARK    1  A    between atoms: N_5  and  C_18
REMARK    2  A    between atoms: N_6  and  C_20
REMARK    3  A    between atoms: N_7  and  C_24
REMARK    4  A    between atoms: C_18  and  C_20
REMARK    5  A    between atoms: C_24  and  C_25
REMARK                            x       y       z     vdW  Elec       q    Type
REMARK                         _______ _______ _______ _____ _____    ______ ____
ROOT
ATOM      1  O   UNL     1      -3.986   3.850  24.368  0.00  0.00    -0.276 OA
ATOM      2  O   UNL     1       3.805   1.929  23.044  0.00  0.00    -0.253 OA
ATOM      4  N   UNL     1       1.541   1.593  23.445  0.00  0.00    -0.285 N 
ATOM      5  N   UNL     1      -3.721   1.570  24.016  0.00  0.00    -0.300 N 
ATOM      7  N   UNL     1       2.989  -0.211  22.945  0.00  0.00    -0.296 N 
ATOM      9  C   UNL     1      -0.575   1.022  24.652  0.00  0.00    +0.011 C 
ATOM     10  C   UNL     1      -0.887   2.525  24.829  0.00  0.00    +0.004 C 
ATOM     11  C   UNL     1       0.447   3.290  24.883  0.00  0.00    +0.023 C 
ATOM     12  C   UNL     1       0.332   0.751  23.433  0.00  0.00    +0.113 C 
ATOM     13  C   UNL     1      -1.818   0.115  24.654  0.00  0.00    +0.024 C 
ATOM     14  C   UNL     1      -1.809   3.110  23.747  0.00  0.00    +0.100 C 
ATOM     15  C   UNL     1       1.311   3.024  23.656  0.00  0.00    +0.109 C 
ATOM     16  C   UNL     1      -2.875   0.449  23.606  0.00  0.00    +0.108 C 
ATOM     17  C   UNL     1      -3.274   2.887  24.070  0.00  0.00    +0.216 C 
ATOM     19  C   UNL     1       2.845   1.157  23.141  0.00  0.00    +0.302 C 
ATOM     27  H   UNL     1       2.222  -0.855  23.075  0.00  0.00    +0.151 HD
ENDROOT
BRANCH   5  18
ATOM     18  C   UNL     1      -5.092   1.250  24.387  0.00  0.00    +0.126 C 
BRANCH  18  20
ATOM     20  C   UNL     1      -5.160   0.222  25.505  0.00  0.00    +0.128 C 
BRANCH  20   6
ATOM      3  O   UNL     1      -3.192  -1.464  27.028  0.00  0.00    -0.253 OA
ATOM      6  N   UNL     1      -4.531  -1.017  25.136  0.00  0.00    -0.283 N 
ATOM      8  N   UNL     1      -3.286  -2.904  25.184  0.00  0.00    -0.298 N 
ATOM     21  C   UNL     1      -4.848  -1.712  23.900  0.00  0.00    +0.128 C 
ATOM     22  C   UNL     1      -3.921  -2.918  23.890  0.00  0.00    +0.124 C 
ATOM     23  C   UNL     1      -3.620  -1.754  25.918  0.00  0.00    +0.302 C 
ATOM     28  H   UNL     1      -2.637  -3.613  25.510  0.00  0.00    +0.150 HD
ENDBRANCH  20   6
ENDBRANCH  18  20
ENDBRANCH   5  18
BRANCH   7  24
ATOM     24  C   UNL     1       4.262  -0.813  22.617  0.00  0.00    +0.132 C 
BRANCH  24  25
ATOM     25  C   UNL     1       4.992  -1.129  23.880  0.00  0.00    -0.016 C 
ATOM     26  C   UNL     1       5.764  -0.254  24.534  0.00  0.00    +0.005 C 
ENDBRANCH  24  25
ENDBRANCH   7  24
TORSDOF 5
ENDMDL
MODEL 6
REMARK VINA RESULT:       3.1      1.856      8.105
REMARK  Name = 26742843
REMARK  5 active torsions:
REMARK  status: ('A' for Active; 'I' for Inactive)
REMARK    1  A    between atoms: N_5  and  C_18
REMARK    2  A    between atoms: N_6  and  C_20
REMARK    3  A    between atoms: N_7  and  C_24
REMARK    4  A    between atoms: C_18  and  C_20
REMARK    5  A    between atoms: C_24  and  C_25
REMARK                            x       y       z     vdW  Elec       q    Type
REMARK                         _______ _______ _______ _____ _____    ______ ____
ROOT
ATOM      1  O   UNL     1       2.479   1.819  23.769  0.00  0.00    -0.276 OA
ATOM      2  O   UNL     1      -4.881   4.236  26.242  0.00  0.00    -0.253 OA
ATOM      4  N   UNL     1      -3.292   2.929  25.163  0.00  0.00    -0.285 N 
ATOM      5  N   UNL     1       0.853   0.240  23.265  0.00  0.00    -0.300 N 
ATOM      7  N   UNL     1      -5.561   2.266  25.286  0.00  0.00    -0.296 N 
ATOM      9  C   UNL     1      -1.936   1.919  23.318  0.00  0.00    +0.011 C 
ATOM     10  C   UNL     1      -0.758   2.857  23.663  0.00  0.00    +0.004 C 
ATOM     11  C   UNL     1      -1.334   4.152  24.262  0.00  0.00    +0.023 C 
ATOM     12  C   UNL     1      -2.860   1.670  24.529  0.00  0.00    +0.113 C 
ATOM     13  C   UNL     1      -1.517   0.603  22.638  0.00  0.00    +0.024 C 
ATOM     14  C   UNL     1       0.289   2.238  24.603  0.00  0.00    +0.100 C 
ATOM     15  C   UNL     1      -2.221   3.880  25.470  0.00  0.00    +0.109 C 
ATOM     16  C   UNL     1      -0.518  -0.247  23.415  0.00  0.00    +0.108 C 
ATOM     17  C   UNL     1       1.316   1.418  23.846  0.00  0.00    +0.216 C 
ATOM     19  C   UNL     1      -4.598   3.216  25.605  0.00  0.00    +0.302 C 
ATOM     27  H   UNL     1      -5.350   1.458  24.720  0.00  0.00    +0.151 HD
ENDROOT
BRANCH   5  18
ATOM     18  C   UNL     1       1.749  -0.572  22.452  0.00  0.00    +0.126 C 
BRANCH  18  20
ATOM     20  C   UNL     1       3.005   0.184  22.053  0.00  0.00    +0.128 C 
BRANCH  20   6
ATOM      3  O   UNL     1       3.557  -2.176  23.829  0.00  0.00    -0.253 OA
ATOM      6  N   UNL     1       4.085  -0.040  22.974  0.00  0.00    -0.283 N 
ATOM      8  N   UNL     1       5.467  -0.994  24.490  0.00  0.00    -0.298 N 
ATOM     21  C   UNL     1       5.185   0.896  23.126  0.00  0.00    +0.128 C 
ATOM     22  C   UNL     1       6.046   0.300  24.230  0.00  0.00    +0.124 C 
ATOM     23  C   UNL     1       4.277  -1.189  23.768  0.00  0.00    +0.302 C 
ATOM     28  H   UNL     1       5.843  -1.667  25.150  0.00  0.00    +0.150 HD
ENDBRANCH  20   6
ENDBRANCH  18  20
ENDBRANCH   5  18
BRANCH   7  24
ATOM     24  C   UNL     1      -6.946   2.412  25.677  0.00  0.00    +0.132 C 
BRANCH  24  25
ATOM     25  C   UNL     1      -7.097   1.990  27.101  0.00  0.00    -0.016 C 
ATOM     26  C   UNL     1      -6.629   0.837  27.591  0.00  0.00    +0.005 C 
ENDBRANCH  24  25
ENDBRANCH   7  24
TORSDOF 5
ENDMDL
