MODEL 1
REMARK VINA RESULT:      -0.9      0.000      0.000
REMARK  Name = 28960538
REMARK  5 active torsions:
REMARK  status: ('A' for Active; 'I' for Inactive)
REMARK    1  A    between atoms: O_3  and  C_11
REMARK    2  A    between atoms: N_6  and  C_10
REMARK    3  A    between atoms: N_7  and  C_12
REMARK    4  A    between atoms: N_9  and  C_23
REMARK    5  A    between atoms: C_20  and  C_21
REMARK                            x       y       z     vdW  Elec       q    Type
REMARK                         _______ _______ _______ _____ _____    ______ ____
ROOT
ATOM      1  O   UNL     1      -3.759  -0.463  23.080  0.00  0.00    -0.342 OA
ATOM      2  O   UNL     1      -5.082  -1.494  24.683  0.00  0.00    -0.347 OA
ATOM     10  C   UNL     1      -3.542   0.235  25.379  0.00  0.00    +0.143 C 
ATOM     11  C   UNL     1      -2.434  -0.817  25.614  0.00  0.00    +0.159 C 
ATOM     12  C   UNL     1      -2.025  -1.577  24.333  0.00  0.00    +0.136 C 
ATOM     13  C   UNL     1      -4.512  -0.238  24.281  0.00  0.00    +0.270 C 
ATOM     14  C   UNL     1      -3.187  -1.750  23.333  0.00  0.00    +0.170 C 
ATOM     15  C   UNL     1      -4.390  -2.480  23.900  0.00  0.00    +0.196 C 
ENDROOT
BRANCH  12   7
ATOM      5  O   UNL     1       0.756  -1.873  24.950  0.00  0.00    -0.252 OA
ATOM      7  N   UNL     1      -0.919  -0.904  23.686  0.00  0.00    -0.291 N 
ATOM      9  N   UNL     1       1.257  -0.328  23.257  0.00  0.00    -0.269 N 
ATOM     22  C   UNL     1       0.413  -1.108  24.052  0.00  0.00    +0.304 C 
ATOM     29  H   UNL     1      -1.127  -0.195  22.989  0.00  0.00    +0.151 HD
ATOM     33  H   UNL     1       0.811   0.255  22.553  0.00  0.00    +0.156 HD
BRANCH   9  23
ATOM     23  C   UNL     1       2.668  -0.246  23.308  0.00  0.00    +0.035 A 
ATOM     24  C   UNL     1       3.413  -1.332  23.767  0.00  0.00    +0.023 A 
ATOM     25  C   UNL     1       3.315   0.920  22.899  0.00  0.00    +0.023 A 
ATOM     26  C   UNL     1       4.805  -1.252  23.818  0.00  0.00    +0.002 A 
ATOM     27  C   UNL     1       4.707   1.001  22.949  0.00  0.00    +0.002 A 
ATOM     28  C   UNL     1       5.452  -0.085  23.409  0.00  0.00    +0.000 A 
ENDBRANCH   9  23
ENDBRANCH  12   7
BRANCH  10   6
ATOM      6  N   UNL     1      -2.947   1.517  24.996  0.00  0.00    -0.293 NA
ATOM     16  C   UNL     1      -3.876   2.619  25.278  0.00  0.00    +0.085 C 
ATOM     17  C   UNL     1      -1.665   1.714  25.684  0.00  0.00    +0.085 C 
ATOM     18  C   UNL     1      -3.291   3.961  24.832  0.00  0.00    +0.028 C 
ATOM     19  C   UNL     1      -1.003   3.024  25.254  0.00  0.00    +0.028 C 
ATOM     20  C   UNL     1      -1.932   4.215  25.483  0.00  0.00    +0.077 C 
BRANCH  20  21
ATOM      4  O   UNL     1      -1.861   6.549  24.980  0.00  0.00    -0.276 OA
ATOM      8  N   UNL     1      -0.095   5.235  24.308  0.00  0.00    -0.329 N 
ATOM     21  C   UNL     1      -1.310   5.453  24.914  0.00  0.00    +0.214 C 
ATOM     31  H   UNL     1       0.332   4.316  24.256  0.00  0.00    +0.145 HD
ATOM     32  H   UNL     1       0.419   5.999  23.882  0.00  0.00    +0.145 HD
ENDBRANCH  20  21
ENDBRANCH  10   6
BRANCH  11   3
ATOM      3  O   UNL     1      -2.924  -1.762  26.574  0.00  0.00    -0.388 OA
ATOM     30  H   UNL     1      -2.160  -2.107  27.064  0.00  0.00    +0.210 HD
ENDBRANCH  11   3
TORSDOF 5
ENDMDL
MODEL 2
REMARK VINA RESULT:       0.8      2.172      5.313
REMARK  Name = 28960538
REMARK  5 active torsions:
REMARK  status: ('A' for Active; 'I' for Inactive)
REMARK    1  A    between atoms: O_3  and  C_11
REMARK    2  A    between atoms: N_6  and  C_10
REMARK    3  A    between atoms: N_7  and  C_12
REMARK    4  A    between atoms: N_9  and  C_23
REMARK    5  A    between atoms: C_20  and  C_21
REMARK                            x       y       z     vdW  Elec       q    Type
REMARK                         _______ _______ _______ _____ _____    ______ ____
ROOT
ATOM      1  O   UNL     1      -3.585   3.202  26.792  0.00  0.00    -0.342 OA
ATOM      2  O   UNL     1      -5.329   4.456  25.916  0.00  0.00    -0.347 OA
ATOM     10  C   UNL     1      -4.399   2.664  24.586  0.00  0.00    +0.143 C 
ATOM     11  C   UNL     1      -3.379   3.635  23.951  0.00  0.00    +0.159 C 
ATOM     12  C   UNL     1      -2.405   4.261  24.974  0.00  0.00    +0.136 C 
ATOM     13  C   UNL     1      -4.781   3.131  26.002  0.00  0.00    +0.270 C 
ATOM     14  C   UNL     1      -3.033   4.454  26.370  0.00  0.00    +0.170 C 
ATOM     15  C   UNL     1      -4.278   5.321  26.376  0.00  0.00    +0.196 C 
ENDROOT
BRANCH  12   7
ATOM      5  O   UNL     1      -1.134   2.794  22.868  0.00  0.00    -0.252 OA
ATOM      7  N   UNL     1      -1.209   3.453  25.082  0.00  0.00    -0.291 N 
ATOM      9  N   UNL     1       0.491   2.077  24.401  0.00  0.00    -0.269 N 
ATOM     22  C   UNL     1      -0.654   2.769  23.999  0.00  0.00    +0.304 C 
ATOM     29  H   UNL     1      -0.801   3.318  26.002  0.00  0.00    +0.151 HD
ATOM     33  H   UNL     1       0.756   2.161  25.380  0.00  0.00    +0.156 HD
BRANCH   9  23
ATOM     23  C   UNL     1       1.340   1.267  23.610  0.00  0.00    +0.035 A 
ATOM     24  C   UNL     1       2.684   1.606  23.458  0.00  0.00    +0.023 A 
ATOM     25  C   UNL     1       0.832   0.130  22.982  0.00  0.00    +0.023 A 
ATOM     26  C   UNL     1       3.521   0.807  22.678  0.00  0.00    +0.002 A 
ATOM     27  C   UNL     1       1.669  -0.669  22.202  0.00  0.00    +0.002 A 
ATOM     28  C   UNL     1       3.013  -0.330  22.050  0.00  0.00    +0.000 A 
ENDBRANCH   9  23
ENDBRANCH  12   7
BRANCH  10   6
ATOM      6  N   UNL     1      -3.839   1.312  24.645  0.00  0.00    -0.293 NA
ATOM     16  C   UNL     1      -4.705   0.431  25.439  0.00  0.00    +0.085 C 
ATOM     17  C   UNL     1      -3.639   0.779  23.290  0.00  0.00    +0.085 C 
ATOM     18  C   UNL     1      -4.105  -0.972  25.556  0.00  0.00    +0.028 C 
ATOM     19  C   UNL     1      -3.004  -0.611  23.332  0.00  0.00    +0.028 C 
ATOM     20  C   UNL     1      -3.834  -1.574  24.179  0.00  0.00    +0.077 C 
BRANCH  20  21
ATOM      4  O   UNL     1      -3.686  -3.957  24.259  0.00  0.00    -0.276 OA
ATOM      8  N   UNL     1      -1.755  -2.735  24.530  0.00  0.00    -0.329 N 
ATOM     21  C   UNL     1      -3.106  -2.876  24.318  0.00  0.00    +0.214 C 
ATOM     31  H   UNL     1      -1.302  -1.828  24.587  0.00  0.00    +0.145 HD
ATOM     32  H   UNL     1      -1.158  -3.548  24.644  0.00  0.00    +0.145 HD
ENDBRANCH  20  21
ENDBRANCH  10   6
BRANCH  11   3
ATOM      3  O   UNL     1      -4.115   4.687  23.313  0.00  0.00    -0.388 OA
ATOM     30  H   UNL     1      -3.870   4.689  22.373  0.00  0.00    +0.210 HD
ENDBRANCH  11   3
TORSDOF 5
ENDMDL
MODEL 3
REMARK VINA RESULT:       1.3      1.979      5.034
REMARK  Name = 28960538
REMARK  5 active torsions:
REMARK  status: ('A' for Active; 'I' for Inactive)
REMARK    1  A    between atoms: O_3  and  C_11
REMARK    2  A    between atoms: N_6  and  C_10
REMARK    3  A    between atoms: N_7  and  C_12
REMARK    4  A    between atoms: N_9  and  C_23
REMARK    5  A    between atoms: C_20  and  C_21
REMARK                            x       y       z     vdW  Elec       q    Type
REMARK                         _______ _______ _______ _____ _____    ______ ____
ROOT
ATOM      1  O   UNL     1      -1.628   2.967  26.075  0.00  0.00    -0.342 OA
ATOM      2  O   UNL     1      -3.222   4.652  26.064  0.00  0.00    -0.347 OA
ATOM     10  C   UNL     1      -3.758   2.534  25.029  0.00  0.00    +0.143 C 
ATOM     11  C   UNL     1      -3.215   3.036  23.672  0.00  0.00    +0.159 C 
ATOM     12  C   UNL     1      -1.710   3.385  23.702  0.00  0.00    +0.136 C 
ATOM     13  C   UNL     1      -3.033   3.234  26.193  0.00  0.00    +0.270 C 
ATOM     14  C   UNL     1      -1.237   3.910  25.072  0.00  0.00    +0.170 C 
ATOM     15  C   UNL     1      -1.974   5.146  25.552  0.00  0.00    +0.196 C 
ENDROOT
BRANCH  12   7
ATOM      5  O   UNL     1       1.078   2.970  24.209  0.00  0.00    -0.252 OA
ATOM      7  N   UNL     1      -0.923   2.231  23.320  0.00  0.00    -0.291 N 
ATOM      9  N   UNL     1       0.927   0.896  23.121  0.00  0.00    -0.269 N 
ATOM     22  C   UNL     1       0.437   2.110  23.609  0.00  0.00    +0.304 C 
ATOM     29  H   UNL     1      -1.364   1.515  22.750  0.00  0.00    +0.151 HD
ATOM     33  H   UNL     1       0.262   0.293  22.644  0.00  0.00    +0.156 HD
BRANCH   9  23
ATOM     23  C   UNL     1       2.248   0.395  23.207  0.00  0.00    +0.035 A 
ATOM     24  C   UNL     1       3.328   1.218  22.890  0.00  0.00    +0.023 A 
ATOM     25  C   UNL     1       2.469  -0.922  23.609  0.00  0.00    +0.023 A 
ATOM     26  C   UNL     1       4.630   0.724  22.974  0.00  0.00    +0.002 A 
ATOM     27  C   UNL     1       3.771  -1.417  23.694  0.00  0.00    +0.002 A 
ATOM     28  C   UNL     1       4.851  -0.593  23.376  0.00  0.00    +0.000 A 
ENDBRANCH   9  23
ENDBRANCH  12   7
BRANCH  10   6
ATOM      6  N   UNL     1      -3.583   1.084  25.137  0.00  0.00    -0.293 NA
ATOM     16  C   UNL     1      -3.941   0.428  23.872  0.00  0.00    +0.085 C 
ATOM     17  C   UNL     1      -2.205   0.761  25.530  0.00  0.00    +0.085 C 
ATOM     18  C   UNL     1      -3.816  -1.093  23.986  0.00  0.00    +0.028 C 
ATOM     19  C   UNL     1      -2.018  -0.747  25.700  0.00  0.00    +0.028 C 
ATOM     20  C   UNL     1      -2.412  -1.501  24.431  0.00  0.00    +0.077 C 
BRANCH  20  21
ATOM      4  O   UNL     1      -1.329  -3.537  25.052  0.00  0.00    -0.276 OA
ATOM      8  N   UNL     1      -3.550  -3.622  24.456  0.00  0.00    -0.329 N 
ATOM     21  C   UNL     1      -2.359  -2.975  24.686  0.00  0.00    +0.214 C 
ATOM     31  H   UNL     1      -4.383  -3.135  24.141  0.00  0.00    +0.145 HD
ATOM     32  H   UNL     1      -3.634  -4.624  24.590  0.00  0.00    +0.145 HD
ENDBRANCH  20  21
ENDBRANCH  10   6
BRANCH  11   3
ATOM      3  O   UNL     1      -3.954   4.210  23.312  0.00  0.00    -0.388 OA
ATOM     30  H   UNL     1      -4.790   4.195  23.806  0.00  0.00    +0.210 HD
ENDBRANCH  11   3
TORSDOF 5
ENDMDL
