MODEL 1
REMARK VINA RESULT:       4.1      0.000      0.000
REMARK  Name = 51138040
REMARK  8 active torsions:
REMARK  status: ('A' for Active; 'I' for Inactive)
REMARK    1  A    between atoms: N_3  and  C_6
REMARK    2  A    between atoms: N_4  and  C_23
REMARK    3  A    between atoms: C_9  and  C_16
REMARK    4  A    between atoms: C_10  and  C_17
REMARK    5  A    between atoms: C_16  and  C_19
REMARK    6  A    between atoms: C_19  and  C_25
REMARK    7  A    between atoms: C_19  and  C_26
REMARK    8  A    between atoms: C_23  and  C_27
REMARK                            x       y       z     vdW  Elec       q    Type
REMARK                         _______ _______ _______ _____ _____    ______ ____
ROOT
ATOM      2  N   UNL     1      -2.915   1.352  25.333  0.00  0.00    -0.299 NA
ATOM      4  N   UNL     1       1.332   0.006  22.957  0.00  0.00    -0.342 N 
ATOM      9  C   UNL     1      -2.534   0.054  25.904  0.00  0.00    +0.085 C 
ATOM     10  C   UNL     1      -1.893   2.383  25.428  0.00  0.00    +0.145 C 
ATOM     12  C   UNL     1      -1.086   2.494  24.135  0.00  0.00    +0.065 C 
ATOM     13  C   UNL     1      -1.367  -0.662  25.218  0.00  0.00    -0.021 A 
ATOM     14  C   UNL     1      -0.436  -0.050  24.330  0.00  0.00    +0.008 A 
ATOM     15  C   UNL     1      -0.262   1.288  23.830  0.00  0.00    -0.020 A 
ATOM     18  C   UNL     1       0.598  -0.815  23.778  0.00  0.00    +0.050 A 
ATOM     20  C   UNL     1       0.828   1.273  22.984  0.00  0.00    +0.091 A 
ATOM     21  C   UNL     1      -1.126  -2.024  25.533  0.00  0.00    +0.006 A 
ATOM     22  C   UNL     1       0.790  -2.168  24.066  0.00  0.00    +0.026 A 
ATOM     24  C   UNL     1      -0.086  -2.758  24.967  0.00  0.00    +0.002 A 
ATOM     32  H   UNL     1      -3.244   1.245  24.373  0.00  0.00    +0.123 HD
ENDROOT
BRANCH  10  17
ATOM      1  O   UNL     1      -2.058   4.741  25.734  0.00  0.00    -0.274 OA
ATOM      3  N   UNL     1      -4.013   3.489  25.736  0.00  0.00    -0.311 N 
ATOM     17  C   UNL     1      -2.641   3.661  25.651  0.00  0.00    +0.231 C 
ATOM     33  H   UNL     1      -4.384   2.546  25.650  0.00  0.00    +0.149 HD
BRANCH   3   6
ATOM      6  C   UNL     1      -4.939   4.617  25.940  0.00  0.00    +0.073 C 
ATOM      7  C   UNL     1      -5.194   5.467  24.678  0.00  0.00    +0.022 C 
ATOM      8  C   UNL     1      -6.433   4.229  25.887  0.00  0.00    +0.022 C 
ATOM     11  C   UNL     1      -6.669   5.550  25.125  0.00  0.00    +0.004 C 
ENDBRANCH   3   6
ENDBRANCH  10  17
BRANCH   9  16
ATOM     16  C   UNL     1      -3.830  -0.777  25.884  0.00  0.00    +0.026 C 
BRANCH  16  19
ATOM     19  C   UNL     1      -4.390  -0.977  24.472  0.00  0.00    -0.015 C 
ATOM     25  C   UNL     1      -4.083  -2.401  24.005  0.00  0.00    +0.007 C 
ATOM     26  C   UNL     1      -3.829   0.030  23.467  0.00  0.00    +0.007 C 
ENDBRANCH  16  19
ENDBRANCH   9  16
BRANCH   4  23
ATOM     23  C   UNL     1       2.488  -0.392  22.181  0.00  0.00    +0.157 C 
BRANCH  23  27
ATOM      5  N   UNL     1       6.180  -0.154  24.381  0.00  0.00    -0.263 NA
ATOM     27  C   UNL     1       3.782  -0.309  22.953  0.00  0.00    -0.025 A 
ATOM     28  C   UNL     1       4.513   0.875  22.964  0.00  0.00    +0.025 A 
ATOM     29  C   UNL     1       4.248  -1.414  23.656  0.00  0.00    +0.025 A 
ATOM     30  C   UNL     1       5.695   0.899  23.688  0.00  0.00    +0.111 A 
ATOM     31  C   UNL     1       5.442  -1.286  24.348  0.00  0.00    +0.111 A 
ENDBRANCH  23  27
ENDBRANCH   4  23
TORSDOF 6
ENDMDL
MODEL 2
REMARK VINA RESULT:       4.4      2.022      7.992
REMARK  Name = 51138040
REMARK  8 active torsions:
REMARK  status: ('A' for Active; 'I' for Inactive)
REMARK    1  A    between atoms: N_3  and  C_6
REMARK    2  A    between atoms: N_4  and  C_23
REMARK    3  A    between atoms: C_9  and  C_16
REMARK    4  A    between atoms: C_10  and  C_17
REMARK    5  A    between atoms: C_16  and  C_19
REMARK    6  A    between atoms: C_19  and  C_25
REMARK    7  A    between atoms: C_19  and  C_26
REMARK    8  A    between atoms: C_23  and  C_27
REMARK                            x       y       z     vdW  Elec       q    Type
REMARK                         _______ _______ _______ _____ _____    ______ ____
ROOT
ATOM      2  N   UNL     1       0.465  -0.806  23.384  0.00  0.00    -0.299 NA
ATOM      4  N   UNL     1      -1.946   3.265  25.147  0.00  0.00    -0.342 N 
ATOM      9  C   UNL     1      -0.962  -1.053  23.141  0.00  0.00    +0.085 C 
ATOM     10  C   UNL     1       0.979   0.423  22.798  0.00  0.00    +0.145 C 
ATOM     12  C   UNL     1       1.012   1.561  23.818  0.00  0.00    +0.065 C 
ATOM     13  C   UNL     1      -1.930  -0.037  23.755  0.00  0.00    -0.021 A 
ATOM     14  C   UNL     1      -1.571   1.258  24.228  0.00  0.00    +0.008 A 
ATOM     15  C   UNL     1      -0.338   1.996  24.282  0.00  0.00    -0.020 A 
ATOM     18  C   UNL     1      -2.558   2.098  24.756  0.00  0.00    +0.050 A 
ATOM     20  C   UNL     1      -0.613   3.218  24.862  0.00  0.00    +0.091 A 
ATOM     21  C   UNL     1      -3.312  -0.357  23.798  0.00  0.00    +0.006 A 
ATOM     22  C   UNL     1      -3.907   1.746  24.833  0.00  0.00    +0.026 A 
ATOM     24  C   UNL     1      -4.270   0.503  24.331  0.00  0.00    +0.002 A 
ATOM     32  H   UNL     1       0.679  -0.857  24.380  0.00  0.00    +0.123 HD
ENDROOT
BRANCH  10  17
ATOM      1  O   UNL     1       2.639  -0.253  21.227  0.00  0.00    -0.274 OA
ATOM      3  N   UNL     1       3.311   0.261  23.388  0.00  0.00    -0.311 N 
ATOM     17  C   UNL     1       2.380   0.102  22.375  0.00  0.00    +0.231 C 
ATOM     33  H   UNL     1       2.980   0.564  24.301  0.00  0.00    +0.149 HD
BRANCH   3   6
ATOM      6  C   UNL     1       4.750   0.012  23.185  0.00  0.00    +0.073 C 
ATOM      7  C   UNL     1       5.667   0.710  24.209  0.00  0.00    +0.022 C 
ATOM      8  C   UNL     1       5.250  -1.328  23.765  0.00  0.00    +0.022 C 
ATOM     11  C   UNL     1       6.523  -0.574  24.204  0.00  0.00    +0.004 C 
ENDBRANCH   3   6
ENDBRANCH  10  17
BRANCH   9  16
ATOM     16  C   UNL     1      -1.203  -2.484  23.655  0.00  0.00    +0.026 C 
BRANCH  16  19
ATOM     19  C   UNL     1      -1.350  -2.555  25.178  0.00  0.00    -0.015 C 
ATOM     25  C   UNL     1      -2.834  -2.638  25.538  0.00  0.00    +0.007 C 
ATOM     26  C   UNL     1      -0.710  -1.361  25.888  0.00  0.00    +0.007 C 
ENDBRANCH  16  19
ENDBRANCH   9  16
BRANCH   4  23
ATOM     23  C   UNL     1      -2.607   4.401  25.756  0.00  0.00    +0.157 C 
BRANCH  23  27
ATOM      5  N   UNL     1      -6.879   3.950  26.008  0.00  0.00    -0.263 NA
ATOM     27  C   UNL     1      -4.105   4.243  25.845  0.00  0.00    -0.025 A 
ATOM     28  C   UNL     1      -4.654   3.203  26.588  0.00  0.00    +0.025 A 
ATOM     29  C   UNL     1      -4.941   5.137  25.185  0.00  0.00    +0.025 A 
ATOM     30  C   UNL     1      -6.035   3.102  26.637  0.00  0.00    +0.111 A 
ATOM     31  C   UNL     1      -6.309   4.948  25.297  0.00  0.00    +0.111 A 
ENDBRANCH  23  27
ENDBRANCH   4  23
TORSDOF 6
ENDMDL
MODEL 3
REMARK VINA RESULT:       8.0      2.367      7.624
REMARK  Name = 51138040
REMARK  8 active torsions:
REMARK  status: ('A' for Active; 'I' for Inactive)
REMARK    1  A    between atoms: N_3  and  C_6
REMARK    2  A    between atoms: N_4  and  C_23
REMARK    3  A    between atoms: C_9  and  C_16
REMARK    4  A    between atoms: C_10  and  C_17
REMARK    5  A    between atoms: C_16  and  C_19
REMARK    6  A    between atoms: C_19  and  C_25
REMARK    7  A    between atoms: C_19  and  C_26
REMARK    8  A    between atoms: C_23  and  C_27
REMARK                            x       y       z     vdW  Elec       q    Type
REMARK                         _______ _______ _______ _____ _____    ______ ____
ROOT
ATOM      2  N   UNL     1       0.071  -1.081  23.752  0.00  0.00    -0.299 NA
ATOM      4  N   UNL     1      -2.017   3.250  25.296  0.00  0.00    -0.342 N 
ATOM      9  C   UNL     1      -1.380  -1.269  23.620  0.00  0.00    +0.085 C 
ATOM     10  C   UNL     1       0.604   0.064  23.028  0.00  0.00    +0.145 C 
ATOM     12  C   UNL     1       0.760   1.281  23.940  0.00  0.00    +0.065 C 
ATOM     13  C   UNL     1      -2.254  -0.155  24.202  0.00  0.00    -0.021 A 
ATOM     14  C   UNL     1      -1.802   1.155  24.535  0.00  0.00    +0.008 A 
ATOM     15  C   UNL     1      -0.533   1.826  24.448  0.00  0.00    -0.020 A 
ATOM     18  C   UNL     1      -2.709   2.089  25.048  0.00  0.00    +0.050 A 
ATOM     20  C   UNL     1      -0.710   3.106  24.934  0.00  0.00    +0.091 A 
ATOM     21  C   UNL     1      -3.644  -0.394  24.359  0.00  0.00    +0.006 A 
ATOM     22  C   UNL     1      -4.065   1.819  25.240  0.00  0.00    +0.026 A 
ATOM     24  C   UNL     1      -4.521   0.559  24.872  0.00  0.00    +0.002 A 
ATOM     32  H   UNL     1       0.348  -1.059  24.733  0.00  0.00    +0.123 HD
ENDROOT
BRANCH  10  17
ATOM      1  O   UNL     1       2.091  -1.044  21.532  0.00  0.00    -0.274 OA
ATOM      3  N   UNL     1       2.993   0.083  23.350  0.00  0.00    -0.311 N 
ATOM     17  C   UNL     1       1.956  -0.367  22.549  0.00  0.00    +0.231 C 
ATOM     33  H   UNL     1       2.761   0.641  24.168  0.00  0.00    +0.149 HD
BRANCH   3   6
ATOM      6  C   UNL     1       4.406  -0.215  23.053  0.00  0.00    +0.073 C 
ATOM      7  C   UNL     1       5.414   0.718  23.755  0.00  0.00    +0.022 C 
ATOM      8  C   UNL     1       5.002  -1.365  23.893  0.00  0.00    +0.022 C 
ATOM     11  C   UNL     1       6.296  -0.529  23.978  0.00  0.00    +0.004 C 
ENDBRANCH   3   6
ENDBRANCH  10  17
BRANCH   9  16
ATOM     16  C   UNL     1      -1.656  -2.637  24.273  0.00  0.00    +0.026 C 
BRANCH  16  19
ATOM     19  C   UNL     1      -3.105  -2.792  24.745  0.00  0.00    -0.015 C 
ATOM     25  C   UNL     1      -3.112  -3.294  26.191  0.00  0.00    +0.007 C 
ATOM     26  C   UNL     1      -3.913  -3.744  23.862  0.00  0.00    +0.007 C 
ENDBRANCH  16  19
ENDBRANCH   9  16
BRANCH   4  23
ATOM     23  C   UNL     1      -2.579   4.467  25.843  0.00  0.00    +0.157 C 
BRANCH  23  27
ATOM      5  N   UNL     1      -3.413   7.449  22.854  0.00  0.00    -0.263 NA
ATOM     27  C   UNL     1      -2.871   5.513  24.795  0.00  0.00    -0.025 A 
ATOM     28  C   UNL     1      -3.968   5.368  23.953  0.00  0.00    +0.025 A 
ATOM     29  C   UNL     1      -2.045   6.625  24.669  0.00  0.00    +0.025 A 
ATOM     30  C   UNL     1      -4.193   6.356  23.007  0.00  0.00    +0.111 A 
ATOM     31  C   UNL     1      -2.357   7.556  23.691  0.00  0.00    +0.111 A 
ENDBRANCH  23  27
ENDBRANCH   4  23
TORSDOF 6
ENDMDL
