MODEL 1
REMARK VINA RESULT:      -3.5      0.000      0.000
REMARK  Name = 11913369
REMARK  8 active torsions:
REMARK  status: ('A' for Active; 'I' for Inactive)
REMARK    1  A    between atoms: O_5  and  C_26
REMARK    2  A    between atoms: N_7  and  C_13
REMARK    3  A    between atoms: N_8  and  C_14
REMARK    4  A    between atoms: C_17  and  C_19
REMARK    5  A    between atoms: C_19  and  C_20
REMARK    6  A    between atoms: C_20  and  C_21
REMARK    7  A    between atoms: C_21  and  C_26
REMARK    8  A    between atoms: C_22  and  C_25
REMARK                            x       y       z     vdW  Elec       q    Type
REMARK                         _______ _______ _______ _____ _____    ______ ____
ROOT
ATOM      2  O   UNL     1      -1.337  -1.269  26.504  0.00  0.00    -0.370 OA
ATOM      3  O   UNL     1      -2.622  -2.321  23.861  0.00  0.00    -0.370 OA
ATOM     11  C   UNL     1      -1.957  -1.096  24.214  0.00  0.00    +0.171 C 
ATOM     12  C   UNL     1      -2.361  -0.756  25.635  0.00  0.00    +0.171 C 
ATOM     13  C   UNL     1      -0.463  -1.313  24.298  0.00  0.00    +0.130 C 
ATOM     14  C   UNL     1      -3.652  -1.512  25.844  0.00  0.00    +0.130 C 
ATOM     15  C   UNL     1      -0.291  -1.848  25.708  0.00  0.00    +0.185 C 
ATOM     16  C   UNL     1      -3.479  -2.720  24.941  0.00  0.00    +0.185 C 
ENDROOT
BRANCH  14   8
ATOM      8  N   UNL     1      -4.772  -0.711  25.399  0.00  0.00    -0.306 N 
ATOM      9  N   UNL     1      -3.475   1.212  25.293  0.00  0.00    -0.214 NA
ATOM     10  N   UNL     1      -5.814   1.249  24.717  0.00  0.00    -0.223 NA
ATOM     18  C   UNL     1      -4.684   0.642  25.125  0.00  0.00    +0.216 A 
ATOM     22  C   UNL     1      -3.425   2.533  25.018  0.00  0.00    +0.076 A 
ATOM     23  C   UNL     1      -5.693   2.567  24.459  0.00  0.00    +0.116 A 
ATOM     24  C   UNL     1      -4.511   3.268  24.592  0.00  0.00    +0.048 A 
ATOM     33  H   UNL     1      -5.665  -1.157  25.224  0.00  0.00    +0.149 HD
BRANCH  22  25
ATOM      1  F   UNL     1       1.067   2.443  26.779  0.00  0.00    -0.205 F 
ATOM     25  C   UNL     1      -2.131   3.147  25.196  0.00  0.00    +0.003 A 
ATOM     27  C   UNL     1      -1.138   2.484  25.916  0.00  0.00    +0.048 A 
ATOM     28  C   UNL     1      -1.875   4.405  24.648  0.00  0.00    +0.010 A 
ATOM     29  C   UNL     1       0.113   3.079  26.088  0.00  0.00    +0.124 A 
ATOM     30  C   UNL     1      -0.625   4.999  24.821  0.00  0.00    +0.003 A 
ATOM     31  C   UNL     1       0.368   4.336  25.540  0.00  0.00    +0.038 A 
ENDBRANCH  22  25
ENDBRANCH  14   8
BRANCH  13   7
ATOM      4  O   UNL     1       1.251  -0.637  22.097  0.00  0.00    -0.276 OA
ATOM      7  N   UNL     1       0.256  -0.076  24.117  0.00  0.00    -0.308 N 
ATOM     17  C   UNL     1       1.064   0.159  23.013  0.00  0.00    +0.213 C 
ATOM     32  H   UNL     1       0.210   0.623  24.852  0.00  0.00    +0.149 HD
BRANCH  17  19
ATOM     19  C   UNL     1       1.727   1.524  23.082  0.00  0.00    +0.096 C 
BRANCH  19  20
ATOM     20  C   UNL     1       3.228   1.493  22.800  0.00  0.00    +0.020 C 
BRANCH  20  21
ATOM     21  C   UNL     1       3.785   0.068  22.765  0.00  0.00    +0.121 C 
BRANCH  21  26
ATOM      6  O   UNL     1       5.551   0.723  24.309  0.00  0.00    -0.251 OA
ATOM     26  C   UNL     1       4.844  -0.149  23.822  0.00  0.00    +0.305 C 
BRANCH  26   5
ATOM      5  O   UNL     1       4.923  -1.457  24.184  0.00  0.00    -0.481 OA
ATOM     34  H   UNL     1       4.050  -1.902  24.139  0.00  0.00    +0.295 HD
ENDBRANCH  26   5
ENDBRANCH  21  26
ENDBRANCH  20  21
ENDBRANCH  19  20
ENDBRANCH  17  19
ENDBRANCH  13   7
TORSDOF 8
ENDMDL
MODEL 2
REMARK VINA RESULT:      -2.0     17.070     19.474
REMARK  Name = 11913369
REMARK  8 active torsions:
REMARK  status: ('A' for Active; 'I' for Inactive)
REMARK    1  A    between atoms: O_5  and  C_26
REMARK    2  A    between atoms: N_7  and  C_13
REMARK    3  A    between atoms: N_8  and  C_14
REMARK    4  A    between atoms: C_17  and  C_19
REMARK    5  A    between atoms: C_19  and  C_20
REMARK    6  A    between atoms: C_20  and  C_21
REMARK    7  A    between atoms: C_21  and  C_26
REMARK    8  A    between atoms: C_22  and  C_25
REMARK                            x       y       z     vdW  Elec       q    Type
REMARK                         _______ _______ _______ _____ _____    ______ ____
ROOT
ATOM      2  O   UNL     1      14.509  -8.773  28.107  0.00  0.00    -0.370 OA
ATOM      3  O   UNL     1      17.403  -8.854  26.941  0.00  0.00    -0.370 OA
ATOM     11  C   UNL     1      16.875  -8.965  28.273  0.00  0.00    +0.171 C 
ATOM     12  C   UNL     1      15.700  -8.013  28.374  0.00  0.00    +0.171 C 
ATOM     13  C   UNL     1      16.261 -10.331  28.484  0.00  0.00    +0.130 C 
ATOM     14  C   UNL     1      15.940  -7.012  27.268  0.00  0.00    +0.130 C 
ATOM     15  C   UNL     1      14.865 -10.151  27.913  0.00  0.00    +0.185 C 
ATOM     16  C   UNL     1      16.686  -7.833  26.232  0.00  0.00    +0.185 C 
ENDROOT
BRANCH  14   8
ATOM      8  N   UNL     1      16.776  -5.934  27.749  0.00  0.00    -0.306 N 
ATOM      9  N   UNL     1      15.335  -5.478  29.512  0.00  0.00    -0.214 NA
ATOM     10  N   UNL     1      17.355  -4.205  29.187  0.00  0.00    -0.223 NA
ATOM     18  C   UNL     1      16.476  -5.172  28.864  0.00  0.00    +0.216 A 
ATOM     22  C   UNL     1      15.073  -4.715  30.594  0.00  0.00    +0.076 A 
ATOM     23  C   UNL     1      17.032  -3.483  30.279  0.00  0.00    +0.116 A 
ATOM     24  C   UNL     1      15.893  -3.695  31.030  0.00  0.00    +0.048 A 
ATOM     33  H   UNL     1      17.658  -5.743  27.288  0.00  0.00    +0.149 HD
BRANCH  22  25
ATOM      1  F   UNL     1      11.503  -7.800  31.609  0.00  0.00    -0.205 F 
ATOM     25  C   UNL     1      13.852  -5.041  31.292  0.00  0.00    +0.003 A 
ATOM     27  C   UNL     1      13.256  -6.288  31.110  0.00  0.00    +0.048 A 
ATOM     28  C   UNL     1      13.269  -4.107  32.148  0.00  0.00    +0.010 A 
ATOM     29  C   UNL     1      12.076  -6.602  31.784  0.00  0.00    +0.124 A 
ATOM     30  C   UNL     1      12.089  -4.420  32.822  0.00  0.00    +0.003 A 
ATOM     31  C   UNL     1      11.492  -5.667  32.640  0.00  0.00    +0.038 A 
ENDBRANCH  22  25
ENDBRANCH  14   8
BRANCH  13   7
ATOM      4  O   UNL     1      17.396  -8.828  30.650  0.00  0.00    -0.276 OA
ATOM      7  N   UNL     1      16.212 -10.671  29.885  0.00  0.00    -0.308 N 
ATOM     17  C   UNL     1      16.793  -9.876  30.863  0.00  0.00    +0.213 C 
ATOM     32  H   UNL     1      15.784 -11.552  30.156  0.00  0.00    +0.149 HD
BRANCH  17  19
ATOM     19  C   UNL     1      16.624 -10.475  32.249  0.00  0.00    +0.096 C 
BRANCH  19  20
ATOM     20  C   UNL     1      15.172 -10.781  32.613  0.00  0.00    +0.020 C 
BRANCH  20  21
ATOM     21  C   UNL     1      14.183  -9.876  31.875  0.00  0.00    +0.121 C 
BRANCH  21  26
ATOM      6  O   UNL     1      12.095 -10.752  32.771  0.00  0.00    -0.251 OA
ATOM     26  C   UNL     1      12.802 -10.486  31.808  0.00  0.00    +0.305 C 
BRANCH  26   5
ATOM      5  O   UNL     1      12.421 -10.711  30.523  0.00  0.00    -0.481 OA
ATOM     34  H   UNL     1      12.376  -9.879  30.005  0.00  0.00    +0.295 HD
ENDBRANCH  26   5
ENDBRANCH  21  26
ENDBRANCH  20  21
ENDBRANCH  19  20
ENDBRANCH  17  19
ENDBRANCH  13   7
TORSDOF 8
ENDMDL
MODEL 3
REMARK VINA RESULT:      -1.7      2.894      5.049
REMARK  Name = 11913369
REMARK  8 active torsions:
REMARK  status: ('A' for Active; 'I' for Inactive)
REMARK    1  A    between atoms: O_5  and  C_26
REMARK    2  A    between atoms: N_7  and  C_13
REMARK    3  A    between atoms: N_8  and  C_14
REMARK    4  A    between atoms: C_17  and  C_19
REMARK    5  A    between atoms: C_19  and  C_20
REMARK    6  A    between atoms: C_20  and  C_21
REMARK    7  A    between atoms: C_21  and  C_26
REMARK    8  A    between atoms: C_22  and  C_25
REMARK                            x       y       z     vdW  Elec       q    Type
REMARK                         _______ _______ _______ _____ _____    ______ ____
ROOT
ATOM      2  O   UNL     1      -3.659   3.136  23.745  0.00  0.00    -0.370 OA
ATOM      3  O   UNL     1      -5.593   2.405  26.083  0.00  0.00    -0.370 OA
ATOM     11  C   UNL     1      -4.164   2.357  25.935  0.00  0.00    +0.171 C 
ATOM     12  C   UNL     1      -3.871   1.937  24.508  0.00  0.00    +0.171 C 
ATOM     13  C   UNL     1      -3.576   3.746  26.037  0.00  0.00    +0.130 C 
ATOM     14  C   UNL     1      -5.138   1.248  24.058  0.00  0.00    +0.130 C 
ATOM     15  C   UNL     1      -3.736   4.271  24.621  0.00  0.00    +0.185 C 
ATOM     16  C   UNL     1      -6.209   1.960  24.865  0.00  0.00    +0.185 C 
ENDROOT
BRANCH  14   8
ATOM      8  N   UNL     1      -5.093  -0.153  24.415  0.00  0.00    -0.306 N 
ATOM      9  N   UNL     1      -2.787  -0.240  24.162  0.00  0.00    -0.214 NA
ATOM     10  N   UNL     1      -4.046  -2.187  24.819  0.00  0.00    -0.223 NA
ATOM     18  C   UNL     1      -3.925  -0.892  24.467  0.00  0.00    +0.216 A 
ATOM     22  C   UNL     1      -1.667  -0.991  24.223  0.00  0.00    +0.076 A 
ATOM     23  C   UNL     1      -2.889  -2.877  24.859  0.00  0.00    +0.116 A 
ATOM     24  C   UNL     1      -1.656  -2.326  24.569  0.00  0.00    +0.048 A 
ATOM     33  H   UNL     1      -5.946  -0.625  24.695  0.00  0.00    +0.149 HD
BRANCH  22  25
ATOM      1  F   UNL     1       2.989  -1.035  22.952  0.00  0.00    -0.205 F 
ATOM     25  C   UNL     1      -0.445  -0.295  23.897  0.00  0.00    +0.003 A 
ATOM     27  C   UNL     1       0.704  -1.016  23.576  0.00  0.00    +0.048 A 
ATOM     28  C   UNL     1      -0.414   1.100  23.904  0.00  0.00    +0.010 A 
ATOM     29  C   UNL     1       1.885  -0.343  23.261  0.00  0.00    +0.124 A 
ATOM     30  C   UNL     1       0.766   1.774  23.590  0.00  0.00    +0.003 A 
ATOM     31  C   UNL     1       1.915   1.052  23.268  0.00  0.00    +0.038 A 
ENDBRANCH  22  25
ENDBRANCH  14   8
BRANCH  13   7
ATOM      4  O   UNL     1      -1.318   4.392  24.386  0.00  0.00    -0.276 OA
ATOM      7  N   UNL     1      -2.187   3.700  26.424  0.00  0.00    -0.308 N 
ATOM     17  C   UNL     1      -1.162   4.033  25.550  0.00  0.00    +0.213 C 
ATOM     32  H   UNL     1      -1.954   3.357  27.351  0.00  0.00    +0.149 HD
BRANCH  17  19
ATOM     19  C   UNL     1       0.203   3.870  26.198  0.00  0.00    +0.096 C 
BRANCH  19  20
ATOM     20  C   UNL     1       0.400   2.520  26.885  0.00  0.00    +0.020 C 
BRANCH  20  21
ATOM     21  C   UNL     1       0.462   2.645  28.409  0.00  0.00    +0.121 C 
BRANCH  21  26
ATOM      6  O   UNL     1       2.867   3.023  28.443  0.00  0.00    -0.251 OA
ATOM     26  C   UNL     1       1.873   2.500  28.929  0.00  0.00    +0.305 C 
BRANCH  26   5
ATOM      5  O   UNL     1       1.917   1.704  30.030  0.00  0.00    -0.481 OA
ATOM     34  H   UNL     1       1.807   2.220  30.857  0.00  0.00    +0.295 HD
ENDBRANCH  26   5
ENDBRANCH  21  26
ENDBRANCH  20  21
ENDBRANCH  19  20
ENDBRANCH  17  19
ENDBRANCH  13   7
TORSDOF 8
ENDMDL
MODEL 4
REMARK VINA RESULT:      -1.1      3.210      7.274
REMARK  Name = 11913369
REMARK  8 active torsions:
REMARK  status: ('A' for Active; 'I' for Inactive)
REMARK    1  A    between atoms: O_5  and  C_26
REMARK    2  A    between atoms: N_7  and  C_13
REMARK    3  A    between atoms: N_8  and  C_14
REMARK    4  A    between atoms: C_17  and  C_19
REMARK    5  A    between atoms: C_19  and  C_20
REMARK    6  A    between atoms: C_20  and  C_21
REMARK    7  A    between atoms: C_21  and  C_26
REMARK    8  A    between atoms: C_22  and  C_25
REMARK                            x       y       z     vdW  Elec       q    Type
REMARK                         _______ _______ _______ _____ _____    ______ ____
ROOT
ATOM      2  O   UNL     1      -1.607   3.246  26.618  0.00  0.00    -0.370 OA
ATOM      3  O   UNL     1      -1.299   4.719  23.884  0.00  0.00    -0.370 OA
ATOM     11  C   UNL     1      -1.838   3.440  24.258  0.00  0.00    +0.171 C 
ATOM     12  C   UNL     1      -0.972   2.896  25.377  0.00  0.00    +0.171 C 
ATOM     13  C   UNL     1      -3.199   3.609  24.895  0.00  0.00    +0.130 C 
ATOM     14  C   UNL     1       0.334   3.639  25.229  0.00  0.00    +0.130 C 
ATOM     15  C   UNL     1      -2.846   3.917  26.339  0.00  0.00    +0.185 C 
ATOM     16  C   UNL     1      -0.104   4.967  24.639  0.00  0.00    +0.185 C 
ENDROOT
BRANCH  14   8
ATOM      8  N   UNL     1       1.199   2.941  24.303  0.00  0.00    -0.306 N 
ATOM      9  N   UNL     1      -0.030   0.980  24.487  0.00  0.00    -0.214 NA
ATOM     10  N   UNL     1       1.905   1.112  23.058  0.00  0.00    -0.223 NA
ATOM     18  C   UNL     1       1.017   1.621  23.933  0.00  0.00    +0.216 A 
ATOM     22  C   UNL     1      -0.177  -0.306  24.105  0.00  0.00    +0.076 A 
ATOM     23  C   UNL     1       1.699  -0.177  22.720  0.00  0.00    +0.116 A 
ATOM     24  C   UNL     1       0.663  -0.943  23.217  0.00  0.00    +0.048 A 
ATOM     33  H   UNL     1       1.954   3.444  23.849  0.00  0.00    +0.149 HD
BRANCH  22  25
ATOM      1  F   UNL     1      -3.597  -3.707  23.919  0.00  0.00    -0.205 F 
ATOM     25  C   UNL     1      -1.300  -0.995  24.696  0.00  0.00    +0.003 A 
ATOM     27  C   UNL     1      -1.918  -2.039  24.008  0.00  0.00    +0.048 A 
ATOM     28  C   UNL     1      -1.766  -0.617  25.955  0.00  0.00    +0.010 A 
ATOM     29  C   UNL     1      -3.003  -2.705  24.579  0.00  0.00    +0.124 A 
ATOM     30  C   UNL     1      -2.850  -1.282  26.527  0.00  0.00    +0.003 A 
ATOM     31  C   UNL     1      -3.468  -2.326  25.839  0.00  0.00    +0.038 A 
ENDBRANCH  22  25
ENDBRANCH  14   8
BRANCH  13   7
ATOM      4  O   UNL     1      -2.976   1.597  22.860  0.00  0.00    -0.276 OA
ATOM      7  N   UNL     1      -3.977   2.398  24.794  0.00  0.00    -0.308 N 
ATOM     17  C   UNL     1      -3.794   1.481  23.769  0.00  0.00    +0.213 C 
ATOM     32  H   UNL     1      -4.721   2.242  25.469  0.00  0.00    +0.149 HD
BRANCH  17  19
ATOM     19  C   UNL     1      -4.759   0.312  23.880  0.00  0.00    +0.096 C 
BRANCH  19  20
ATOM     20  C   UNL     1      -5.786   0.469  25.000  0.00  0.00    +0.020 C 
BRANCH  20  21
ATOM     21  C   UNL     1      -6.573   1.777  24.890  0.00  0.00    +0.121 C 
BRANCH  21  26
ATOM      6  O   UNL     1      -6.214   2.283  27.244  0.00  0.00    -0.251 OA
ATOM     26  C   UNL     1      -6.357   2.667  26.092  0.00  0.00    +0.305 C 
BRANCH  26   5
ATOM      5  O   UNL     1      -6.334   3.980  25.739  0.00  0.00    -0.481 OA
ATOM     34  H   UNL     1      -7.202   4.281  25.397  0.00  0.00    +0.295 HD
ENDBRANCH  26   5
ENDBRANCH  21  26
ENDBRANCH  20  21
ENDBRANCH  19  20
ENDBRANCH  17  19
ENDBRANCH  13   7
TORSDOF 8
ENDMDL
MODEL 5
REMARK VINA RESULT:      -0.9      3.284      7.079
REMARK  Name = 11913369
REMARK  8 active torsions:
REMARK  status: ('A' for Active; 'I' for Inactive)
REMARK    1  A    between atoms: O_5  and  C_26
REMARK    2  A    between atoms: N_7  and  C_13
REMARK    3  A    between atoms: N_8  and  C_14
REMARK    4  A    between atoms: C_17  and  C_19
REMARK    5  A    between atoms: C_19  and  C_20
REMARK    6  A    between atoms: C_20  and  C_21
REMARK    7  A    between atoms: C_21  and  C_26
REMARK    8  A    between atoms: C_22  and  C_25
REMARK                            x       y       z     vdW  Elec       q    Type
REMARK                         _______ _______ _______ _____ _____    ______ ____
ROOT
ATOM      2  O   UNL     1      -2.003   3.232  26.651  0.00  0.00    -0.370 OA
ATOM      3  O   UNL     1      -1.232   5.210  24.362  0.00  0.00    -0.370 OA
ATOM     11  C   UNL     1      -2.024   4.010  24.402  0.00  0.00    +0.171 C 
ATOM     12  C   UNL     1      -1.356   3.062  25.379  0.00  0.00    +0.171 C 
ATOM     13  C   UNL     1      -3.373   4.290  25.026  0.00  0.00    +0.130 C 
ATOM     14  C   UNL     1       0.073   3.548  25.448  0.00  0.00    +0.130 C 
ATOM     15  C   UNL     1      -3.073   4.179  26.510  0.00  0.00    +0.185 C 
ATOM     16  C   UNL     1      -0.070   5.037  25.185  0.00  0.00    +0.185 C 
ENDROOT
BRANCH  14   8
ATOM      8  N   UNL     1       0.859   2.929  24.404  0.00  0.00    -0.306 N 
ATOM      9  N   UNL     1      -0.232   0.895  24.660  0.00  0.00    -0.214 NA
ATOM     10  N   UNL     1       1.511   1.180  23.022  0.00  0.00    -0.223 NA
ATOM     18  C   UNL     1       0.706   1.611  24.011  0.00  0.00    +0.216 A 
ATOM     22  C   UNL     1      -0.353  -0.386  24.253  0.00  0.00    +0.076 A 
ATOM     23  C   UNL     1       1.337  -0.108  22.665  0.00  0.00    +0.116 A 
ATOM     24  C   UNL     1       0.410  -0.947  23.251  0.00  0.00    +0.048 A 
ATOM     33  H   UNL     1       1.526   3.488  23.884  0.00  0.00    +0.149 HD
BRANCH  22  25
ATOM      1  F   UNL     1      -3.574  -3.979  24.348  0.00  0.00    -0.205 F 
ATOM     25  C   UNL     1      -1.359  -1.156  24.945  0.00  0.00    +0.003 A 
ATOM     27  C   UNL     1      -1.993  -2.216  24.299  0.00  0.00    +0.048 A 
ATOM     28  C   UNL     1      -1.696  -0.839  26.261  0.00  0.00    +0.010 A 
ATOM     29  C   UNL     1      -2.965  -2.960  24.968  0.00  0.00    +0.124 A 
ATOM     30  C   UNL     1      -2.668  -1.582  26.931  0.00  0.00    +0.003 A 
ATOM     31  C   UNL     1      -3.302  -2.642  26.285  0.00  0.00    +0.038 A 
ENDBRANCH  22  25
ENDBRANCH  14   8
BRANCH  13   7
ATOM      4  O   UNL     1      -6.060   4.044  26.003  0.00  0.00    -0.276 OA
ATOM      7  N   UNL     1      -4.351   3.312  24.615  0.00  0.00    -0.308 N 
ATOM     17  C   UNL     1      -5.632   3.274  25.148  0.00  0.00    +0.213 C 
ATOM     32  H   UNL     1      -4.070   2.594  23.954  0.00  0.00    +0.149 HD
BRANCH  17  19
ATOM     19  C   UNL     1      -6.448   2.132  24.567  0.00  0.00    +0.096 C 
BRANCH  19  20
ATOM     20  C   UNL     1      -6.034   0.755  25.084  0.00  0.00    +0.020 C 
BRANCH  20  21
ATOM     21  C   UNL     1      -4.516   0.566  25.087  0.00  0.00    +0.121 C 
BRANCH  21  26
ATOM      6  O   UNL     1      -3.281   1.123  23.064  0.00  0.00    -0.251 OA
ATOM     26  C   UNL     1      -3.974   0.337  23.694  0.00  0.00    +0.305 C 
BRANCH  26   5
ATOM      5  O   UNL     1      -4.352  -0.875  23.208  0.00  0.00    -0.481 OA
ATOM     34  H   UNL     1      -5.155  -1.214  23.657  0.00  0.00    +0.295 HD
ENDBRANCH  26   5
ENDBRANCH  21  26
ENDBRANCH  20  21
ENDBRANCH  19  20
ENDBRANCH  17  19
ENDBRANCH  13   7
TORSDOF 8
ENDMDL
MODEL 6
REMARK VINA RESULT:      -0.5      2.301      4.289
REMARK  Name = 11913369
REMARK  8 active torsions:
REMARK  status: ('A' for Active; 'I' for Inactive)
REMARK    1  A    between atoms: O_5  and  C_26
REMARK    2  A    between atoms: N_7  and  C_13
REMARK    3  A    between atoms: N_8  and  C_14
REMARK    4  A    between atoms: C_17  and  C_19
REMARK    5  A    between atoms: C_19  and  C_20
REMARK    6  A    between atoms: C_20  and  C_21
REMARK    7  A    between atoms: C_21  and  C_26
REMARK    8  A    between atoms: C_22  and  C_25
REMARK                            x       y       z     vdW  Elec       q    Type
REMARK                         _______ _______ _______ _____ _____    ______ ____
ROOT
ATOM      2  O   UNL     1      -0.933   4.094  24.022  0.00  0.00    -0.370 OA
ATOM      3  O   UNL     1      -2.181   3.401  26.797  0.00  0.00    -0.370 OA
ATOM     11  C   UNL     1      -1.875   2.617  25.631  0.00  0.00    +0.171 C 
ATOM     12  C   UNL     1      -2.169   3.478  24.418  0.00  0.00    +0.171 C 
ATOM     13  C   UNL     1      -0.388   2.358  25.546  0.00  0.00    +0.130 C 
ATOM     14  C   UNL     1      -3.133   4.523  24.931  0.00  0.00    +0.130 C 
ATOM     15  C   UNL     1       0.123   3.618  24.871  0.00  0.00    +0.185 C 
ATOM     16  C   UNL     1      -2.727   4.663  26.387  0.00  0.00    +0.185 C 
ENDROOT
BRANCH  14   8
ATOM      8  N   UNL     1      -4.491   4.033  24.836  0.00  0.00    -0.306 N 
ATOM      9  N   UNL     1      -3.801   1.820  24.969  0.00  0.00    -0.214 NA
ATOM     10  N   UNL     1      -6.132   2.392  24.761  0.00  0.00    -0.223 NA
ATOM     18  C   UNL     1      -4.823   2.690  24.856  0.00  0.00    +0.216 A 
ATOM     22  C   UNL     1      -4.161   0.519  24.984  0.00  0.00    +0.076 A 
ATOM     23  C   UNL     1      -6.420   1.075  24.783  0.00  0.00    +0.116 A 
ATOM     24  C   UNL     1      -5.466   0.083  24.894  0.00  0.00    +0.048 A 
ATOM     33  H   UNL     1      -5.259   4.694  24.805  0.00  0.00    +0.149 HD
BRANCH  22  25
ATOM      1  F   UNL     1      -1.636  -3.241  23.316  0.00  0.00    -0.205 F 
ATOM     25  C   UNL     1      -3.068  -0.417  25.106  0.00  0.00    +0.003 A 
ATOM     27  C   UNL     1      -2.877  -1.396  24.132  0.00  0.00    +0.048 A 
ATOM     28  C   UNL     1      -2.204  -0.341  26.199  0.00  0.00    +0.010 A 
ATOM     29  C   UNL     1      -1.821  -2.300  24.251  0.00  0.00    +0.124 A 
ATOM     30  C   UNL     1      -1.148  -1.244  26.317  0.00  0.00    +0.003 A 
ATOM     31  C   UNL     1      -0.957  -2.224  25.344  0.00  0.00    +0.038 A 
ENDBRANCH  22  25
ENDBRANCH  14   8
BRANCH  13   7
ATOM      4  O   UNL     1       1.729   2.061  23.630  0.00  0.00    -0.276 OA
ATOM      7  N   UNL     1      -0.106   1.188  24.751  0.00  0.00    -0.308 N 
ATOM     17  C   UNL     1       0.946   1.140  23.847  0.00  0.00    +0.213 C 
ATOM     32  H   UNL     1      -0.736   0.393  24.818  0.00  0.00    +0.149 HD
BRANCH  17  19
ATOM     19  C   UNL     1       1.003  -0.194  23.121  0.00  0.00    +0.096 C 
BRANCH  19  20
ATOM     20  C   UNL     1       2.260  -0.378  22.273  0.00  0.00    +0.020 C 
BRANCH  20  21
ATOM     21  C   UNL     1       3.477  -0.772  23.113  0.00  0.00    +0.121 C 
BRANCH  21  26
ATOM      6  O   UNL     1       5.628   0.230  23.658  0.00  0.00    -0.251 OA
ATOM     26  C   UNL     1       4.539   0.304  23.106  0.00  0.00    +0.305 C 
BRANCH  26   5
ATOM      5  O   UNL     1       4.139   1.391  22.395  0.00  0.00    -0.481 OA
ATOM     34  H   UNL     1       4.875   2.022  22.249  0.00  0.00    +0.295 HD
ENDBRANCH  26   5
ENDBRANCH  21  26
ENDBRANCH  20  21
ENDBRANCH  19  20
ENDBRANCH  17  19
ENDBRANCH  13   7
TORSDOF 8
ENDMDL
MODEL 7
REMARK VINA RESULT:      -0.2      2.966      5.628
REMARK  Name = 11913369
REMARK  8 active torsions:
REMARK  status: ('A' for Active; 'I' for Inactive)
REMARK    1  A    between atoms: O_5  and  C_26
REMARK    2  A    between atoms: N_7  and  C_13
REMARK    3  A    between atoms: N_8  and  C_14
REMARK    4  A    between atoms: C_17  and  C_19
REMARK    5  A    between atoms: C_19  and  C_20
REMARK    6  A    between atoms: C_20  and  C_21
REMARK    7  A    between atoms: C_21  and  C_26
REMARK    8  A    between atoms: C_22  and  C_25
REMARK                            x       y       z     vdW  Elec       q    Type
REMARK                         _______ _______ _______ _____ _____    ______ ____
ROOT
ATOM      2  O   UNL     1      -0.161   1.163  25.761  0.00  0.00    -0.370 OA
ATOM      3  O   UNL     1       0.652   0.132  22.929  0.00  0.00    -0.370 OA
ATOM     11  C   UNL     1      -0.560   0.689  23.464  0.00  0.00    +0.171 C 
ATOM     12  C   UNL     1      -0.710   0.169  24.880  0.00  0.00    +0.171 C 
ATOM     13  C   UNL     1      -0.422   2.185  23.635  0.00  0.00    +0.130 C 
ATOM     14  C   UNL     1       0.139  -1.081  24.906  0.00  0.00    +0.130 C 
ATOM     15  C   UNL     1       0.261   2.296  24.987  0.00  0.00    +0.185 C 
ATOM     16  C   UNL     1       1.222  -0.768  23.890  0.00  0.00    +0.185 C 
ENDROOT
BRANCH  14   8
ATOM      8  N   UNL     1      -0.641  -2.219  24.471  0.00  0.00    -0.306 N 
ATOM      9  N   UNL     1      -2.636  -1.048  24.676  0.00  0.00    -0.214 NA
ATOM     10  N   UNL     1      -2.603  -3.340  23.934  0.00  0.00    -0.223 NA
ATOM     18  C   UNL     1      -2.020  -2.202  24.356  0.00  0.00    +0.216 A 
ATOM     22  C   UNL     1      -3.980  -1.067  24.553  0.00  0.00    +0.076 A 
ATOM     23  C   UNL     1      -3.946  -3.289  23.834  0.00  0.00    +0.116 A 
ATOM     24  C   UNL     1      -4.696  -2.168  24.132  0.00  0.00    +0.048 A 
ATOM     33  H   UNL     1      -0.168  -3.067  24.181  0.00  0.00    +0.149 HD
BRANCH  22  25
ATOM      1  F   UNL     1      -7.745   1.929  24.176  0.00  0.00    -0.205 F 
ATOM     25  C   UNL     1      -4.644   0.168  24.895  0.00  0.00    +0.003 A 
ATOM     27  C   UNL     1      -5.899   0.457  24.359  0.00  0.00    +0.048 A 
ATOM     28  C   UNL     1      -4.029   1.073  25.761  0.00  0.00    +0.010 A 
ATOM     29  C   UNL     1      -6.540   1.651  24.690  0.00  0.00    +0.124 A 
ATOM     30  C   UNL     1      -4.670   2.267  26.091  0.00  0.00    +0.003 A 
ATOM     31  C   UNL     1      -5.925   2.556  25.556  0.00  0.00    +0.038 A 
ENDBRANCH  22  25
ENDBRANCH  14   8
BRANCH  13   7
ATOM      4  O   UNL     1      -2.503   1.887  21.681  0.00  0.00    -0.276 OA
ATOM      7  N   UNL     1      -1.712   2.831  23.647  0.00  0.00    -0.308 N 
ATOM     17  C   UNL     1      -2.657   2.622  22.652  0.00  0.00    +0.213 C 
ATOM     32  H   UNL     1      -1.910   3.504  24.382  0.00  0.00    +0.149 HD
BRANCH  17  19
ATOM     19  C   UNL     1      -3.913   3.443  22.888  0.00  0.00    +0.096 C 
BRANCH  19  20
ATOM     20  C   UNL     1      -3.642   4.824  23.482  0.00  0.00    +0.020 C 
BRANCH  20  21
ATOM     21  C   UNL     1      -3.564   4.797  25.010  0.00  0.00    +0.121 C 
BRANCH  21  26
ATOM      6  O   UNL     1      -1.250   5.549  25.103  0.00  0.00    -0.251 OA
ATOM     26  C   UNL     1      -2.135   4.803  25.501  0.00  0.00    +0.305 C 
BRANCH  26   5
ATOM      5  O   UNL     1      -1.936   3.863  26.463  0.00  0.00    -0.481 OA
ATOM     34  H   UNL     1      -1.842   2.965  26.081  0.00  0.00    +0.295 HD
ENDBRANCH  26   5
ENDBRANCH  21  26
ENDBRANCH  20  21
ENDBRANCH  19  20
ENDBRANCH  17  19
ENDBRANCH  13   7
TORSDOF 8
ENDMDL
MODEL 8
REMARK VINA RESULT:      -0.2      2.444      4.983
REMARK  Name = 11913369
REMARK  8 active torsions:
REMARK  status: ('A' for Active; 'I' for Inactive)
REMARK    1  A    between atoms: O_5  and  C_26
REMARK    2  A    between atoms: N_7  and  C_13
REMARK    3  A    between atoms: N_8  and  C_14
REMARK    4  A    between atoms: C_17  and  C_19
REMARK    5  A    between atoms: C_19  and  C_20
REMARK    6  A    between atoms: C_20  and  C_21
REMARK    7  A    between atoms: C_21  and  C_26
REMARK    8  A    between atoms: C_22  and  C_25
REMARK                            x       y       z     vdW  Elec       q    Type
REMARK                         _______ _______ _______ _____ _____    ______ ____
ROOT
ATOM      2  O   UNL     1      -1.347   2.935  23.386  0.00  0.00    -0.370 OA
ATOM      3  O   UNL     1      -1.216   4.928  25.784  0.00  0.00    -0.370 OA
ATOM     11  C   UNL     1      -1.350   3.499  25.697  0.00  0.00    +0.171 C 
ATOM     12  C   UNL     1      -2.223   3.201  24.495  0.00  0.00    +0.171 C 
ATOM     13  C   UNL     1      -0.021   2.866  25.354  0.00  0.00    +0.130 C 
ATOM     14  C   UNL     1      -2.986   4.484  24.263  0.00  0.00    +0.130 C 
ATOM     15  C   UNL     1       0.014   2.985  23.840  0.00  0.00    +0.185 C 
ATOM     16  C   UNL     1      -2.018   5.541  24.764  0.00  0.00    +0.185 C 
ENDROOT
BRANCH  14   8
ATOM      8  N   UNL     1      -4.193   4.493  25.060  0.00  0.00    -0.306 N 
ATOM      9  N   UNL     1      -4.351   2.177  25.017  0.00  0.00    -0.214 NA
ATOM     10  N   UNL     1      -5.979   3.519  26.181  0.00  0.00    -0.223 NA
ATOM     18  C   UNL     1      -4.871   3.347  25.436  0.00  0.00    +0.216 A 
ATOM     22  C   UNL     1      -5.037   1.080  25.401  0.00  0.00    +0.076 A 
ATOM     23  C   UNL     1      -6.614   2.382  26.528  0.00  0.00    +0.116 A 
ATOM     24  C   UNL     1      -6.185   1.122  26.164  0.00  0.00    +0.048 A 
ATOM     33  H   UNL     1      -4.549   5.373  25.416  0.00  0.00    +0.149 HD
BRANCH  22  25
ATOM      1  F   UNL     1      -3.059  -3.219  26.352  0.00  0.00    -0.205 F 
ATOM     25  C   UNL     1      -4.482  -0.176  24.955  0.00  0.00    +0.003 A 
ATOM     27  C   UNL     1      -4.030  -1.109  25.888  0.00  0.00    +0.048 A 
ATOM     28  C   UNL     1      -4.399  -0.456  23.591  0.00  0.00    +0.010 A 
ATOM     29  C   UNL     1      -3.494  -2.323  25.456  0.00  0.00    +0.124 A 
ATOM     30  C   UNL     1      -3.863  -1.669  23.160  0.00  0.00    +0.003 A 
ATOM     31  C   UNL     1      -3.410  -2.602  24.092  0.00  0.00    +0.038 A 
ENDBRANCH  22  25
ENDBRANCH  14   8
BRANCH  13   7
ATOM      4  O   UNL     1      -1.647   0.724  24.349  0.00  0.00    -0.276 OA
ATOM      7  N   UNL     1       0.023   1.485  25.770  0.00  0.00    -0.308 N 
ATOM     17  C   UNL     1      -0.807   0.517  25.222  0.00  0.00    +0.213 C 
ATOM     32  H   UNL     1       0.646   1.228  26.530  0.00  0.00    +0.149 HD
BRANCH  17  19
ATOM     19  C   UNL     1      -0.579  -0.844  25.856  0.00  0.00    +0.096 C 
BRANCH  19  20
ATOM     20  C   UNL     1       0.117  -1.843  24.933  0.00  0.00    +0.020 C 
BRANCH  20  21
ATOM     21  C   UNL     1       0.003  -1.451  23.458  0.00  0.00    +0.121 C 
BRANCH  21  26
ATOM      6  O   UNL     1       2.295  -0.633  23.519  0.00  0.00    -0.251 OA
ATOM     26  C   UNL     1       1.187  -0.633  22.999  0.00  0.00    +0.305 C 
BRANCH  26   5
ATOM      5  O   UNL     1       0.878   0.123  21.913  0.00  0.00    -0.481 OA
ATOM     34  H   UNL     1       0.020  -0.141  21.517  0.00  0.00    +0.295 HD
ENDBRANCH  26   5
ENDBRANCH  21  26
ENDBRANCH  20  21
ENDBRANCH  19  20
ENDBRANCH  17  19
ENDBRANCH  13   7
TORSDOF 8
ENDMDL
MODEL 9
REMARK VINA RESULT:       0.3      2.542      5.311
REMARK  Name = 11913369
REMARK  8 active torsions:
REMARK  status: ('A' for Active; 'I' for Inactive)
REMARK    1  A    between atoms: O_5  and  C_26
REMARK    2  A    between atoms: N_7  and  C_13
REMARK    3  A    between atoms: N_8  and  C_14
REMARK    4  A    between atoms: C_17  and  C_19
REMARK    5  A    between atoms: C_19  and  C_20
REMARK    6  A    between atoms: C_20  and  C_21
REMARK    7  A    between atoms: C_21  and  C_26
REMARK    8  A    between atoms: C_22  and  C_25
REMARK                            x       y       z     vdW  Elec       q    Type
REMARK                         _______ _______ _______ _____ _____    ______ ____
ROOT
ATOM      2  O   UNL     1      -0.321   1.081  26.166  0.00  0.00    -0.370 OA
ATOM      3  O   UNL     1       0.792  -0.026  23.468  0.00  0.00    -0.370 OA
ATOM     11  C   UNL     1      -0.398   0.702  23.818  0.00  0.00    +0.171 C 
ATOM     12  C   UNL     1      -0.856   0.192  25.171  0.00  0.00    +0.171 C 
ATOM     13  C   UNL     1      -0.071   2.157  24.065  0.00  0.00    +0.130 C 
ATOM     14  C   UNL     1      -0.218  -1.171  25.289  0.00  0.00    +0.130 C 
ATOM     15  C   UNL     1       0.386   2.147  25.513  0.00  0.00    +0.185 C 
ATOM     16  C   UNL     1       1.055  -1.014  24.475  0.00  0.00    +0.185 C 
ENDROOT
BRANCH  14   8
ATOM      8  N   UNL     1      -1.073  -2.172  24.690  0.00  0.00    -0.306 N 
ATOM      9  N   UNL     1      -2.943  -0.805  24.849  0.00  0.00    -0.214 NA
ATOM     10  N   UNL     1      -3.088  -3.015  23.901  0.00  0.00    -0.223 NA
ATOM     18  C   UNL     1      -2.427  -1.990  24.471  0.00  0.00    +0.216 A 
ATOM     22  C   UNL     1      -4.265  -0.661  24.622  0.00  0.00    +0.076 A 
ATOM     23  C   UNL     1      -4.405  -2.804  23.703  0.00  0.00    +0.116 A 
ATOM     24  C   UNL     1      -5.054  -1.634  24.046  0.00  0.00    +0.048 A 
ATOM     33  H   UNL     1      -0.668  -3.041  24.359  0.00  0.00    +0.149 HD
BRANCH  22  25
ATOM      1  F   UNL     1      -3.819   3.631  26.783  0.00  0.00    -0.205 F 
ATOM     25  C   UNL     1      -4.822   0.608  25.026  0.00  0.00    +0.003 A 
ATOM     27  C   UNL     1      -4.035   1.524  25.723  0.00  0.00    +0.048 A 
ATOM     28  C   UNL     1      -6.147   0.918  24.717  0.00  0.00    +0.010 A 
ATOM     29  C   UNL     1      -4.574   2.751  26.113  0.00  0.00    +0.124 A 
ATOM     30  C   UNL     1      -6.685   2.144  25.107  0.00  0.00    +0.003 A 
ATOM     31  C   UNL     1      -5.899   3.060  25.805  0.00  0.00    +0.038 A 
ENDBRANCH  22  25
ENDBRANCH  14   8
BRANCH  13   7
ATOM      4  O   UNL     1      -0.372   4.878  24.931  0.00  0.00    -0.276 OA
ATOM      7  N   UNL     1      -1.235   2.991  23.891  0.00  0.00    -0.308 N 
ATOM     17  C   UNL     1      -1.285   4.301  24.345  0.00  0.00    +0.213 C 
ATOM     32  H   UNL     1      -2.064   2.583  23.469  0.00  0.00    +0.149 HD
BRANCH  17  19
ATOM     19  C   UNL     1      -2.632   4.944  24.061  0.00  0.00    +0.096 C 
BRANCH  19  20
ATOM     20  C   UNL     1      -3.722   3.943  23.681  0.00  0.00    +0.020 C 
BRANCH  20  21
ATOM     21  C   UNL     1      -3.731   3.631  22.183  0.00  0.00    +0.121 C 
BRANCH  21  26
ATOM      6  O   UNL     1      -3.187   1.282  22.523  0.00  0.00    -0.251 OA
ATOM     26  C   UNL     1      -3.055   2.314  21.878  0.00  0.00    +0.305 C 
BRANCH  26   5
ATOM      5  O   UNL     1      -2.265   2.405  20.776  0.00  0.00    -0.481 OA
ATOM     34  H   UNL     1      -1.380   2.010  20.929  0.00  0.00    +0.295 HD
ENDBRANCH  26   5
ENDBRANCH  21  26
ENDBRANCH  20  21
ENDBRANCH  19  20
ENDBRANCH  17  19
ENDBRANCH  13   7
TORSDOF 8
ENDMDL
