MODEL 1
REMARK VINA RESULT:      -0.9      0.000      0.000
REMARK  Name = 38030471
REMARK  12 active torsions:
REMARK  status: ('A' for Active; 'I' for Inactive)
REMARK    1  A    between atoms: N_2  and  C_14
REMARK    2  A    between atoms: N_2  and  C_20
REMARK    3  A    between atoms: C_7  and  C_11
REMARK    4  A    between atoms: C_8  and  C_14
REMARK    5  A    between atoms: C_10  and  C_15
REMARK    6  A    between atoms: C_11  and  C_16
REMARK    7  A    between atoms: C_11  and  C_17
REMARK    8  A    between atoms: C_12  and  C_18
REMARK    9  A    between atoms: C_15  and  C_19
REMARK   10  A    between atoms: C_20  and  C_21
REMARK   11  A    between atoms: C_22  and  C_25
REMARK   12  A    between atoms: C_28  and  C_32
REMARK                            x       y       z     vdW  Elec       q    Type
REMARK                         _______ _______ _______ _____ _____    ______ ____
ROOT
ATOM      7  C   UNL     1      -2.430   3.469  25.100  0.00  0.00    +0.000 C 
ATOM      8  C   UNL     1      -3.741   3.667  24.298  0.00  0.00    +0.029 C 
ATOM      9  C   UNL     1      -1.220   3.444  24.154  0.00  0.00    +0.012 C 
ATOM     10  C   UNL     1      -1.324   2.322  23.105  0.00  0.00    +0.024 C 
ATOM     12  C   UNL     1      -2.692   2.284  22.455  0.00  0.00    -0.073 C 
ATOM     13  C   UNL     1      -3.758   2.901  22.996  0.00  0.00    -0.023 C 
ATOM     18  C   UNL     1      -2.799   1.555  21.144  0.00  0.00    +0.039 C 
ENDROOT
BRANCH   7  11
ATOM     11  C   UNL     1      -2.240   4.563  26.157  0.00  0.00    -0.013 C 
ATOM     16  C   UNL     1      -3.414   4.571  27.131  0.00  0.00    +0.007 C 
ATOM     17  C   UNL     1      -2.080   5.925  25.490  0.00  0.00    +0.007 C 
ENDBRANCH   7  11
BRANCH   8  14
ATOM     14  C   UNL     1      -4.966   3.280  25.134  0.00  0.00    +0.089 C 
BRANCH  14   2
ATOM      2  N   UNL     1      -5.773   2.296  24.434  0.00  0.00    -0.311 NA
ATOM     34  H   UNL     1      -6.685   2.688  24.209  0.00  0.00    +0.122 HD
BRANCH   2  20
ATOM     20  C   UNL     1      -5.953   1.094  25.241  0.00  0.00    +0.116 C 
BRANCH  20  21
ATOM     21  C   UNL     1      -4.782   0.156  25.117  0.00  0.00    -0.034 A 
ATOM     23  C   UNL     1      -4.643  -0.639  23.980  0.00  0.00    +0.006 A 
ATOM     24  C   UNL     1      -3.836   0.081  26.139  0.00  0.00    +0.006 A 
ATOM     26  C   UNL     1      -3.559  -1.509  23.864  0.00  0.00    +0.019 A 
ATOM     27  C   UNL     1      -2.752  -0.788  26.025  0.00  0.00    +0.019 A 
ATOM     28  C   UNL     1      -2.613  -1.584  24.887  0.00  0.00    +0.052 A 
BRANCH  28  32
ATOM      6  N   UNL     1      -0.599  -3.197  24.674  0.00  0.00    -0.191 NA
ATOM     32  C   UNL     1      -1.502  -2.474  24.769  0.00  0.00    +0.099 C 
ENDBRANCH  28  32
ENDBRANCH  20  21
ENDBRANCH   2  20
ENDBRANCH  14   2
ENDBRANCH   8  14
BRANCH  10  15
ATOM     15  C   UNL     1      -0.968   0.962  23.714  0.00  0.00    +0.105 C 
BRANCH  15  19
ATOM      1  O   UNL     1       1.415   0.435  23.704  0.00  0.00    -0.420 OA
ATOM      3  N   UNL     1       0.317  -0.255  21.882  0.00  0.00    -0.112 NA
ATOM      4  N   UNL     1       1.645  -0.616  21.743  0.00  0.00    -0.107 NA
ATOM     19  C   UNL     1       0.230   0.356  23.040  0.00  0.00    +0.218 A 
ATOM     22  C   UNL     1       2.247  -0.193  22.830  0.00  0.00    +0.250 A 
BRANCH  22  25
ATOM      5  N   UNL     1       5.417  -1.625  24.145  0.00  0.00    -0.263 NA
ATOM     25  C   UNL     1       3.622  -0.289  23.229  0.00  0.00    +0.057 A 
ATOM     29  C   UNL     1       4.481   0.796  23.108  0.00  0.00    +0.016 A 
ATOM     30  C   UNL     1       4.133  -1.467  23.749  0.00  0.00    +0.124 A 
ATOM     31  C   UNL     1       5.809   0.673  23.504  0.00  0.00    +0.020 A 
ATOM     33  C   UNL     1       6.223  -0.548  24.011  0.00  0.00    +0.111 A 
ENDBRANCH  22  25
ENDBRANCH  15  19
ENDBRANCH  10  15
TORSDOF 9
ENDMDL
MODEL 2
REMARK VINA RESULT:      -0.2      1.601      4.507
REMARK  Name = 38030471
REMARK  12 active torsions:
REMARK  status: ('A' for Active; 'I' for Inactive)
REMARK    1  A    between atoms: N_2  and  C_14
REMARK    2  A    between atoms: N_2  and  C_20
REMARK    3  A    between atoms: C_7  and  C_11
REMARK    4  A    between atoms: C_8  and  C_14
REMARK    5  A    between atoms: C_10  and  C_15
REMARK    6  A    between atoms: C_11  and  C_16
REMARK    7  A    between atoms: C_11  and  C_17
REMARK    8  A    between atoms: C_12  and  C_18
REMARK    9  A    between atoms: C_15  and  C_19
REMARK   10  A    between atoms: C_20  and  C_21
REMARK   11  A    between atoms: C_22  and  C_25
REMARK   12  A    between atoms: C_28  and  C_32
REMARK                            x       y       z     vdW  Elec       q    Type
REMARK                         _______ _______ _______ _____ _____    ______ ____
ROOT
ATOM      7  C   UNL     1      -3.480  -1.196  24.269  0.00  0.00    +0.000 C 
ATOM      8  C   UNL     1      -3.973  -0.302  25.435  0.00  0.00    +0.029 C 
ATOM      9  C   UNL     1      -1.981  -1.495  24.418  0.00  0.00    +0.012 C 
ATOM     10  C   UNL     1      -1.131  -0.212  24.441  0.00  0.00    +0.024 C 
ATOM     12  C   UNL     1      -1.708   0.830  25.377  0.00  0.00    -0.073 C 
ATOM     13  C   UNL     1      -2.976   0.767  25.821  0.00  0.00    -0.023 C 
ATOM     18  C   UNL     1      -0.781   1.925  25.827  0.00  0.00    +0.039 C 
ENDROOT
BRANCH   7  11
ATOM     11  C   UNL     1      -4.266  -2.509  24.189  0.00  0.00    -0.013 C 
ATOM     16  C   UNL     1      -3.447  -3.656  24.773  0.00  0.00    +0.007 C 
ATOM     17  C   UNL     1      -4.661  -2.806  22.746  0.00  0.00    +0.007 C 
ENDBRANCH   7  11
BRANCH   8  14
ATOM     14  C   UNL     1      -5.318   0.352  25.102  0.00  0.00    +0.089 C 
BRANCH  14   2
ATOM      2  N   UNL     1      -5.789   1.153  26.218  0.00  0.00    -0.311 NA
ATOM     34  H   UNL     1      -6.651   0.759  26.592  0.00  0.00    +0.122 HD
BRANCH   2  20
ATOM     20  C   UNL     1      -6.029   2.533  25.809  0.00  0.00    +0.116 C 
BRANCH  20  21
ATOM     21  C   UNL     1      -4.744   3.268  25.540  0.00  0.00    -0.034 A 
ATOM     23  C   UNL     1      -4.015   3.811  26.598  0.00  0.00    +0.006 A 
ATOM     24  C   UNL     1      -4.281   3.407  24.231  0.00  0.00    +0.006 A 
ATOM     26  C   UNL     1      -2.824   4.493  26.349  0.00  0.00    +0.019 A 
ATOM     27  C   UNL     1      -3.090   4.089  23.981  0.00  0.00    +0.019 A 
ATOM     28  C   UNL     1      -2.362   4.632  25.040  0.00  0.00    +0.052 A 
BRANCH  28  32
ATOM      6  N   UNL     1      -0.150   5.897  24.575  0.00  0.00    -0.191 NA
ATOM     32  C   UNL     1      -1.142   5.330  24.784  0.00  0.00    +0.099 C 
ENDBRANCH  28  32
ENDBRANCH  20  21
ENDBRANCH   2  20
ENDBRANCH  14   2
ENDBRANCH   8  14
BRANCH  10  15
ATOM     15  C   UNL     1      -0.951   0.357  23.030  0.00  0.00    +0.105 C 
BRANCH  15  19
ATOM      1  O   UNL     1       1.457   0.096  23.332  0.00  0.00    -0.420 OA
ATOM      3  N   UNL     1       0.742  -0.336  21.257  0.00  0.00    -0.112 NA
ATOM      4  N   UNL     1       2.112  -0.521  21.284  0.00  0.00    -0.107 NA
ATOM     19  C   UNL     1       0.404   0.024  22.473  0.00  0.00    +0.218 A 
ATOM     22  C   UNL     1       2.485  -0.258  22.514  0.00  0.00    +0.250 A 
BRANCH  22  25
ATOM      5  N   UNL     1       5.482  -1.529  24.312  0.00  0.00    -0.263 NA
ATOM     25  C   UNL     1       3.786  -0.286  23.118  0.00  0.00    +0.057 A 
ATOM     29  C   UNL     1       4.603   0.838  23.113  0.00  0.00    +0.016 A 
ATOM     30  C   UNL     1       4.268  -1.435  23.725  0.00  0.00    +0.124 A 
ATOM     31  C   UNL     1       5.860   0.781  23.707  0.00  0.00    +0.020 A 
ATOM     33  C   UNL     1       6.248  -0.415  24.287  0.00  0.00    +0.111 A 
ENDBRANCH  22  25
ENDBRANCH  15  19
ENDBRANCH  10  15
TORSDOF 9
ENDMDL
MODEL 3
REMARK VINA RESULT:       0.9      1.678      6.998
REMARK  Name = 38030471
REMARK  12 active torsions:
REMARK  status: ('A' for Active; 'I' for Inactive)
REMARK    1  A    between atoms: N_2  and  C_14
REMARK    2  A    between atoms: N_2  and  C_20
REMARK    3  A    between atoms: C_7  and  C_11
REMARK    4  A    between atoms: C_8  and  C_14
REMARK    5  A    between atoms: C_10  and  C_15
REMARK    6  A    between atoms: C_11  and  C_16
REMARK    7  A    between atoms: C_11  and  C_17
REMARK    8  A    between atoms: C_12  and  C_18
REMARK    9  A    between atoms: C_15  and  C_19
REMARK   10  A    between atoms: C_20  and  C_21
REMARK   11  A    between atoms: C_22  and  C_25
REMARK   12  A    between atoms: C_28  and  C_32
REMARK                            x       y       z     vdW  Elec       q    Type
REMARK                         _______ _______ _______ _____ _____    ______ ____
ROOT
ATOM      7  C   UNL     1      -1.931   2.465  23.685  0.00  0.00    +0.000 C 
ATOM      8  C   UNL     1      -0.655   1.621  23.928  0.00  0.00    +0.029 C 
ATOM      9  C   UNL     1      -1.727   3.902  24.186  0.00  0.00    +0.012 C 
ATOM     10  C   UNL     1      -1.389   3.953  25.687  0.00  0.00    +0.024 C 
ATOM     12  C   UNL     1      -0.315   2.950  26.056  0.00  0.00    -0.073 C 
ATOM     13  C   UNL     1       0.008   1.921  25.252  0.00  0.00    -0.023 C 
ATOM     18  C   UNL     1       0.411   3.180  27.353  0.00  0.00    +0.039 C 
ENDROOT
BRANCH   7  11
ATOM     11  C   UNL     1      -2.327   2.483  22.204  0.00  0.00    -0.013 C 
ATOM     16  C   UNL     1      -3.624   3.262  22.010  0.00  0.00    +0.007 C 
ATOM     17  C   UNL     1      -2.465   1.060  21.673  0.00  0.00    +0.007 C 
ENDBRANCH   7  11
BRANCH   8  14
ATOM     14  C   UNL     1      -0.957   0.121  23.838  0.00  0.00    +0.089 C 
BRANCH  14   2
ATOM      2  N   UNL     1       0.272  -0.644  23.728  0.00  0.00    -0.311 NA
ATOM     34  H   UNL     1       0.845  -0.507  24.559  0.00  0.00    +0.122 HD
BRANCH   2  20
ATOM     20  C   UNL     1       1.033  -0.248  22.548  0.00  0.00    +0.116 C 
BRANCH  20  21
ATOM     21  C   UNL     1       2.513  -0.204  22.825  0.00  0.00    -0.034 A 
ATOM     23  C   UNL     1       3.145  -1.297  23.418  0.00  0.00    +0.006 A 
ATOM     24  C   UNL     1       3.251   0.930  22.489  0.00  0.00    +0.006 A 
ATOM     26  C   UNL     1       4.515  -1.256  23.674  0.00  0.00    +0.019 A 
ATOM     27  C   UNL     1       4.621   0.972  22.746  0.00  0.00    +0.019 A 
ATOM     28  C   UNL     1       5.253  -0.121  23.339  0.00  0.00    +0.052 A 
BRANCH  28  32
ATOM      6  N   UNL     1       7.798  -0.044  23.814  0.00  0.00    -0.191 NA
ATOM     32  C   UNL     1       6.657  -0.079  23.601  0.00  0.00    +0.099 C 
ENDBRANCH  28  32
ENDBRANCH  20  21
ENDBRANCH   2  20
ENDBRANCH  14   2
ENDBRANCH   8  14
BRANCH  10  15
ATOM     15  C   UNL     1      -2.643   3.754  26.544  0.00  0.00    +0.105 C 
BRANCH  15  19
ATOM      1  O   UNL     1      -3.125   1.474  25.818  0.00  0.00    -0.420 OA
ATOM      3  N   UNL     1      -4.792   2.921  25.459  0.00  0.00    -0.112 NA
ATOM      4  N   UNL     1      -5.198   1.680  25.004  0.00  0.00    -0.107 NA
ATOM     19  C   UNL     1      -3.577   2.754  25.925  0.00  0.00    +0.218 A 
ATOM     22  C   UNL     1      -4.193   0.868  25.234  0.00  0.00    +0.250 A 
BRANCH  22  25
ATOM      5  N   UNL     1      -3.290  -2.709  25.706  0.00  0.00    -0.263 NA
ATOM     25  C   UNL     1      -4.051  -0.536  24.969  0.00  0.00    +0.057 A 
ATOM     29  C   UNL     1      -4.505  -1.090  23.779  0.00  0.00    +0.016 A 
ATOM     30  C   UNL     1      -3.456  -1.380  25.893  0.00  0.00    +0.124 A 
ATOM     31  C   UNL     1      -4.354  -2.453  23.550  0.00  0.00    +0.020 A 
ATOM     33  C   UNL     1      -3.745  -3.212  24.537  0.00  0.00    +0.111 A 
ENDBRANCH  22  25
ENDBRANCH  15  19
ENDBRANCH  10  15
TORSDOF 9
ENDMDL
MODEL 4
REMARK VINA RESULT:       1.2      1.483      2.035
REMARK  Name = 38030471
REMARK  12 active torsions:
REMARK  status: ('A' for Active; 'I' for Inactive)
REMARK    1  A    between atoms: N_2  and  C_14
REMARK    2  A    between atoms: N_2  and  C_20
REMARK    3  A    between atoms: C_7  and  C_11
REMARK    4  A    between atoms: C_8  and  C_14
REMARK    5  A    between atoms: C_10  and  C_15
REMARK    6  A    between atoms: C_11  and  C_16
REMARK    7  A    between atoms: C_11  and  C_17
REMARK    8  A    between atoms: C_12  and  C_18
REMARK    9  A    between atoms: C_15  and  C_19
REMARK   10  A    between atoms: C_20  and  C_21
REMARK   11  A    between atoms: C_22  and  C_25
REMARK   12  A    between atoms: C_28  and  C_32
REMARK                            x       y       z     vdW  Elec       q    Type
REMARK                         _______ _______ _______ _____ _____    ______ ____
ROOT
ATOM      7  C   UNL     1      -1.792   2.862  24.973  0.00  0.00    +0.000 C 
ATOM      8  C   UNL     1      -3.020   3.790  24.792  0.00  0.00    +0.029 C 
ATOM      9  C   UNL     1      -0.983   2.782  23.669  0.00  0.00    +0.012 C 
ATOM     10  C   UNL     1      -1.824   2.254  22.493  0.00  0.00    +0.024 C 
ATOM     12  C   UNL     1      -3.172   2.942  22.411  0.00  0.00    -0.073 C 
ATOM     13  C   UNL     1      -3.685   3.634  23.444  0.00  0.00    -0.023 C 
ATOM     18  C   UNL     1      -3.899   2.852  21.098  0.00  0.00    +0.039 C 
ENDROOT
BRANCH   7  11
ATOM     11  C   UNL     1      -0.888   3.332  26.117  0.00  0.00    -0.013 C 
ATOM     16  C   UNL     1      -0.144   4.603  25.719  0.00  0.00    +0.007 C 
ATOM     17  C   UNL     1       0.092   2.231  26.507  0.00  0.00    +0.007 C 
ENDBRANCH   7  11
BRANCH   8  14
ATOM     14  C   UNL     1      -4.054   3.563  25.900  0.00  0.00    +0.089 C 
BRANCH  14   2
ATOM      2  N   UNL     1      -5.341   3.198  25.333  0.00  0.00    -0.311 NA
ATOM     34  H   UNL     1      -6.006   3.960  25.457  0.00  0.00    +0.122 HD
BRANCH   2  20
ATOM     20  C   UNL     1      -5.869   1.993  25.962  0.00  0.00    +0.116 C 
BRANCH  20  21
ATOM     21  C   UNL     1      -5.141   0.757  25.504  0.00  0.00    -0.034 A 
ATOM     23  C   UNL     1      -4.288   0.086  26.379  0.00  0.00    +0.006 A 
ATOM     24  C   UNL     1      -5.321   0.284  24.204  0.00  0.00    +0.006 A 
ATOM     26  C   UNL     1      -3.613  -1.060  25.955  0.00  0.00    +0.019 A 
ATOM     27  C   UNL     1      -4.646  -0.861  23.779  0.00  0.00    +0.019 A 
ATOM     28  C   UNL     1      -3.792  -1.532  24.654  0.00  0.00    +0.052 A 
BRANCH  28  32
ATOM      6  N   UNL     1      -2.541  -3.658  23.865  0.00  0.00    -0.191 NA
ATOM     32  C   UNL     1      -3.102  -2.705  24.219  0.00  0.00    +0.099 C 
ENDBRANCH  28  32
ENDBRANCH  20  21
ENDBRANCH   2  20
ENDBRANCH  14   2
ENDBRANCH   8  14
BRANCH  10  15
ATOM     15  C   UNL     1      -1.988   0.733  22.570  0.00  0.00    +0.105 C 
BRANCH  15  19
ATOM      1  O   UNL     1       0.424   0.436  22.797  0.00  0.00    -0.420 OA
ATOM      3  N   UNL     1      -0.787  -0.779  24.232  0.00  0.00    -0.112 NA
ATOM      4  N   UNL     1       0.549  -1.044  24.470  0.00  0.00    -0.107 NA
ATOM     19  C   UNL     1      -0.813   0.088  23.248  0.00  0.00    +0.218 A 
ATOM     22  C   UNL     1       1.218  -0.313  23.610  0.00  0.00    +0.250 A 
BRANCH  22  25
ATOM      5  N   UNL     1       4.481   1.121  22.551  0.00  0.00    -0.263 NA
ATOM     25  C   UNL     1       2.631  -0.184  23.398  0.00  0.00    +0.057 A 
ATOM     29  C   UNL     1       3.511  -1.180  23.807  0.00  0.00    +0.016 A 
ATOM     30  C   UNL     1       3.162   0.937  22.781  0.00  0.00    +0.124 A 
ATOM     31  C   UNL     1       4.876  -1.027  23.588  0.00  0.00    +0.020 A 
ATOM     33  C   UNL     1       5.306   0.131  22.962  0.00  0.00    +0.111 A 
ENDBRANCH  22  25
ENDBRANCH  15  19
ENDBRANCH  10  15
TORSDOF 9
ENDMDL
MODEL 5
REMARK VINA RESULT:       1.4      1.896      5.735
REMARK  Name = 38030471
REMARK  12 active torsions:
REMARK  status: ('A' for Active; 'I' for Inactive)
REMARK    1  A    between atoms: N_2  and  C_14
REMARK    2  A    between atoms: N_2  and  C_20
REMARK    3  A    between atoms: C_7  and  C_11
REMARK    4  A    between atoms: C_8  and  C_14
REMARK    5  A    between atoms: C_10  and  C_15
REMARK    6  A    between atoms: C_11  and  C_16
REMARK    7  A    between atoms: C_11  and  C_17
REMARK    8  A    between atoms: C_12  and  C_18
REMARK    9  A    between atoms: C_15  and  C_19
REMARK   10  A    between atoms: C_20  and  C_21
REMARK   11  A    between atoms: C_22  and  C_25
REMARK   12  A    between atoms: C_28  and  C_32
REMARK                            x       y       z     vdW  Elec       q    Type
REMARK                         _______ _______ _______ _____ _____    ______ ____
ROOT
ATOM      7  C   UNL     1      -4.127   2.618  24.815  0.00  0.00    +0.000 C 
ATOM      8  C   UNL     1      -3.438   2.973  23.474  0.00  0.00    +0.029 C 
ATOM      9  C   UNL     1      -4.300   3.876  25.679  0.00  0.00    +0.012 C 
ATOM     10  C   UNL     1      -2.955   4.559  25.989  0.00  0.00    +0.024 C 
ATOM     12  C   UNL     1      -2.098   4.704  24.748  0.00  0.00    -0.073 C 
ATOM     13  C   UNL     1      -2.336   3.997  23.629  0.00  0.00    -0.023 C 
ATOM     18  C   UNL     1      -0.987   5.715  24.807  0.00  0.00    +0.039 C 
ENDROOT
BRANCH   7  11
ATOM     11  C   UNL     1      -5.488   1.949  24.594  0.00  0.00    -0.013 C 
ATOM     16  C   UNL     1      -6.442   2.296  25.733  0.00  0.00    +0.007 C 
ATOM     17  C   UNL     1      -5.324   0.438  24.467  0.00  0.00    +0.007 C 
ENDBRANCH   7  11
BRANCH   8  14
ATOM     14  C   UNL     1      -2.877   1.721  22.790  0.00  0.00    +0.089 C 
BRANCH  14   2
ATOM      2  N   UNL     1      -1.428   1.787  22.709  0.00  0.00    -0.311 NA
ATOM     34  H   UNL     1      -1.147   2.517  22.057  0.00  0.00    +0.122 HD
BRANCH   2  20
ATOM     20  C   UNL     1      -0.870   0.512  22.271  0.00  0.00    +0.116 C 
BRANCH  20  21
ATOM     21  C   UNL     1       0.618   0.447  22.494  0.00  0.00    -0.034 A 
ATOM     23  C   UNL     1       1.238   1.368  23.338  0.00  0.00    +0.006 A 
ATOM     24  C   UNL     1       1.376  -0.535  21.857  0.00  0.00    +0.006 A 
ATOM     26  C   UNL     1       2.616   1.308  23.544  0.00  0.00    +0.019 A 
ATOM     27  C   UNL     1       2.754  -0.595  22.062  0.00  0.00    +0.019 A 
ATOM     28  C   UNL     1       3.374   0.326  22.906  0.00  0.00    +0.052 A 
BRANCH  28  32
ATOM      6  N   UNL     1       5.933   0.215  23.289  0.00  0.00    -0.191 NA
ATOM     32  C   UNL     1       4.786   0.264  23.117  0.00  0.00    +0.099 C 
ENDBRANCH  28  32
ENDBRANCH  20  21
ENDBRANCH   2  20
ENDBRANCH  14   2
ENDBRANCH   8  14
BRANCH  10  15
ATOM     15  C   UNL     1      -2.199   3.815  27.094  0.00  0.00    +0.105 C 
BRANCH  15  19
ATOM      1  O   UNL     1      -2.245   1.519  26.266  0.00  0.00    -0.420 OA
ATOM      3  N   UNL     1      -0.206   2.438  26.307  0.00  0.00    -0.112 NA
ATOM      4  N   UNL     1      -0.084   1.149  25.822  0.00  0.00    -0.107 NA
ATOM     19  C   UNL     1      -1.483   2.610  26.553  0.00  0.00    +0.218 A 
ATOM     22  C   UNL     1      -1.298   0.652  25.815  0.00  0.00    +0.250 A 
BRANCH  22  25
ATOM      5  N   UNL     1      -1.354  -2.732  24.275  0.00  0.00    -0.263 NA
ATOM     25  C   UNL     1      -1.773  -0.641  25.414  0.00  0.00    +0.057 A 
ATOM     29  C   UNL     1      -3.053  -1.070  25.745  0.00  0.00    +0.016 A 
ATOM     30  C   UNL     1      -0.969  -1.502  24.685  0.00  0.00    +0.124 A 
ATOM     31  C   UNL     1      -3.485  -2.329  25.341  0.00  0.00    +0.020 A 
ATOM     33  C   UNL     1      -2.605  -3.114  24.616  0.00  0.00    +0.111 A 
ENDBRANCH  22  25
ENDBRANCH  15  19
ENDBRANCH  10  15
TORSDOF 9
ENDMDL
MODEL 6
REMARK VINA RESULT:       1.8      2.856      6.226
REMARK  Name = 38030471
REMARK  12 active torsions:
REMARK  status: ('A' for Active; 'I' for Inactive)
REMARK    1  A    between atoms: N_2  and  C_14
REMARK    2  A    between atoms: N_2  and  C_20
REMARK    3  A    between atoms: C_7  and  C_11
REMARK    4  A    between atoms: C_8  and  C_14
REMARK    5  A    between atoms: C_10  and  C_15
REMARK    6  A    between atoms: C_11  and  C_16
REMARK    7  A    between atoms: C_11  and  C_17
REMARK    8  A    between atoms: C_12  and  C_18
REMARK    9  A    between atoms: C_15  and  C_19
REMARK   10  A    between atoms: C_20  and  C_21
REMARK   11  A    between atoms: C_22  and  C_25
REMARK   12  A    between atoms: C_28  and  C_32
REMARK                            x       y       z     vdW  Elec       q    Type
REMARK                         _______ _______ _______ _____ _____    ______ ____
ROOT
ATOM      7  C   UNL     1      -2.961   0.026  25.233  0.00  0.00    +0.000 C 
ATOM      8  C   UNL     1      -2.218  -0.428  23.952  0.00  0.00    +0.029 C 
ATOM      9  C   UNL     1      -4.195   0.866  24.869  0.00  0.00    +0.012 C 
ATOM     10  C   UNL     1      -3.827   2.117  24.050  0.00  0.00    +0.024 C 
ATOM     12  C   UNL     1      -2.874   1.789  22.918  0.00  0.00    -0.073 C 
ATOM     13  C   UNL     1      -2.173   0.641  22.885  0.00  0.00    -0.023 C 
ATOM     18  C   UNL     1      -2.778   2.791  21.802  0.00  0.00    +0.039 C 
ENDROOT
BRANCH   7  11
ATOM     11  C   UNL     1      -3.383  -1.167  26.099  0.00  0.00    -0.013 C 
ATOM     16  C   UNL     1      -2.339  -1.434  27.179  0.00  0.00    +0.007 C 
ATOM     17  C   UNL     1      -3.595  -2.404  25.232  0.00  0.00    +0.007 C 
ENDBRANCH   7  11
BRANCH   8  14
ATOM     14  C   UNL     1      -0.792  -0.889  24.272  0.00  0.00    +0.089 C 
BRANCH  14   2
ATOM      2  N   UNL     1       0.171   0.138  23.914  0.00  0.00    -0.311 NA
ATOM     34  H   UNL     1      -0.304   1.026  23.762  0.00  0.00    +0.122 HD
BRANCH   2  20
ATOM     20  C   UNL     1       0.904  -0.228  22.707  0.00  0.00    +0.116 C 
BRANCH  20  21
ATOM     21  C   UNL     1       2.393  -0.187  22.921  0.00  0.00    -0.034 A 
ATOM     23  C   UNL     1       3.118   0.949  22.560  0.00  0.00    +0.006 A 
ATOM     24  C   UNL     1       3.048  -1.283  23.481  0.00  0.00    +0.006 A 
ATOM     26  C   UNL     1       4.499   0.988  22.759  0.00  0.00    +0.019 A 
ATOM     27  C   UNL     1       4.428  -1.245  23.679  0.00  0.00    +0.019 A 
ATOM     28  C   UNL     1       5.154  -0.110  23.318  0.00  0.00    +0.052 A 
BRANCH  28  32
ATOM      6  N   UNL     1       7.716  -0.039  23.687  0.00  0.00    -0.191 NA
ATOM     32  C   UNL     1       6.567  -0.070  23.522  0.00  0.00    +0.099 C 
ENDBRANCH  28  32
ENDBRANCH  20  21
ENDBRANCH   2  20
ENDBRANCH  14   2
ENDBRANCH   8  14
BRANCH  10  15
ATOM     15  C   UNL     1      -3.253   3.217  24.949  0.00  0.00    +0.105 C 
BRANCH  15  19
ATOM      1  O   UNL     1      -1.365   2.982  26.478  0.00  0.00    -0.420 OA
ATOM      3  N   UNL     1      -0.809   2.881  24.314  0.00  0.00    -0.112 NA
ATOM      4  N   UNL     1       0.347   2.736  25.059  0.00  0.00    -0.107 NA
ATOM     19  C   UNL     1      -1.782   3.022  25.183  0.00  0.00    +0.218 A 
ATOM     22  C   UNL     1      -0.026   2.801  26.316  0.00  0.00    +0.250 A 
BRANCH  22  25
ATOM      5  N   UNL     1       2.892   2.909  28.618  0.00  0.00    -0.263 NA
ATOM     25  C   UNL     1       0.746   2.713  27.522  0.00  0.00    +0.057 A 
ATOM     29  C   UNL     1       0.153   2.363  28.729  0.00  0.00    +0.016 A 
ATOM     30  C   UNL     1       2.107   2.974  27.519  0.00  0.00    +0.124 A 
ATOM     31  C   UNL     1       0.927   2.286  29.882  0.00  0.00    +0.020 A 
ATOM     33  C   UNL     1       2.279   2.566  29.774  0.00  0.00    +0.111 A 
ENDBRANCH  22  25
ENDBRANCH  15  19
ENDBRANCH  10  15
TORSDOF 9
ENDMDL
MODEL 7
REMARK VINA RESULT:       1.9      1.671      6.355
REMARK  Name = 38030471
REMARK  12 active torsions:
REMARK  status: ('A' for Active; 'I' for Inactive)
REMARK    1  A    between atoms: N_2  and  C_14
REMARK    2  A    between atoms: N_2  and  C_20
REMARK    3  A    between atoms: C_7  and  C_11
REMARK    4  A    between atoms: C_8  and  C_14
REMARK    5  A    between atoms: C_10  and  C_15
REMARK    6  A    between atoms: C_11  and  C_16
REMARK    7  A    between atoms: C_11  and  C_17
REMARK    8  A    between atoms: C_12  and  C_18
REMARK    9  A    between atoms: C_15  and  C_19
REMARK   10  A    between atoms: C_20  and  C_21
REMARK   11  A    between atoms: C_22  and  C_25
REMARK   12  A    between atoms: C_28  and  C_32
REMARK                            x       y       z     vdW  Elec       q    Type
REMARK                         _______ _______ _______ _____ _____    ______ ____
ROOT
ATOM      7  C   UNL     1      -2.989   2.710  23.734  0.00  0.00    +0.000 C 
ATOM      8  C   UNL     1      -1.689   3.102  24.481  0.00  0.00    +0.029 C 
ATOM      9  C   UNL     1      -4.070   3.781  23.942  0.00  0.00    +0.012 C 
ATOM     10  C   UNL     1      -4.407   3.987  25.430  0.00  0.00    +0.024 C 
ATOM     12  C   UNL     1      -3.158   4.116  26.277  0.00  0.00    -0.073 C 
ATOM     13  C   UNL     1      -1.950   3.726  25.832  0.00  0.00    -0.023 C 
ATOM     18  C   UNL     1      -3.321   4.742  27.634  0.00  0.00    +0.039 C 
ENDROOT
BRANCH   7  11
ATOM     11  C   UNL     1      -2.743   2.505  22.235  0.00  0.00    -0.013 C 
ATOM     16  C   UNL     1      -3.823   3.207  21.418  0.00  0.00    +0.007 C 
ATOM     17  C   UNL     1      -2.694   1.017  21.903  0.00  0.00    +0.007 C 
ENDBRANCH   7  11
BRANCH   8  14
ATOM     14  C   UNL     1      -0.761   1.894  24.648  0.00  0.00    +0.089 C 
BRANCH  14   2
ATOM      2  N   UNL     1       0.299   1.920  23.655  0.00  0.00    -0.311 NA
ATOM     34  H   UNL     1       0.013   2.478  22.853  0.00  0.00    +0.122 HD
BRANCH   2  20
ATOM     20  C   UNL     1       0.633   0.572  23.208  0.00  0.00    +0.116 C 
BRANCH  20  21
ATOM     21  C   UNL     1       2.120   0.341  23.188  0.00  0.00    -0.034 A 
ATOM     23  C   UNL     1       2.636  -0.911  23.526  0.00  0.00    +0.006 A 
ATOM     24  C   UNL     1       2.983   1.377  22.832  0.00  0.00    +0.006 A 
ATOM     26  C   UNL     1       4.014  -1.125  23.508  0.00  0.00    +0.019 A 
ATOM     27  C   UNL     1       4.361   1.163  22.814  0.00  0.00    +0.019 A 
ATOM     28  C   UNL     1       4.877  -0.088  23.152  0.00  0.00    +0.052 A 
BRANCH  28  32
ATOM      6  N   UNL     1       7.435  -0.487  23.117  0.00  0.00    -0.191 NA
ATOM     32  C   UNL     1       6.288  -0.308  23.133  0.00  0.00    +0.099 C 
ENDBRANCH  28  32
ENDBRANCH  20  21
ENDBRANCH   2  20
ENDBRANCH  14   2
ENDBRANCH   8  14
BRANCH  10  15
ATOM     15  C   UNL     1      -5.312   2.867  25.952  0.00  0.00    +0.105 C 
BRANCH  15  19
ATOM      1  O   UNL     1      -3.812   0.975  25.602  0.00  0.00    -0.420 OA
ATOM      3  N   UNL     1      -5.714   0.863  24.432  0.00  0.00    -0.112 NA
ATOM      4  N   UNL     1      -4.966  -0.262  24.139  0.00  0.00    -0.107 NA
ATOM     19  C   UNL     1      -5.002   1.556  25.288  0.00  0.00    +0.218 A 
ATOM     22  C   UNL     1      -3.865  -0.154  24.845  0.00  0.00    +0.250 A 
BRANCH  22  25
ATOM      5  N   UNL     1      -0.556  -1.492  25.888  0.00  0.00    -0.263 NA
ATOM     25  C   UNL     1      -2.730  -1.027  24.939  0.00  0.00    +0.057 A 
ATOM     29  C   UNL     1      -2.675  -2.212  24.214  0.00  0.00    +0.016 A 
ATOM     30  C   UNL     1      -1.655  -0.715  25.755  0.00  0.00    +0.124 A 
ATOM     31  C   UNL     1      -1.562  -3.038  24.325  0.00  0.00    +0.020 A 
ATOM     33  C   UNL     1      -0.539  -2.636  25.168  0.00  0.00    +0.111 A 
ENDBRANCH  22  25
ENDBRANCH  15  19
ENDBRANCH  10  15
TORSDOF 9
ENDMDL
MODEL 8
REMARK VINA RESULT:       2.3      1.788      6.858
REMARK  Name = 38030471
REMARK  12 active torsions:
REMARK  status: ('A' for Active; 'I' for Inactive)
REMARK    1  A    between atoms: N_2  and  C_14
REMARK    2  A    between atoms: N_2  and  C_20
REMARK    3  A    between atoms: C_7  and  C_11
REMARK    4  A    between atoms: C_8  and  C_14
REMARK    5  A    between atoms: C_10  and  C_15
REMARK    6  A    between atoms: C_11  and  C_16
REMARK    7  A    between atoms: C_11  and  C_17
REMARK    8  A    between atoms: C_12  and  C_18
REMARK    9  A    between atoms: C_15  and  C_19
REMARK   10  A    between atoms: C_20  and  C_21
REMARK   11  A    between atoms: C_22  and  C_25
REMARK   12  A    between atoms: C_28  and  C_32
REMARK                            x       y       z     vdW  Elec       q    Type
REMARK                         _______ _______ _______ _____ _____    ______ ____
ROOT
ATOM      7  C   UNL     1      -1.954  -0.586  25.577  0.00  0.00    +0.000 C 
ATOM      8  C   UNL     1      -1.160  -1.858  25.185  0.00  0.00    +0.029 C 
ATOM      9  C   UNL     1      -3.387  -0.954  25.988  0.00  0.00    +0.012 C 
ATOM     10  C   UNL     1      -4.149  -1.676  24.862  0.00  0.00    +0.024 C 
ATOM     12  C   UNL     1      -3.320  -2.781  24.240  0.00  0.00    -0.073 C 
ATOM     13  C   UNL     1      -1.988  -2.854  24.405  0.00  0.00    -0.023 C 
ATOM     18  C   UNL     1      -4.065  -3.828  23.458  0.00  0.00    +0.039 C 
ENDROOT
BRANCH   7  11
ATOM     11  C   UNL     1      -1.269   0.184  26.712  0.00  0.00    -0.013 C 
ATOM     16  C   UNL     1      -0.390   1.294  26.146  0.00  0.00    +0.007 C 
ATOM     17  C   UNL     1      -0.450  -0.766  27.580  0.00  0.00    +0.007 C 
ENDBRANCH   7  11
BRANCH   8  14
ATOM     14  C   UNL     1       0.097  -1.502  24.384  0.00  0.00    +0.089 C 
BRANCH  14   2
ATOM      2  N   UNL     1      -0.256  -0.827  23.148  0.00  0.00    -0.311 NA
ATOM     34  H   UNL     1      -0.022  -1.415  22.349  0.00  0.00    +0.122 HD
BRANCH   2  20
ATOM     20  C   UNL     1       0.442   0.448  23.028  0.00  0.00    +0.116 C 
BRANCH  20  21
ATOM     21  C   UNL     1       1.937   0.274  23.077  0.00  0.00    -0.034 A 
ATOM     23  C   UNL     1       2.484  -0.966  23.407  0.00  0.00    +0.006 A 
ATOM     24  C   UNL     1       2.774   1.353  22.793  0.00  0.00    +0.006 A 
ATOM     26  C   UNL     1       3.869  -1.127  23.453  0.00  0.00    +0.019 A 
ATOM     27  C   UNL     1       4.159   1.192  22.839  0.00  0.00    +0.019 A 
ATOM     28  C   UNL     1       4.706  -0.047  23.169  0.00  0.00    +0.052 A 
BRANCH  28  32
ATOM      6  N   UNL     1       7.277  -0.346  23.254  0.00  0.00    -0.191 NA
ATOM     32  C   UNL     1       6.125  -0.212  23.215  0.00  0.00    +0.099 C 
ENDBRANCH  28  32
ENDBRANCH  20  21
ENDBRANCH   2  20
ENDBRANCH  14   2
ENDBRANCH   8  14
BRANCH  10  15
ATOM     15  C   UNL     1      -4.631  -0.685  23.797  0.00  0.00    +0.105 C 
BRANCH  15  19
ATOM      1  O   UNL     1      -3.382   1.385  24.129  0.00  0.00    -0.420 OA
ATOM      3  N   UNL     1      -5.488   1.456  24.878  0.00  0.00    -0.112 NA
ATOM      4  N   UNL     1      -4.904   2.684  25.130  0.00  0.00    -0.107 NA
ATOM     19  C   UNL     1      -4.564   0.731  24.295  0.00  0.00    +0.218 A 
ATOM     22  C   UNL     1      -3.676   2.596  24.676  0.00  0.00    +0.250 A 
BRANCH  22  25
ATOM      5  N   UNL     1      -0.381   4.169  23.973  0.00  0.00    -0.263 NA
ATOM     25  C   UNL     1      -2.615   3.563  24.668  0.00  0.00    +0.057 A 
ATOM     29  C   UNL     1      -2.756   4.787  25.310  0.00  0.00    +0.016 A 
ATOM     30  C   UNL     1      -1.419   3.304  24.018  0.00  0.00    +0.124 A 
ATOM     31  C   UNL     1      -1.711   5.704  25.285  0.00  0.00    +0.020 A 
ATOM     33  C   UNL     1      -0.555   5.350  24.609  0.00  0.00    +0.111 A 
ENDBRANCH  22  25
ENDBRANCH  15  19
ENDBRANCH  10  15
TORSDOF 9
ENDMDL
