MODEL 1
REMARK VINA RESULT:      -7.7      0.000      0.000
REMARK  Name = 71693803
REMARK  7 active torsions:
REMARK  status: ('A' for Active; 'I' for Inactive)
REMARK    1  A    between atoms: S_1  and  N_6
REMARK    2  A    between atoms: S_1  and  C_17
REMARK    3  A    between atoms: O_2  and  C_9
REMARK    4  A    between atoms: O_3  and  C_11
REMARK    5  A    between atoms: N_6  and  C_8
REMARK    6  A    between atoms: C_7  and  C_12
REMARK    7  A    between atoms: C_13  and  C_16
REMARK                            x       y       z     vdW  Elec       q    Type
REMARK                         _______ _______ _______ _____ _____    ______ ____
ROOT
ATOM      7  C   UNL     1      -2.293   1.441  24.365  0.00  0.00    +0.043 C 
ATOM      8  C   UNL     1      -1.331   1.261  25.557  0.00  0.00    +0.115 C 
ATOM      9  C   UNL     1       0.023   1.688  24.997  0.00  0.00    +0.162 C 
ATOM     10  C   UNL     1      -1.615   2.477  23.432  0.00  0.00    +0.043 C 
ATOM     11  C   UNL     1      -0.328   2.898  24.140  0.00  0.00    +0.145 C 
ENDROOT
BRANCH   7  12
ATOM     12  C   UNL     1      -3.698   1.814  24.791  0.00  0.00    -0.040 A 
ATOM     13  C   UNL     1      -4.730   0.875  24.763  0.00  0.00    -0.047 A 
ATOM     14  C   UNL     1      -3.953   3.116  25.219  0.00  0.00    +0.004 A 
ATOM     15  C   UNL     1      -6.016   1.240  25.160  0.00  0.00    +0.003 A 
ATOM     16  C   UNL     1      -4.480  -0.526  24.308  0.00  0.00    +0.044 C 
ATOM     18  C   UNL     1      -5.239   3.481  25.616  0.00  0.00    +0.000 A 
ATOM     19  C   UNL     1      -6.271   2.543  25.587  0.00  0.00    +0.000 A 
ENDBRANCH   7  12
BRANCH   9   2
ATOM      2  O   UNL     1       0.940   2.034  26.018  0.00  0.00    -0.388 OA
ATOM     21  H   UNL     1       1.794   1.629  25.791  0.00  0.00    +0.210 HD
ENDBRANCH   9   2
BRANCH  11   3
ATOM      3  O   UNL     1      -0.605   4.035  24.952  0.00  0.00    -0.389 OA
ATOM     22  H   UNL     1      -1.256   4.581  24.477  0.00  0.00    +0.210 HD
ENDBRANCH  11   3
BRANCH   8   6
ATOM      6  N   UNL     1      -1.285  -0.163  25.967  0.00  0.00    -0.189 NA
ATOM     20  H   UNL     1      -1.454  -0.388  26.955  0.00  0.00    +0.148 HD
BRANCH   6   1
ATOM      1  S   UNL     1      -0.554  -1.298  24.928  0.00  0.00    +0.027 S 
ATOM      4  O   UNL     1       0.343  -2.152  25.681  0.00  0.00    -0.158 OA
ATOM      5  O   UNL     1      -0.094  -0.598  23.744  0.00  0.00    -0.158 OA
ATOM     17  C   UNL     1      -1.967  -2.268  24.456  0.00  0.00    +0.214 C 
ENDBRANCH   6   1
ENDBRANCH   8   6
TORSDOF 5
ENDMDL
MODEL 2
REMARK VINA RESULT:      -7.6      1.877      2.672
REMARK  Name = 71693803
REMARK  7 active torsions:
REMARK  status: ('A' for Active; 'I' for Inactive)
REMARK    1  A    between atoms: S_1  and  N_6
REMARK    2  A    between atoms: S_1  and  C_17
REMARK    3  A    between atoms: O_2  and  C_9
REMARK    4  A    between atoms: O_3  and  C_11
REMARK    5  A    between atoms: N_6  and  C_8
REMARK    6  A    between atoms: C_7  and  C_12
REMARK    7  A    between atoms: C_13  and  C_16
REMARK                            x       y       z     vdW  Elec       q    Type
REMARK                         _______ _______ _______ _____ _____    ______ ____
ROOT
ATOM      7  C   UNL     1      -2.179   1.770  23.841  0.00  0.00    +0.043 C 
ATOM      8  C   UNL     1      -1.879   0.365  24.404  0.00  0.00    +0.115 C 
ATOM      9  C   UNL     1      -0.372   0.216  24.217  0.00  0.00    +0.162 C 
ATOM     10  C   UNL     1      -0.841   2.550  23.925  0.00  0.00    +0.043 C 
ATOM     11  C   UNL     1       0.157   1.598  24.582  0.00  0.00    +0.145 C 
ENDROOT
BRANCH   7  12
ATOM     12  C   UNL     1      -3.340   2.449  24.538  0.00  0.00    -0.040 A 
ATOM     13  C   UNL     1      -3.180   3.690  25.156  0.00  0.00    -0.047 A 
ATOM     14  C   UNL     1      -4.583   1.818  24.555  0.00  0.00    +0.004 A 
ATOM     15  C   UNL     1      -4.262   4.298  25.792  0.00  0.00    +0.003 A 
ATOM     16  C   UNL     1      -1.858   4.385  25.150  0.00  0.00    +0.044 C 
ATOM     18  C   UNL     1      -5.665   2.426  25.191  0.00  0.00    +0.000 A 
ATOM     19  C   UNL     1      -5.505   3.665  25.809  0.00  0.00    +0.000 A 
ENDBRANCH   7  12
BRANCH   9   2
ATOM      2  O   UNL     1       0.176  -0.779  25.061  0.00  0.00    -0.388 OA
ATOM     21  H   UNL     1       0.839  -1.267  24.543  0.00  0.00    +0.210 HD
ENDBRANCH   9   2
BRANCH  11   3
ATOM      3  O   UNL     1       0.123   1.802  25.991  0.00  0.00    -0.389 OA
ATOM     22  H   UNL     1       0.850   2.408  26.216  0.00  0.00    +0.210 HD
ENDBRANCH  11   3
BRANCH   8   6
ATOM      6  N   UNL     1      -2.594  -0.666  23.614  0.00  0.00    -0.189 NA
ATOM     20  H   UNL     1      -2.992  -0.392  22.708  0.00  0.00    +0.148 HD
BRANCH   6   1
ATOM      1  S   UNL     1      -3.097  -2.097  24.390  0.00  0.00    +0.027 S 
ATOM      4  O   UNL     1      -1.975  -3.004  24.530  0.00  0.00    -0.158 OA
ATOM      5  O   UNL     1      -4.335  -2.536  23.773  0.00  0.00    -0.158 OA
ATOM     17  C   UNL     1      -3.501  -1.471  26.004  0.00  0.00    +0.214 C 
ENDBRANCH   6   1
ENDBRANCH   8   6
TORSDOF 5
ENDMDL
MODEL 3
REMARK VINA RESULT:      -7.3      1.865      2.563
REMARK  Name = 71693803
REMARK  7 active torsions:
REMARK  status: ('A' for Active; 'I' for Inactive)
REMARK    1  A    between atoms: S_1  and  N_6
REMARK    2  A    between atoms: S_1  and  C_17
REMARK    3  A    between atoms: O_2  and  C_9
REMARK    4  A    between atoms: O_3  and  C_11
REMARK    5  A    between atoms: N_6  and  C_8
REMARK    6  A    between atoms: C_7  and  C_12
REMARK    7  A    between atoms: C_13  and  C_16
REMARK                            x       y       z     vdW  Elec       q    Type
REMARK                         _______ _______ _______ _____ _____    ______ ____
ROOT
ATOM      7  C   UNL     1      -2.248   1.031  24.209  0.00  0.00    +0.043 C 
ATOM      8  C   UNL     1      -1.624   0.041  25.216  0.00  0.00    +0.115 C 
ATOM      9  C   UNL     1      -0.582  -0.706  24.388  0.00  0.00    +0.162 C 
ATOM     10  C   UNL     1      -1.184   1.224  23.097  0.00  0.00    +0.043 C 
ATOM     11  C   UNL     1       0.025   0.395  23.527  0.00  0.00    +0.145 C 
ENDROOT
BRANCH   7  12
ATOM     12  C   UNL     1      -2.710   2.319  24.858  0.00  0.00    -0.040 A 
ATOM     13  C   UNL     1      -4.062   2.543  25.123  0.00  0.00    -0.047 A 
ATOM     14  C   UNL     1      -1.764   3.287  25.193  0.00  0.00    +0.004 A 
ATOM     15  C   UNL     1      -4.466   3.737  25.722  0.00  0.00    +0.003 A 
ATOM     16  C   UNL     1      -5.093   1.521  24.774  0.00  0.00    +0.044 C 
ATOM     18  C   UNL     1      -2.169   4.480  25.791  0.00  0.00    +0.000 A 
ATOM     19  C   UNL     1      -3.520   4.705  26.056  0.00  0.00    +0.000 A 
ENDBRANCH   7  12
BRANCH   9   2
ATOM      2  O   UNL     1       0.402  -1.322  25.198  0.00  0.00    -0.388 OA
ATOM     21  H   UNL     1       0.937  -1.894  24.621  0.00  0.00    +0.210 HD
ENDBRANCH   9   2
BRANCH  11   3
ATOM      3  O   UNL     1       0.896   1.222  24.294  0.00  0.00    -0.389 OA
ATOM     22  H   UNL     1       0.341   1.843  24.797  0.00  0.00    +0.210 HD
ENDBRANCH  11   3
BRANCH   8   6
ATOM      6  N   UNL     1      -2.654  -0.904  25.709  0.00  0.00    -0.189 NA
ATOM     20  H   UNL     1      -2.956  -0.823  26.687  0.00  0.00    +0.148 HD
BRANCH   6   1
ATOM      1  S   UNL     1      -2.976  -2.316  24.812  0.00  0.00    +0.027 S 
ATOM      4  O   UNL     1      -3.531  -3.337  25.679  0.00  0.00    -0.158 OA
ATOM      5  O   UNL     1      -1.823  -2.596  23.978  0.00  0.00    -0.158 OA
ATOM     17  C   UNL     1      -4.275  -1.737  23.746  0.00  0.00    +0.214 C 
ENDBRANCH   6   1
ENDBRANCH   8   6
TORSDOF 5
ENDMDL
MODEL 4
REMARK VINA RESULT:      -7.1      2.414      4.181
REMARK  Name = 71693803
REMARK  7 active torsions:
REMARK  status: ('A' for Active; 'I' for Inactive)
REMARK    1  A    between atoms: S_1  and  N_6
REMARK    2  A    between atoms: S_1  and  C_17
REMARK    3  A    between atoms: O_2  and  C_9
REMARK    4  A    between atoms: O_3  and  C_11
REMARK    5  A    between atoms: N_6  and  C_8
REMARK    6  A    between atoms: C_7  and  C_12
REMARK    7  A    between atoms: C_13  and  C_16
REMARK                            x       y       z     vdW  Elec       q    Type
REMARK                         _______ _______ _______ _____ _____    ______ ____
ROOT
ATOM      7  C   UNL     1      -2.365   1.005  24.055  0.00  0.00    +0.043 C 
ATOM      8  C   UNL     1      -2.536   1.764  25.387  0.00  0.00    +0.115 C 
ATOM      9  C   UNL     1      -2.861   3.189  24.952  0.00  0.00    +0.162 C 
ATOM     10  C   UNL     1      -3.154   1.825  23.001  0.00  0.00    +0.043 C 
ATOM     11  C   UNL     1      -3.795   2.981  23.766  0.00  0.00    +0.145 C 
ENDROOT
BRANCH   7  12
ATOM     12  C   UNL     1      -2.776  -0.450  24.147  0.00  0.00    -0.040 A 
ATOM     13  C   UNL     1      -1.849  -1.438  24.480  0.00  0.00    -0.047 A 
ATOM     14  C   UNL     1      -4.103  -0.796  23.894  0.00  0.00    +0.004 A 
ATOM     15  C   UNL     1      -2.250  -2.772  24.559  0.00  0.00    +0.003 A 
ATOM     16  C   UNL     1      -0.423  -1.092  24.755  0.00  0.00    +0.044 C 
ATOM     18  C   UNL     1      -4.503  -2.130  23.973  0.00  0.00    +0.000 A 
ATOM     19  C   UNL     1      -3.577  -3.118  24.306  0.00  0.00    +0.000 A 
ENDBRANCH   7  12
BRANCH   9   2
ATOM      2  O   UNL     1      -3.495   3.931  25.977  0.00  0.00    -0.388 OA
ATOM     21  H   UNL     1      -3.855   4.738  25.572  0.00  0.00    +0.210 HD
ENDBRANCH   9   2
BRANCH  11   3
ATOM      3  O   UNL     1      -5.090   2.578  24.201  0.00  0.00    -0.389 OA
ATOM     22  H   UNL     1      -5.695   3.325  24.050  0.00  0.00    +0.210 HD
ENDBRANCH  11   3
BRANCH   8   6
ATOM      6  N   UNL     1      -1.269   1.742  26.156  0.00  0.00    -0.189 NA
ATOM     20  H   UNL     1      -1.262   1.267  27.066  0.00  0.00    +0.148 HD
BRANCH   6   1
ATOM      1  S   UNL     1      -0.030   2.832  25.734  0.00  0.00    +0.027 S 
ATOM      4  O   UNL     1       1.021   2.798  26.732  0.00  0.00    -0.158 OA
ATOM      5  O   UNL     1      -0.643   4.088  25.344  0.00  0.00    -0.158 OA
ATOM     17  C   UNL     1       0.593   2.065  24.256  0.00  0.00    +0.214 C 
ENDBRANCH   6   1
ENDBRANCH   8   6
TORSDOF 5
ENDMDL
MODEL 5
REMARK VINA RESULT:      -6.6      2.251      4.577
REMARK  Name = 71693803
REMARK  7 active torsions:
REMARK  status: ('A' for Active; 'I' for Inactive)
REMARK    1  A    between atoms: S_1  and  N_6
REMARK    2  A    between atoms: S_1  and  C_17
REMARK    3  A    between atoms: O_2  and  C_9
REMARK    4  A    between atoms: O_3  and  C_11
REMARK    5  A    between atoms: N_6  and  C_8
REMARK    6  A    between atoms: C_7  and  C_12
REMARK    7  A    between atoms: C_13  and  C_16
REMARK                            x       y       z     vdW  Elec       q    Type
REMARK                         _______ _______ _______ _____ _____    ______ ____
ROOT
ATOM      7  C   UNL     1      -1.917   1.071  25.385  0.00  0.00    +0.043 C 
ATOM      8  C   UNL     1      -1.849   2.023  24.172  0.00  0.00    +0.115 C 
ATOM      9  C   UNL     1      -0.850   3.091  24.608  0.00  0.00    +0.162 C 
ATOM     10  C   UNL     1      -0.586   1.277  26.154  0.00  0.00    +0.043 C 
ATOM     11  C   UNL     1       0.219   2.285  25.335  0.00  0.00    +0.145 C 
ENDROOT
BRANCH   7  12
ATOM     12  C   UNL     1      -2.192  -0.366  24.992  0.00  0.00    -0.040 A 
ATOM     13  C   UNL     1      -3.499  -0.850  24.911  0.00  0.00    -0.047 A 
ATOM     14  C   UNL     1      -1.119  -1.208  24.707  0.00  0.00    +0.004 A 
ATOM     15  C   UNL     1      -3.730  -2.176  24.547  0.00  0.00    +0.003 A 
ATOM     16  C   UNL     1      -4.665   0.034  25.211  0.00  0.00    +0.044 C 
ATOM     18  C   UNL     1      -1.350  -2.535  24.343  0.00  0.00    +0.000 A 
ATOM     19  C   UNL     1      -2.656  -3.019  24.263  0.00  0.00    +0.000 A 
ENDBRANCH   7  12
BRANCH   9   2
ATOM      2  O   UNL     1      -0.301   3.791  23.507  0.00  0.00    -0.388 OA
ATOM     21  H   UNL     1      -0.830   4.598  23.382  0.00  0.00    +0.210 HD
ENDBRANCH   9   2
BRANCH  11   3
ATOM      3  O   UNL     1       1.037   1.573  24.412  0.00  0.00    -0.389 OA
ATOM     22  H   UNL     1       1.937   1.545  24.781  0.00  0.00    +0.210 HD
ENDBRANCH  11   3
BRANCH   8   6
ATOM      6  N   UNL     1      -3.177   2.637  23.929  0.00  0.00    -0.189 NA
ATOM     20  H   UNL     1      -3.640   2.448  23.033  0.00  0.00    +0.148 HD
BRANCH   6   1
ATOM      1  S   UNL     1      -3.679   3.933  24.914  0.00  0.00    +0.027 S 
ATOM      4  O   UNL     1      -3.833   5.132  24.113  0.00  0.00    -0.158 OA
ATOM      5  O   UNL     1      -2.858   3.939  26.110  0.00  0.00    -0.158 OA
ATOM     17  C   UNL     1      -5.300   3.377  25.385  0.00  0.00    +0.214 C 
ENDBRANCH   6   1
ENDBRANCH   8   6
TORSDOF 5
ENDMDL
MODEL 6
REMARK VINA RESULT:      -6.5      2.590      4.900
REMARK  Name = 71693803
REMARK  7 active torsions:
REMARK  status: ('A' for Active; 'I' for Inactive)
REMARK    1  A    between atoms: S_1  and  N_6
REMARK    2  A    between atoms: S_1  and  C_17
REMARK    3  A    between atoms: O_2  and  C_9
REMARK    4  A    between atoms: O_3  and  C_11
REMARK    5  A    between atoms: N_6  and  C_8
REMARK    6  A    between atoms: C_7  and  C_12
REMARK    7  A    between atoms: C_13  and  C_16
REMARK                            x       y       z     vdW  Elec       q    Type
REMARK                         _______ _______ _______ _____ _____    ______ ____
ROOT
ATOM      7  C   UNL     1      -3.854   1.082  24.185  0.00  0.00    +0.043 C 
ATOM      8  C   UNL     1      -3.655   2.381  24.994  0.00  0.00    +0.115 C 
ATOM      9  C   UNL     1      -5.047   3.003  25.027  0.00  0.00    +0.162 C 
ATOM     10  C   UNL     1      -5.360   0.733  24.318  0.00  0.00    +0.043 C 
ATOM     11  C   UNL     1      -5.956   1.798  25.237  0.00  0.00    +0.145 C 
ENDROOT
BRANCH   7  12
ATOM     12  C   UNL     1      -2.919  -0.029  24.612  0.00  0.00    -0.040 A 
ATOM     13  C   UNL     1      -3.233  -1.366  24.368  0.00  0.00    -0.047 A 
ATOM     14  C   UNL     1      -1.727   0.299  25.258  0.00  0.00    +0.004 A 
ATOM     15  C   UNL     1      -2.357  -2.374  24.770  0.00  0.00    +0.003 A 
ATOM     16  C   UNL     1      -4.504  -1.742  23.678  0.00  0.00    +0.044 C 
ATOM     18  C   UNL     1      -0.851  -0.709  25.660  0.00  0.00    +0.000 A 
ATOM     19  C   UNL     1      -1.165  -2.045  25.416  0.00  0.00    +0.000 A 
ENDBRANCH   7  12
BRANCH   9   2
ATOM      2  O   UNL     1      -5.190   3.939  26.079  0.00  0.00    -0.388 OA
ATOM     21  H   UNL     1      -5.017   4.822  25.709  0.00  0.00    +0.210 HD
ENDBRANCH   9   2
BRANCH  11   3
ATOM      3  O   UNL     1      -5.884   1.332  26.581  0.00  0.00    -0.389 OA
ATOM     22  H   UNL     1      -6.785   1.360  26.948  0.00  0.00    +0.210 HD
ENDBRANCH  11   3
BRANCH   8   6
ATOM      6  N   UNL     1      -2.711   3.282  24.289  0.00  0.00    -0.189 NA
ATOM     20  H   UNL     1      -2.729   3.295  23.262  0.00  0.00    +0.148 HD
BRANCH   6   1
ATOM      1  S   UNL     1      -1.383   3.917  25.145  0.00  0.00    +0.027 S 
ATOM      4  O   UNL     1      -1.284   3.285  26.446  0.00  0.00    -0.158 OA
ATOM      5  O   UNL     1      -1.413   5.363  25.023  0.00  0.00    -0.158 OA
ATOM     17  C   UNL     1      -0.037   3.328  24.145  0.00  0.00    +0.214 C 
ENDBRANCH   6   1
ENDBRANCH   8   6
TORSDOF 5
ENDMDL
MODEL 7
REMARK VINA RESULT:      -6.1      2.500      4.542
REMARK  Name = 71693803
REMARK  7 active torsions:
REMARK  status: ('A' for Active; 'I' for Inactive)
REMARK    1  A    between atoms: S_1  and  N_6
REMARK    2  A    between atoms: S_1  and  C_17
REMARK    3  A    between atoms: O_2  and  C_9
REMARK    4  A    between atoms: O_3  and  C_11
REMARK    5  A    between atoms: N_6  and  C_8
REMARK    6  A    between atoms: C_7  and  C_12
REMARK    7  A    between atoms: C_13  and  C_16
REMARK                            x       y       z     vdW  Elec       q    Type
REMARK                         _______ _______ _______ _____ _____    ______ ____
ROOT
ATOM      7  C   UNL     1      -1.858   0.771  25.627  0.00  0.00    +0.043 C 
ATOM      8  C   UNL     1      -2.379   2.085  25.007  0.00  0.00    +0.115 C 
ATOM      9  C   UNL     1      -1.183   3.028  25.101  0.00  0.00    +0.162 C 
ATOM     10  C   UNL     1      -0.315   0.825  25.487  0.00  0.00    +0.043 C 
ATOM     11  C   UNL     1      -0.007   2.126  24.747  0.00  0.00    +0.145 C 
ENDROOT
BRANCH   7  12
ATOM     12  C   UNL     1      -2.495  -0.461  25.019  0.00  0.00    -0.040 A 
ATOM     13  C   UNL     1      -1.797  -1.666  24.942  0.00  0.00    -0.047 A 
ATOM     14  C   UNL     1      -3.800  -0.380  24.533  0.00  0.00    +0.004 A 
ATOM     15  C   UNL     1      -2.402  -2.789  24.378  0.00  0.00    +0.003 A 
ATOM     16  C   UNL     1      -0.398  -1.777  25.456  0.00  0.00    +0.044 C 
ATOM     18  C   UNL     1      -4.406  -1.503  23.970  0.00  0.00    +0.000 A 
ATOM     19  C   UNL     1      -3.707  -2.708  23.892  0.00  0.00    +0.000 A 
ENDBRANCH   7  12
BRANCH   9   2
ATOM      2  O   UNL     1      -1.285   4.113  24.198  0.00  0.00    -0.388 OA
ATOM     21  H   UNL     1      -0.675   4.805  24.506  0.00  0.00    +0.210 HD
ENDBRANCH   9   2
BRANCH  11   3
ATOM      3  O   UNL     1       0.027   1.857  23.348  0.00  0.00    -0.389 OA
ATOM     22  H   UNL     1      -0.680   1.217  23.157  0.00  0.00    +0.210 HD
ENDBRANCH  11   3
BRANCH   8   6
ATOM      6  N   UNL     1      -3.509   2.615  25.807  0.00  0.00    -0.189 NA
ATOM     20  H   UNL     1      -3.606   2.297  26.779  0.00  0.00    +0.148 HD
BRANCH   6   1
ATOM      1  S   UNL     1      -4.811   3.362  25.001  0.00  0.00    +0.027 S 
ATOM      4  O   UNL     1      -4.421   3.712  23.649  0.00  0.00    -0.158 OA
ATOM      5  O   UNL     1      -5.385   4.355  25.889  0.00  0.00    -0.158 OA
ATOM     17  C   UNL     1      -5.958   2.007  24.907  0.00  0.00    +0.214 C 
ENDBRANCH   6   1
ENDBRANCH   8   6
TORSDOF 5
ENDMDL
MODEL 8
REMARK VINA RESULT:      -5.7     16.048     18.740
REMARK  Name = 71693803
REMARK  7 active torsions:
REMARK  status: ('A' for Active; 'I' for Inactive)
REMARK    1  A    between atoms: S_1  and  N_6
REMARK    2  A    between atoms: S_1  and  C_17
REMARK    3  A    between atoms: O_2  and  C_9
REMARK    4  A    between atoms: O_3  and  C_11
REMARK    5  A    between atoms: N_6  and  C_8
REMARK    6  A    between atoms: C_7  and  C_12
REMARK    7  A    between atoms: C_13  and  C_16
REMARK                            x       y       z     vdW  Elec       q    Type
REMARK                         _______ _______ _______ _____ _____    ______ ____
ROOT
ATOM      7  C   UNL     1      13.560   7.362  19.955  0.00  0.00    +0.043 C 
ATOM      8  C   UNL     1      12.609   8.565  19.785  0.00  0.00    +0.115 C 
ATOM      9  C   UNL     1      11.226   7.970  20.034  0.00  0.00    +0.162 C 
ATOM     10  C   UNL     1      12.795   6.344  20.840  0.00  0.00    +0.043 C 
ATOM     11  C   UNL     1      11.469   7.014  21.196  0.00  0.00    +0.145 C 
ENDROOT
BRANCH   7  12
ATOM     12  C   UNL     1      14.920   7.756  20.493  0.00  0.00    -0.040 A 
ATOM     13  C   UNL     1      16.087   7.191  19.977  0.00  0.00    -0.047 A 
ATOM     14  C   UNL     1      14.996   8.699  21.517  0.00  0.00    +0.004 A 
ATOM     15  C   UNL     1      17.329   7.568  20.487  0.00  0.00    +0.003 A 
ATOM     16  C   UNL     1      16.030   6.179  18.880  0.00  0.00    +0.044 C 
ATOM     18  C   UNL     1      16.238   9.076  22.027  0.00  0.00    +0.000 A 
ATOM     19  C   UNL     1      17.405   8.511  21.512  0.00  0.00    +0.000 A 
ENDBRANCH   7  12
BRANCH   9   2
ATOM      2  O   UNL     1      10.272   8.958  20.376  0.00  0.00    -0.388 OA
ATOM     21  H   UNL     1      10.758   9.717  20.742  0.00  0.00    +0.210 HD
ENDBRANCH   9   2
BRANCH  11   3
ATOM      3  O   UNL     1      11.631   7.727  22.418  0.00  0.00    -0.389 OA
ATOM     22  H   UNL     1      11.431   8.662  22.240  0.00  0.00    +0.210 HD
ENDBRANCH  11   3
BRANCH   8   6
ATOM      6  N   UNL     1      12.694   9.094  18.403  0.00  0.00    -0.189 NA
ATOM     20  H   UNL     1      12.574  10.104  18.263  0.00  0.00    +0.148 HD
BRANCH   6   1
ATOM      1  S   UNL     1      12.555   8.011  17.095  0.00  0.00    +0.027 S 
ATOM      4  O   UNL     1      11.552   7.006  17.390  0.00  0.00    -0.158 OA
ATOM      5  O   UNL     1      13.891   7.626  16.680  0.00  0.00    -0.158 OA
ATOM     17  C   UNL     1      11.900   9.089  15.844  0.00  0.00    +0.214 C 
ENDBRANCH   6   1
ENDBRANCH   8   6
TORSDOF 5
ENDMDL
MODEL 9
REMARK VINA RESULT:      -5.3      2.160      3.958
REMARK  Name = 71693803
REMARK  7 active torsions:
REMARK  status: ('A' for Active; 'I' for Inactive)
REMARK    1  A    between atoms: S_1  and  N_6
REMARK    2  A    between atoms: S_1  and  C_17
REMARK    3  A    between atoms: O_2  and  C_9
REMARK    4  A    between atoms: O_3  and  C_11
REMARK    5  A    between atoms: N_6  and  C_8
REMARK    6  A    between atoms: C_7  and  C_12
REMARK    7  A    between atoms: C_13  and  C_16
REMARK                            x       y       z     vdW  Elec       q    Type
REMARK                         _______ _______ _______ _____ _____    ______ ____
ROOT
ATOM      7  C   UNL     1      -3.768   1.279  24.296  0.00  0.00    +0.043 C 
ATOM      8  C   UNL     1      -2.819   2.285  24.981  0.00  0.00    +0.115 C 
ATOM      9  C   UNL     1      -3.610   3.590  24.973  0.00  0.00    +0.162 C 
ATOM     10  C   UNL     1      -5.194   1.859  24.476  0.00  0.00    +0.043 C 
ATOM     11  C   UNL     1      -5.026   3.134  25.300  0.00  0.00    +0.145 C 
ENDROOT
BRANCH   7  12
ATOM     12  C   UNL     1      -3.601  -0.135  24.813  0.00  0.00    -0.040 A 
ATOM     13  C   UNL     1      -3.694  -1.229  23.953  0.00  0.00    -0.047 A 
ATOM     14  C   UNL     1      -3.351  -0.335  26.170  0.00  0.00    +0.004 A 
ATOM     15  C   UNL     1      -3.538  -2.523  24.450  0.00  0.00    +0.003 A 
ATOM     16  C   UNL     1      -3.962  -1.040  22.496  0.00  0.00    +0.044 C 
ATOM     18  C   UNL     1      -3.194  -1.629  26.667  0.00  0.00    +0.000 A 
ATOM     19  C   UNL     1      -3.288  -2.723  25.808  0.00  0.00    +0.000 A 
ENDBRANCH   7  12
BRANCH   9   2
ATOM      2  O   UNL     1      -3.133   4.510  25.936  0.00  0.00    -0.388 OA
ATOM     21  H   UNL     1      -3.494   5.384  25.708  0.00  0.00    +0.210 HD
ENDBRANCH   9   2
BRANCH  11   3
ATOM      3  O   UNL     1      -5.150   2.805  26.680  0.00  0.00    -0.389 OA
ATOM     22  H   UNL     1      -4.364   3.153  27.136  0.00  0.00    +0.210 HD
ENDBRANCH  11   3
BRANCH   8   6
ATOM      6  N   UNL     1      -1.576   2.438  24.188  0.00  0.00    -0.189 NA
ATOM     20  H   UNL     1      -1.660   2.730  23.207  0.00  0.00    +0.148 HD
BRANCH   6   1
ATOM      1  S   UNL     1      -0.137   1.733  24.766  0.00  0.00    +0.027 S 
ATOM      4  O   UNL     1       0.996   2.231  24.010  0.00  0.00    -0.158 OA
ATOM      5  O   UNL     1      -0.359   0.307  24.918  0.00  0.00    -0.158 OA
ATOM     17  C   UNL     1      -0.060   2.435  26.397  0.00  0.00    +0.214 C 
ENDBRANCH   6   1
ENDBRANCH   8   6
TORSDOF 5
ENDMDL
MODEL 10
REMARK VINA RESULT:      -5.2      3.085      5.063
REMARK  Name = 71693803
REMARK  7 active torsions:
REMARK  status: ('A' for Active; 'I' for Inactive)
REMARK    1  A    between atoms: S_1  and  N_6
REMARK    2  A    between atoms: S_1  and  C_17
REMARK    3  A    between atoms: O_2  and  C_9
REMARK    4  A    between atoms: O_3  and  C_11
REMARK    5  A    between atoms: N_6  and  C_8
REMARK    6  A    between atoms: C_7  and  C_12
REMARK    7  A    between atoms: C_13  and  C_16
REMARK                            x       y       z     vdW  Elec       q    Type
REMARK                         _______ _______ _______ _____ _____    ______ ____
ROOT
ATOM      7  C   UNL     1      -3.130   1.046  24.746  0.00  0.00    +0.043 C 
ATOM      8  C   UNL     1      -4.172   1.769  23.867  0.00  0.00    +0.115 C 
ATOM      9  C   UNL     1      -3.476   3.069  23.477  0.00  0.00    +0.162 C 
ATOM     10  C   UNL     1      -1.755   1.636  24.337  0.00  0.00    +0.043 C 
ATOM     11  C   UNL     1      -2.044   2.623  23.208  0.00  0.00    +0.145 C 
ENDROOT
BRANCH   7  12
ATOM     12  C   UNL     1      -3.215  -0.463  24.643  0.00  0.00    -0.040 A 
ATOM     13  C   UNL     1      -2.263  -1.279  25.255  0.00  0.00    -0.047 A 
ATOM     14  C   UNL     1      -4.264  -1.034  23.924  0.00  0.00    +0.004 A 
ATOM     15  C   UNL     1      -2.361  -2.667  25.147  0.00  0.00    +0.003 A 
ATOM     16  C   UNL     1      -1.131  -0.690  26.030  0.00  0.00    +0.044 C 
ATOM     18  C   UNL     1      -4.362  -2.422  23.816  0.00  0.00    +0.000 A 
ATOM     19  C   UNL     1      -3.410  -3.238  24.428  0.00  0.00    +0.000 A 
ENDBRANCH   7  12
BRANCH   9   2
ATOM      2  O   UNL     1      -4.051   3.660  22.328  0.00  0.00    -0.388 OA
ATOM     21  H   UNL     1      -4.653   4.361  22.631  0.00  0.00    +0.210 HD
ENDBRANCH   9   2
BRANCH  11   3
ATOM      3  O   UNL     1      -1.949   1.935  21.964  0.00  0.00    -0.389 OA
ATOM     22  H   UNL     1      -1.523   2.536  21.329  0.00  0.00    +0.210 HD
ENDBRANCH  11   3
BRANCH   8   6
ATOM      6  N   UNL     1      -5.392   2.061  24.657  0.00  0.00    -0.189 NA
ATOM     20  H   UNL     1      -6.304   1.860  24.231  0.00  0.00    +0.148 HD
BRANCH   6   1
ATOM      1  S   UNL     1      -5.271   3.086  26.013  0.00  0.00    +0.027 S 
ATOM      4  O   UNL     1      -3.884   3.438  26.245  0.00  0.00    -0.158 OA
ATOM      5  O   UNL     1      -6.084   2.528  27.077  0.00  0.00    -0.158 OA
ATOM     17  C   UNL     1      -6.109   4.531  25.407  0.00  0.00    +0.214 C 
ENDBRANCH   6   1
ENDBRANCH   8   6
TORSDOF 5
ENDMDL
