MODEL 1
REMARK VINA RESULT:      18.0      0.000      0.000
REMARK  Name = 7135513
REMARK  5 active torsions:
REMARK  status: ('A' for Active; 'I' for Inactive)
REMARK    1  A    between atoms: N_10  and  C_24
REMARK    2  A    between atoms: C_22  and  C_25
REMARK    3  A    between atoms: C_24  and  C_26
REMARK    4  A    between atoms: C_26  and  C_29
REMARK    5  A    between atoms: C_30  and  C_33
REMARK                            x       y       z     vdW  Elec       q    Type
REMARK                         _______ _______ _______ _____ _____    ______ ____
ROOT
ATOM      4  O   UNL     1       3.331  -2.073  23.993  0.00  0.00    -0.273 OA
ATOM      5  O   UNL     1       0.822   2.480  24.954  0.00  0.00    -0.270 OA
ATOM      6  O   UNL     1       5.938  -1.216  21.280  0.00  0.00    -0.253 OA
ATOM      7  N   UNL     1       2.157   1.001  23.777  0.00  0.00    -0.283 N 
ATOM      8  N   UNL     1       4.708   0.199  22.649  0.00  0.00    -0.282 N 
ATOM      9  N   UNL     1       1.171  -1.671  24.582  0.00  0.00    -0.283 N 
ATOM     10  N   UNL     1       7.040  -0.033  22.921  0.00  0.00    -0.299 N 
ATOM     11  C   UNL     1       2.254  -0.185  22.939  0.00  0.00    +0.180 C 
ATOM     12  C   UNL     1       3.448  -0.130  21.976  0.00  0.00    +0.141 C 
ATOM     13  C   UNL     1       3.303   1.911  23.786  0.00  0.00    +0.128 C 
ATOM     14  C   UNL     1       4.629   1.164  23.753  0.00  0.00    +0.128 C 
ATOM     15  C   UNL     1       2.326  -1.366  23.894  0.00  0.00    +0.239 C 
ATOM     16  C   UNL     1       0.975   1.388  24.401  0.00  0.00    +0.249 C 
ATOM     17  C   UNL     1      -0.168   0.437  24.437  0.00  0.00    +0.059 A 
ATOM     18  C   UNL     1      -0.040  -0.949  24.620  0.00  0.00    +0.046 A 
ATOM     19  C   UNL     1       5.901  -0.407  22.213  0.00  0.00    +0.302 C 
ATOM     20  C   UNL     1      -1.450   1.019  24.462  0.00  0.00    +0.023 A 
ATOM     21  C   UNL     1      -1.190  -1.708  24.895  0.00  0.00    +0.024 A 
ATOM     22  C   UNL     1      -2.585   0.243  24.687  0.00  0.00    -0.017 A 
ATOM     23  C   UNL     1      -2.453  -1.120  24.918  0.00  0.00    +0.010 A 
ATOM     34  H   UNL     1       1.161  -2.580  25.038  0.00  0.00    +0.155 HD
ATOM     35  H   UNL     1       6.965   0.594  23.713  0.00  0.00    +0.150 HD
ENDROOT
BRANCH  22  25
ATOM     25  C   UNL     1      -3.894   0.859  24.705  0.00  0.00    -0.017 A 
ATOM     27  C   UNL     1      -4.021   2.217  24.996  0.00  0.00    +0.021 A 
ATOM     28  C   UNL     1      -5.029   0.095  24.432  0.00  0.00    +0.008 A 
ATOM     30  C   UNL     1      -5.283   2.812  25.013  0.00  0.00    +0.055 A 
ATOM     31  C   UNL     1      -6.291   0.689  24.450  0.00  0.00    +0.001 A 
ATOM     32  C   UNL     1      -6.418   2.047  24.741  0.00  0.00    +0.012 A 
BRANCH  30  33
ATOM      1  F   UNL     1      -5.082   5.081  24.283  0.00  0.00    -0.166 F 
ATOM      2  F   UNL     1      -6.691   4.632  25.666  0.00  0.00    -0.166 F 
ATOM      3  F   UNL     1      -4.632   4.655  26.368  0.00  0.00    -0.166 F 
ATOM     33  C   UNL     1      -5.421   4.264  25.323  0.00  0.00    +0.417 C 
ENDBRANCH  30  33
ENDBRANCH  22  25
BRANCH  10  24
ATOM     24  C   UNL     1       8.359  -0.551  22.634  0.00  0.00    +0.105 C 
BRANCH  24  26
ATOM     26  C   UNL     1       9.464   0.417  23.039  0.00  0.00    +0.015 C 
ATOM     29  C   UNL     1       9.877   0.261  24.497  0.00  0.00    +0.005 C 
ENDBRANCH  24  26
ENDBRANCH  10  24
TORSDOF 4
ENDMDL
