MODEL 1
REMARK VINA RESULT:       3.0      0.000      0.000
REMARK  Name = 11883097
REMARK  9 active torsions:
REMARK  status: ('A' for Active; 'I' for Inactive)
REMARK    1  A    between atoms: O_2  and  C_14
REMARK    2  A    between atoms: O_3  and  C_19
REMARK    3  A    between atoms: N_7  and  C_25
REMARK    4  A    between atoms: C_9  and  C_17
REMARK    5  A    between atoms: C_11  and  C_19
REMARK    6  A    between atoms: C_11  and  C_20
REMARK    7  A    between atoms: C_12  and  C_22
REMARK    8  A    between atoms: C_22  and  C_23
REMARK    9  A    between atoms: C_28  and  C_29
REMARK                            x       y       z     vdW  Elec       q    Type
REMARK                         _______ _______ _______ _____ _____    ______ ____
ROOT
ATOM      1  S   UNL     1       0.604   2.043  25.512  0.00  0.00    -0.057 S 
ATOM      5  O   UNL     1       1.908  -0.065  21.582  0.00  0.00    -0.275 OA
ATOM      6  N   UNL     1      -0.202   1.209  23.199  0.00  0.00    -0.229 NA
ATOM      8  N   UNL     1       2.120   0.848  23.737  0.00  0.00    -0.264 N 
ATOM      9  C   UNL     1      -3.788   2.162  24.251  0.00  0.00    -0.019 C 
ATOM     10  C   UNL     1      -3.284   3.356  25.174  0.00  0.00    +0.011 C 
ATOM     11  C   UNL     1      -4.376   4.111  26.027  0.00  0.00    +0.021 C 
ATOM     12  C   UNL     1      -2.643   1.849  23.181  0.00  0.00    +0.054 C 
ATOM     13  C   UNL     1      -5.063   2.604  23.486  0.00  0.00    +0.010 C 
ATOM     14  C   UNL     1      -5.598   4.436  25.122  0.00  0.00    +0.123 C 
ATOM     15  C   UNL     1      -2.021   2.953  25.989  0.00  0.00    +0.049 C 
ATOM     16  C   UNL     1      -6.133   3.221  24.375  0.00  0.00    +0.032 C 
ATOM     17  C   UNL     1      -4.110   0.876  25.051  0.00  0.00    +0.012 C 
ATOM     18  C   UNL     1      -1.290   1.771  23.842  0.00  0.00    +0.058 A 
ATOM     20  C   UNL     1      -3.789   5.465  26.517  0.00  0.00    +0.016 C 
ATOM     21  C   UNL     1      -1.029   2.288  25.094  0.00  0.00    +0.015 A 
ATOM     24  C   UNL     1       0.848   1.291  23.988  0.00  0.00    +0.165 A 
ATOM     29  C   UNL     1       2.586   0.206  22.577  0.00  0.00    +0.222 C 
ATOM     39  H   UNL     1       2.787   1.011  24.487  0.00  0.00    +0.157 HD
ENDROOT
BRANCH  29  28
ATOM     28  C   UNL     1       4.083  -0.160  22.644  0.00  0.00    +0.075 C 
ATOM     32  C   UNL     1       4.508  -1.224  23.677  0.00  0.00    +0.013 C 
ATOM     33  C   UNL     1       5.021   0.819  23.379  0.00  0.00    +0.013 C 
ATOM     35  C   UNL     1       5.812  -0.417  23.856  0.00  0.00    +0.001 C 
ENDBRANCH  29  28
BRANCH  14   2
ATOM      2  O   UNL     1      -6.657   5.003  25.894  0.00  0.00    -0.391 OA
ATOM     36  H   UNL     1      -6.721   4.499  26.722  0.00  0.00    +0.210 HD
ENDBRANCH  14   2
BRANCH  11  19
ATOM     19  C   UNL     1      -4.820   3.364  27.305  0.00  0.00    +0.165 C 
BRANCH  19   3
ATOM      3  O   UNL     1      -5.990   2.642  26.997  0.00  0.00    -0.394 OA
ATOM     37  H   UNL     1      -6.639   2.830  27.697  0.00  0.00    +0.209 HD
ENDBRANCH  19   3
ENDBRANCH  11  19
BRANCH  12  22
ATOM     22  C   UNL     1      -2.909   0.620  22.301  0.00  0.00    +0.106 C 
BRANCH  22  23
ATOM      4  O   UNL     1      -4.143  -1.210  23.294  0.00  0.00    -0.276 OA
ATOM      7  N   UNL     1      -1.850  -1.049  23.643  0.00  0.00    -0.312 N 
ATOM     23  C   UNL     1      -3.069  -0.640  23.121  0.00  0.00    +0.214 C 
ATOM     38  H   UNL     1      -1.014  -0.533  23.388  0.00  0.00    +0.149 HD
BRANCH   7  25
ATOM     25  C   UNL     1      -1.702  -2.226  24.471  0.00  0.00    +0.073 C 
ATOM     26  C   UNL     1      -3.040  -2.630  25.098  0.00  0.00    +0.022 C 
ATOM     27  C   UNL     1      -0.628  -2.014  25.544  0.00  0.00    +0.022 C 
ATOM     30  C   UNL     1      -3.488  -1.664  26.196  0.00  0.00    +0.002 C 
ATOM     31  C   UNL     1      -1.079  -1.049  26.640  0.00  0.00    +0.002 C 
ATOM     34  C   UNL     1      -2.408  -1.477  27.256  0.00  0.00    +0.000 C 
ENDBRANCH   7  25
ENDBRANCH  22  23
ENDBRANCH  12  22
TORSDOF 7
ENDMDL
