MODEL 1
REMARK VINA RESULT:      -5.7      0.000      0.000
REMARK  Name = 56775466
REMARK  9 active torsions:
REMARK  status: ('A' for Active; 'I' for Inactive)
REMARK    1  A    between atoms: N_4  and  C_6
REMARK    2  A    between atoms: N_4  and  C_11
REMARK    3  A    between atoms: C_6  and  C_9
REMARK    4  A    between atoms: C_9  and  C_10
REMARK    5  A    between atoms: C_11  and  C_15
REMARK    6  A    between atoms: C_12  and  C_14
REMARK    7  A    between atoms: C_12  and  C_16
REMARK    8  A    between atoms: C_12  and  C_17
REMARK    9  A    between atoms: C_12  and  C_18
REMARK                            x       y       z     vdW  Elec       q    Type
REMARK                         _______ _______ _______ _____ _____    ______ ____
ROOT
ATOM      1  O   UNL     1      -0.547   5.628  24.742  0.00  0.00    -0.376 OA
ATOM      6  C   UNL     1      -1.242   3.614  24.868  0.00  0.00    +0.072 C 
ATOM      7  C   UNL     1      -0.213   4.398  24.061  0.00  0.00    +0.184 C 
ATOM      8  C   UNL     1      -1.604   4.966  25.473  0.00  0.00    +0.184 C 
ENDROOT
BRANCH   6   4
ATOM      4  N   UNL     1      -2.315   3.195  23.977  0.00  0.00    -0.300 NA
ATOM     22  H   UNL     1      -2.130   3.338  22.985  0.00  0.00    +0.123 HD
BRANCH   4  11
ATOM     11  C   UNL     1      -3.556   3.873  24.346  0.00  0.00    +0.156 C 
BRANCH  11  15
ATOM      3  O   UNL     1      -5.325   3.309  25.919  0.00  0.00    -0.467 OA
ATOM     15  C   UNL     1      -4.596   2.907  24.845  0.00  0.00    +0.119 A 
ATOM     19  C   UNL     1      -4.989   1.654  24.436  0.00  0.00    +0.046 A 
ATOM     20  C   UNL     1      -6.026   1.260  25.316  0.00  0.00    +0.041 A 
ATOM     21  C   UNL     1      -6.192   2.301  26.200  0.00  0.00    +0.195 A 
ENDBRANCH  11  15
ENDBRANCH   4  11
ENDBRANCH   6   4
BRANCH   6   9
ATOM      9  C   UNL     1      -0.759   2.489  25.793  0.00  0.00    +0.085 C 
BRANCH   9  10
ATOM      2  O   UNL     1      -0.942  -0.602  24.014  0.00  0.00    -0.359 OA
ATOM      5  N   UNL     1      -0.345   0.621  24.294  0.00  0.00    -0.083 NA
ATOM     10  C   UNL     1      -1.106   1.167  25.247  0.00  0.00    +0.086 A 
ATOM     13  C   UNL     1      -2.185   0.342  25.605  0.00  0.00    +0.071 A 
ATOM     14  C   UNL     1      -2.037  -0.757  24.802  0.00  0.00    +0.143 A 
BRANCH  14  12
ATOM     12  C   UNL     1      -2.829  -2.064  24.629  0.00  0.00    +0.023 C 
ATOM     16  C   UNL     1      -4.120  -1.906  23.793  0.00  0.00    +0.019 C 
ATOM     17  C   UNL     1      -1.950  -3.113  23.916  0.00  0.00    +0.019 C 
ATOM     18  C   UNL     1      -3.246  -2.606  26.013  0.00  0.00    +0.019 C 
ENDBRANCH  14  12
ENDBRANCH   9  10
ENDBRANCH   6   9
TORSDOF 6
ENDMDL
MODEL 2
REMARK VINA RESULT:      -5.6      1.537      3.851
REMARK  Name = 56775466
REMARK  9 active torsions:
REMARK  status: ('A' for Active; 'I' for Inactive)
REMARK    1  A    between atoms: N_4  and  C_6
REMARK    2  A    between atoms: N_4  and  C_11
REMARK    3  A    between atoms: C_6  and  C_9
REMARK    4  A    between atoms: C_9  and  C_10
REMARK    5  A    between atoms: C_11  and  C_15
REMARK    6  A    between atoms: C_12  and  C_14
REMARK    7  A    between atoms: C_12  and  C_16
REMARK    8  A    between atoms: C_12  and  C_17
REMARK    9  A    between atoms: C_12  and  C_18
REMARK                            x       y       z     vdW  Elec       q    Type
REMARK                         _______ _______ _______ _____ _____    ______ ____
ROOT
ATOM      1  O   UNL     1      -6.523   3.900  25.999  0.00  0.00    -0.376 OA
ATOM      6  C   UNL     1      -4.525   3.723  25.269  0.00  0.00    +0.072 C 
ATOM      7  C   UNL     1      -5.543   2.838  25.980  0.00  0.00    +0.184 C 
ATOM      8  C   UNL     1      -5.575   4.820  25.412  0.00  0.00    +0.184 C 
ENDROOT
BRANCH   6   4
ATOM      4  N   UNL     1      -3.427   4.002  26.184  0.00  0.00    -0.300 NA
ATOM     22  H   UNL     1      -3.667   4.606  26.971  0.00  0.00    +0.123 HD
BRANCH   4  11
ATOM     11  C   UNL     1      -2.304   4.578  25.449  0.00  0.00    +0.156 C 
BRANCH  11  15
ATOM      3  O   UNL     1      -1.152   2.528  26.075  0.00  0.00    -0.467 OA
ATOM     15  C   UNL     1      -1.217   3.566  25.201  0.00  0.00    +0.119 A 
ATOM     19  C   UNL     1      -0.235   3.457  24.244  0.00  0.00    +0.046 A 
ATOM     20  C   UNL     1       0.481   2.274  24.550  0.00  0.00    +0.041 A 
ATOM     21  C   UNL     1      -0.115   1.746  25.672  0.00  0.00    +0.195 A 
ENDBRANCH  11  15
ENDBRANCH   4  11
ENDBRANCH   6   4
BRANCH   6   9
ATOM      9  C   UNL     1      -4.048   3.327  23.865  0.00  0.00    +0.085 C 
BRANCH   9  10
ATOM      2  O   UNL     1      -2.468   0.200  23.172  0.00  0.00    -0.359 OA
ATOM      5  N   UNL     1      -2.694   1.547  22.914  0.00  0.00    -0.083 NA
ATOM     10  C   UNL     1      -3.577   1.933  23.839  0.00  0.00    +0.086 A 
ATOM     13  C   UNL     1      -3.941   0.883  24.699  0.00  0.00    +0.071 A 
ATOM     14  C   UNL     1      -3.217  -0.184  24.238  0.00  0.00    +0.143 A 
BRANCH  14  12
ATOM     12  C   UNL     1      -3.093  -1.654  24.670  0.00  0.00    +0.023 C 
ATOM     16  C   UNL     1      -1.722  -2.288  24.344  0.00  0.00    +0.019 C 
ATOM     17  C   UNL     1      -3.296  -1.765  26.196  0.00  0.00    +0.019 C 
ATOM     18  C   UNL     1      -4.168  -2.499  23.953  0.00  0.00    +0.019 C 
ENDBRANCH  14  12
ENDBRANCH   9  10
ENDBRANCH   6   9
TORSDOF 6
ENDMDL
MODEL 3
REMARK VINA RESULT:      -5.3      1.961      4.898
REMARK  Name = 56775466
REMARK  9 active torsions:
REMARK  status: ('A' for Active; 'I' for Inactive)
REMARK    1  A    between atoms: N_4  and  C_6
REMARK    2  A    between atoms: N_4  and  C_11
REMARK    3  A    between atoms: C_6  and  C_9
REMARK    4  A    between atoms: C_9  and  C_10
REMARK    5  A    between atoms: C_11  and  C_15
REMARK    6  A    between atoms: C_12  and  C_14
REMARK    7  A    between atoms: C_12  and  C_16
REMARK    8  A    between atoms: C_12  and  C_17
REMARK    9  A    between atoms: C_12  and  C_18
REMARK                            x       y       z     vdW  Elec       q    Type
REMARK                         _______ _______ _______ _____ _____    ______ ____
ROOT
ATOM      1  O   UNL     1       2.017   0.723  23.184  0.00  0.00    -0.376 OA
ATOM      6  C   UNL     1      -0.034   0.834  23.765  0.00  0.00    +0.072 C 
ATOM      7  C   UNL     1       1.214   1.703  23.880  0.00  0.00    +0.184 C 
ATOM      8  C   UNL     1       0.897  -0.190  23.125  0.00  0.00    +0.184 C 
ENDROOT
BRANCH   6   4
ATOM      4  N   UNL     1      -0.403   0.367  25.095  0.00  0.00    -0.300 NA
ATOM     22  H   UNL     1       0.207   0.688  25.847  0.00  0.00    +0.123 HD
BRANCH   4  11
ATOM     11  C   UNL     1      -0.466  -1.093  25.106  0.00  0.00    +0.156 C 
BRANCH  11  15
ATOM      3  O   UNL     1      -2.087  -2.602  24.096  0.00  0.00    -0.467 OA
ATOM     15  C   UNL     1      -1.880  -1.594  24.984  0.00  0.00    +0.119 A 
ATOM     19  C   UNL     1      -3.059  -1.241  25.599  0.00  0.00    +0.046 A 
ATOM     20  C   UNL     1      -4.055  -2.087  25.053  0.00  0.00    +0.041 A 
ATOM     21  C   UNL     1      -3.413  -2.896  24.145  0.00  0.00    +0.195 A 
ENDBRANCH  11  15
ENDBRANCH   4  11
ENDBRANCH   6   4
BRANCH   6   9
ATOM      9  C   UNL     1      -1.232   1.357  22.961  0.00  0.00    +0.085 C 
BRANCH   9  10
ATOM      2  O   UNL     1      -3.158   3.050  25.446  0.00  0.00    -0.359 OA
ATOM      5  N   UNL     1      -1.959   2.764  24.805  0.00  0.00    -0.083 NA
ATOM     10  C   UNL     1      -2.279   1.885  23.852  0.00  0.00    +0.086 A 
ATOM     13  C   UNL     1      -3.651   1.583  23.843  0.00  0.00    +0.071 A 
ATOM     14  C   UNL     1      -4.159   2.341  24.864  0.00  0.00    +0.143 A 
BRANCH  14  12
ATOM     12  C   UNL     1      -5.568   2.535  25.447  0.00  0.00    +0.023 C 
ATOM     16  C   UNL     1      -5.746   1.936  26.862  0.00  0.00    +0.019 C 
ATOM     17  C   UNL     1      -5.887   4.042  25.547  0.00  0.00    +0.019 C 
ATOM     18  C   UNL     1      -6.608   1.855  24.530  0.00  0.00    +0.019 C 
ENDBRANCH  14  12
ENDBRANCH   9  10
ENDBRANCH   6   9
TORSDOF 6
ENDMDL
MODEL 4
REMARK VINA RESULT:      -5.1      1.851      5.937
REMARK  Name = 56775466
REMARK  9 active torsions:
REMARK  status: ('A' for Active; 'I' for Inactive)
REMARK    1  A    between atoms: N_4  and  C_6
REMARK    2  A    between atoms: N_4  and  C_11
REMARK    3  A    between atoms: C_6  and  C_9
REMARK    4  A    between atoms: C_9  and  C_10
REMARK    5  A    between atoms: C_11  and  C_15
REMARK    6  A    between atoms: C_12  and  C_14
REMARK    7  A    between atoms: C_12  and  C_16
REMARK    8  A    between atoms: C_12  and  C_17
REMARK    9  A    between atoms: C_12  and  C_18
REMARK                            x       y       z     vdW  Elec       q    Type
REMARK                         _______ _______ _______ _____ _____    ______ ____
ROOT
ATOM      1  O   UNL     1      -3.334  -3.429  25.772  0.00  0.00    -0.376 OA
ATOM      6  C   UNL     1      -2.979  -1.783  24.460  0.00  0.00    +0.072 C 
ATOM      7  C   UNL     1      -2.963  -3.305  24.380  0.00  0.00    +0.184 C 
ATOM      8  C   UNL     1      -3.274  -1.995  25.941  0.00  0.00    +0.184 C 
ENDROOT
BRANCH   6   4
ATOM      4  N   UNL     1      -1.615  -1.292  24.320  0.00  0.00    -0.300 NA
ATOM     22  H   UNL     1      -0.932  -1.996  24.039  0.00  0.00    +0.123 HD
BRANCH   4  11
ATOM     11  C   UNL     1      -1.185  -0.662  25.565  0.00  0.00    +0.156 C 
BRANCH  11  15
ATOM      3  O   UNL     1       0.006   0.920  24.150  0.00  0.00    -0.467 OA
ATOM     15  C   UNL     1      -0.629   0.717  25.334  0.00  0.00    +0.119 A 
ATOM     19  C   UNL     1      -0.623   1.868  26.089  0.00  0.00    +0.046 A 
ATOM     20  C   UNL     1       0.060   2.839  25.319  0.00  0.00    +0.041 A 
ATOM     21  C   UNL     1       0.423   2.213  24.149  0.00  0.00    +0.195 A 
ENDBRANCH  11  15
ENDBRANCH   4  11
ENDBRANCH   6   4
BRANCH   6   9
ATOM      9  C   UNL     1      -3.986  -1.004  23.604  0.00  0.00    +0.085 C 
BRANCH   9  10
ATOM      2  O   UNL     1      -3.150   2.461  23.378  0.00  0.00    -0.359 OA
ATOM      5  N   UNL     1      -3.088   1.149  22.922  0.00  0.00    -0.083 NA
ATOM     10  C   UNL     1      -3.827   0.448  23.786  0.00  0.00    +0.086 A 
ATOM     13  C   UNL     1      -4.375   1.255  24.797  0.00  0.00    +0.071 A 
ATOM     14  C   UNL     1      -3.920   2.511  24.495  0.00  0.00    +0.143 A 
BRANCH  14  12
ATOM     12  C   UNL     1      -4.102   3.894  25.143  0.00  0.00    +0.023 C 
ATOM     16  C   UNL     1      -3.229   4.115  26.399  0.00  0.00    +0.019 C 
ATOM     17  C   UNL     1      -3.728   4.996  24.128  0.00  0.00    +0.019 C 
ATOM     18  C   UNL     1      -5.574   4.077  25.572  0.00  0.00    +0.019 C 
ENDBRANCH  14  12
ENDBRANCH   9  10
ENDBRANCH   6   9
TORSDOF 6
ENDMDL
MODEL 5
REMARK VINA RESULT:      -4.9      1.751      4.943
REMARK  Name = 56775466
REMARK  9 active torsions:
REMARK  status: ('A' for Active; 'I' for Inactive)
REMARK    1  A    between atoms: N_4  and  C_6
REMARK    2  A    between atoms: N_4  and  C_11
REMARK    3  A    between atoms: C_6  and  C_9
REMARK    4  A    between atoms: C_9  and  C_10
REMARK    5  A    between atoms: C_11  and  C_15
REMARK    6  A    between atoms: C_12  and  C_14
REMARK    7  A    between atoms: C_12  and  C_16
REMARK    8  A    between atoms: C_12  and  C_17
REMARK    9  A    between atoms: C_12  and  C_18
REMARK                            x       y       z     vdW  Elec       q    Type
REMARK                         _______ _______ _______ _____ _____    ______ ____
ROOT
ATOM      1  O   UNL     1      -0.487  -2.165  25.273  0.00  0.00    -0.376 OA
ATOM      6  C   UNL     1      -0.793  -0.125  24.726  0.00  0.00    +0.072 C 
ATOM      7  C   UNL     1       0.320  -1.161  24.617  0.00  0.00    +0.184 C 
ATOM      8  C   UNL     1      -1.546  -1.207  25.494  0.00  0.00    +0.184 C 
ENDROOT
BRANCH   6   4
ATOM      4  N   UNL     1      -0.379   0.911  25.662  0.00  0.00    -0.300 NA
ATOM     22  H   UNL     1      -1.117   1.256  26.275  0.00  0.00    +0.123 HD
BRANCH   4  11
ATOM     11  C   UNL     1       0.212   2.030  24.931  0.00  0.00    +0.156 C 
BRANCH  11  15
ATOM      3  O   UNL     1      -1.590   3.253  26.015  0.00  0.00    -0.467 OA
ATOM     15  C   UNL     1      -0.579   3.297  25.109  0.00  0.00    +0.119 A 
ATOM     19  C   UNL     1      -0.500   4.544  24.533  0.00  0.00    +0.046 A 
ATOM     20  C   UNL     1      -1.530   5.315  25.123  0.00  0.00    +0.041 A 
ATOM     21  C   UNL     1      -2.165   4.485  26.017  0.00  0.00    +0.195 A 
ENDBRANCH  11  15
ENDBRANCH   4  11
ENDBRANCH   6   4
BRANCH   6   9
ATOM      9  C   UNL     1      -1.410   0.441  23.440  0.00  0.00    +0.085 C 
BRANCH   9  10
ATOM      2  O   UNL     1      -4.140   2.743  23.508  0.00  0.00    -0.359 OA
ATOM      5  N   UNL     1      -2.954   2.259  22.969  0.00  0.00    -0.083 NA
ATOM     10  C   UNL     1      -2.631   1.210  23.731  0.00  0.00    +0.086 A 
ATOM     13  C   UNL     1      -3.567   0.986  24.755  0.00  0.00    +0.071 A 
ATOM     14  C   UNL     1      -4.495   1.977  24.571  0.00  0.00    +0.143 A 
BRANCH  14  12
ATOM     12  C   UNL     1      -5.793   2.368  25.296  0.00  0.00    +0.023 C 
ATOM     16  C   UNL     1      -5.951   1.715  26.689  0.00  0.00    +0.019 C 
ATOM     17  C   UNL     1      -5.833   3.897  25.502  0.00  0.00    +0.019 C 
ATOM     18  C   UNL     1      -7.011   1.937  24.450  0.00  0.00    +0.019 C 
ENDBRANCH  14  12
ENDBRANCH   9  10
ENDBRANCH   6   9
TORSDOF 6
ENDMDL
MODEL 6
REMARK VINA RESULT:      -4.5      3.066      6.594
REMARK  Name = 56775466
REMARK  9 active torsions:
REMARK  status: ('A' for Active; 'I' for Inactive)
REMARK    1  A    between atoms: N_4  and  C_6
REMARK    2  A    between atoms: N_4  and  C_11
REMARK    3  A    between atoms: C_6  and  C_9
REMARK    4  A    between atoms: C_9  and  C_10
REMARK    5  A    between atoms: C_11  and  C_15
REMARK    6  A    between atoms: C_12  and  C_14
REMARK    7  A    between atoms: C_12  and  C_16
REMARK    8  A    between atoms: C_12  and  C_17
REMARK    9  A    between atoms: C_12  and  C_18
REMARK                            x       y       z     vdW  Elec       q    Type
REMARK                         _______ _______ _______ _____ _____    ______ ____
ROOT
ATOM      1  O   UNL     1      -1.831  -1.512  25.727  0.00  0.00    -0.376 OA
ATOM      6  C   UNL     1      -0.671  -0.384  24.335  0.00  0.00    +0.072 C 
ATOM      7  C   UNL     1      -1.649  -1.553  24.294  0.00  0.00    +0.184 C 
ATOM      8  C   UNL     1      -0.842  -0.465  25.848  0.00  0.00    +0.184 C 
ENDROOT
BRANCH   6   4
ATOM      4  N   UNL     1       0.656  -0.871  23.985  0.00  0.00    -0.300 NA
ATOM     22  H   UNL     1       1.298  -0.969  24.772  0.00  0.00    +0.123 HD
BRANCH   4  11
ATOM     11  C   UNL     1       1.251  -0.003  22.973  0.00  0.00    +0.156 C 
BRANCH  11  15
ATOM      3  O   UNL     1       3.343  -1.079  23.597  0.00  0.00    -0.467 OA
ATOM     15  C   UNL     1       2.753   0.026  23.071  0.00  0.00    +0.119 A 
ATOM     19  C   UNL     1       3.699   0.966  22.731  0.00  0.00    +0.046 A 
ATOM     20  C   UNL     1       4.952   0.401  23.071  0.00  0.00    +0.041 A 
ATOM     21  C   UNL     1       4.682  -0.843  23.593  0.00  0.00    +0.195 A 
ENDBRANCH  11  15
ENDBRANCH   4  11
ENDBRANCH   6   4
BRANCH   6   9
ATOM      9  C   UNL     1      -1.040   0.918  23.612  0.00  0.00    +0.085 C 
BRANCH   9  10
ATOM      2  O   UNL     1      -3.178   3.058  25.512  0.00  0.00    -0.359 OA
ATOM      5  N   UNL     1      -1.928   2.672  25.043  0.00  0.00    -0.083 NA
ATOM     10  C   UNL     1      -2.160   1.598  24.283  0.00  0.00    +0.086 A 
ATOM     13  C   UNL     1      -3.524   1.264  24.235  0.00  0.00    +0.071 A 
ATOM     14  C   UNL     1      -4.121   2.212  25.024  0.00  0.00    +0.143 A 
BRANCH  14  12
ATOM     12  C   UNL     1      -5.575   2.488  25.442  0.00  0.00    +0.023 C 
ATOM     16  C   UNL     1      -6.625   1.902  24.471  0.00  0.00    +0.019 C 
ATOM     17  C   UNL     1      -5.843   1.870  26.831  0.00  0.00    +0.019 C 
ATOM     18  C   UNL     1      -5.814   4.012  25.508  0.00  0.00    +0.019 C 
ENDBRANCH  14  12
ENDBRANCH   9  10
ENDBRANCH   6   9
TORSDOF 6
ENDMDL
MODEL 7
REMARK VINA RESULT:      -4.5      2.220      4.260
REMARK  Name = 56775466
REMARK  9 active torsions:
REMARK  status: ('A' for Active; 'I' for Inactive)
REMARK    1  A    between atoms: N_4  and  C_6
REMARK    2  A    between atoms: N_4  and  C_11
REMARK    3  A    between atoms: C_6  and  C_9
REMARK    4  A    between atoms: C_9  and  C_10
REMARK    5  A    between atoms: C_11  and  C_15
REMARK    6  A    between atoms: C_12  and  C_14
REMARK    7  A    between atoms: C_12  and  C_16
REMARK    8  A    between atoms: C_12  and  C_17
REMARK    9  A    between atoms: C_12  and  C_18
REMARK                            x       y       z     vdW  Elec       q    Type
REMARK                         _______ _______ _______ _____ _____    ______ ____
ROOT
ATOM      1  O   UNL     1      -5.780   4.045  25.807  0.00  0.00    -0.376 OA
ATOM      6  C   UNL     1      -4.355   2.764  24.868  0.00  0.00    +0.072 C 
ATOM      7  C   UNL     1      -5.868   2.951  24.867  0.00  0.00    +0.184 C 
ATOM      8  C   UNL     1      -4.352   3.860  25.928  0.00  0.00    +0.184 C 
ENDROOT
BRANCH   6   4
ATOM      4  N   UNL     1      -4.040   1.494  25.506  0.00  0.00    -0.300 NA
ATOM     22  H   UNL     1      -3.053   1.236  25.485  0.00  0.00    +0.123 HD
BRANCH   4  11
ATOM     11  C   UNL     1      -4.838   0.427  24.906  0.00  0.00    +0.156 C 
BRANCH  11  15
ATOM      3  O   UNL     1      -4.525  -1.774  23.915  0.00  0.00    -0.467 OA
ATOM     15  C   UNL     1      -4.071  -0.865  24.818  0.00  0.00    +0.119 A 
ATOM     19  C   UNL     1      -2.966  -1.350  25.479  0.00  0.00    +0.046 A 
ATOM     20  C   UNL     1      -2.726  -2.640  24.947  0.00  0.00    +0.041 A 
ATOM     21  C   UNL     1      -3.700  -2.851  24.000  0.00  0.00    +0.195 A 
ENDBRANCH  11  15
ENDBRANCH   4  11
ENDBRANCH   6   4
BRANCH   6   9
ATOM      9  C   UNL     1      -3.578   2.987  23.563  0.00  0.00    +0.085 C 
BRANCH   9  10
ATOM      2  O   UNL     1      -0.144   2.255  24.218  0.00  0.00    -0.359 OA
ATOM      5  N   UNL     1      -1.275   3.053  24.340  0.00  0.00    -0.083 NA
ATOM     10  C   UNL     1      -2.224   2.416  23.648  0.00  0.00    +0.086 A 
ATOM     13  C   UNL     1      -1.755   1.222  23.074  0.00  0.00    +0.071 A 
ATOM     14  C   UNL     1      -0.442   1.167  23.463  0.00  0.00    +0.143 A 
BRANCH  14  12
ATOM     12  C   UNL     1       0.698   0.164  23.221  0.00  0.00    +0.023 C 
ATOM     16  C   UNL     1       0.733  -0.409  21.786  0.00  0.00    +0.019 C 
ATOM     17  C   UNL     1       2.057   0.853  23.470  0.00  0.00    +0.019 C 
ATOM     18  C   UNL     1       0.551  -1.032  24.186  0.00  0.00    +0.019 C 
ENDBRANCH  14  12
ENDBRANCH   9  10
ENDBRANCH   6   9
TORSDOF 6
ENDMDL
MODEL 8
REMARK VINA RESULT:      -4.4      3.327      6.844
REMARK  Name = 56775466
REMARK  9 active torsions:
REMARK  status: ('A' for Active; 'I' for Inactive)
REMARK    1  A    between atoms: N_4  and  C_6
REMARK    2  A    between atoms: N_4  and  C_11
REMARK    3  A    between atoms: C_6  and  C_9
REMARK    4  A    between atoms: C_9  and  C_10
REMARK    5  A    between atoms: C_11  and  C_15
REMARK    6  A    between atoms: C_12  and  C_14
REMARK    7  A    between atoms: C_12  and  C_16
REMARK    8  A    between atoms: C_12  and  C_17
REMARK    9  A    between atoms: C_12  and  C_18
REMARK                            x       y       z     vdW  Elec       q    Type
REMARK                         _______ _______ _______ _____ _____    ______ ____
ROOT
ATOM      1  O   UNL     1      -1.740  -1.277  25.356  0.00  0.00    -0.376 OA
ATOM      6  C   UNL     1      -0.343  -0.291  24.077  0.00  0.00    +0.072 C 
ATOM      7  C   UNL     1      -1.444  -1.337  23.942  0.00  0.00    +0.184 C 
ATOM      8  C   UNL     1      -0.648  -0.353  25.570  0.00  0.00    +0.184 C 
ENDROOT
BRANCH   6   4
ATOM      4  N   UNL     1       0.942  -0.930  23.834  0.00  0.00    -0.300 NA
ATOM     22  H   UNL     1       1.542  -1.012  24.655  0.00  0.00    +0.123 HD
BRANCH   4  11
ATOM     11  C   UNL     1       1.655  -0.220  22.775  0.00  0.00    +0.156 C 
BRANCH  11  15
ATOM      3  O   UNL     1       3.703  -1.199  23.653  0.00  0.00    -0.467 OA
ATOM     15  C   UNL     1       3.130  -0.119  23.062  0.00  0.00    +0.119 A 
ATOM     19  C   UNL     1       4.064   0.868  22.847  0.00  0.00    +0.046 A 
ATOM     20  C   UNL     1       5.290   0.361  23.339  0.00  0.00    +0.041 A 
ATOM     21  C   UNL     1       5.018  -0.899  23.819  0.00  0.00    +0.195 A 
ENDBRANCH  11  15
ENDBRANCH   4  11
ENDBRANCH   6   4
BRANCH   6   9
ATOM      9  C   UNL     1      -0.495   1.047  23.342  0.00  0.00    +0.085 C 
BRANCH   9  10
ATOM      2  O   UNL     1      -3.793   2.414  23.452  0.00  0.00    -0.359 OA
ATOM      5  N   UNL     1      -2.766   1.734  22.809  0.00  0.00    -0.083 NA
ATOM     10  C   UNL     1      -1.765   1.705  23.693  0.00  0.00    +0.086 A 
ATOM     13  C   UNL     1      -2.099   2.343  24.899  0.00  0.00    +0.071 A 
ATOM     14  C   UNL     1      -3.385   2.772  24.696  0.00  0.00    +0.143 A 
BRANCH  14  12
ATOM     12  C   UNL     1      -4.400   3.538  25.559  0.00  0.00    +0.023 C 
ATOM     16  C   UNL     1      -5.596   2.678  26.029  0.00  0.00    +0.019 C 
ATOM     17  C   UNL     1      -3.703   4.078  26.826  0.00  0.00    +0.019 C 
ATOM     18  C   UNL     1      -4.978   4.722  24.753  0.00  0.00    +0.019 C 
ENDBRANCH  14  12
ENDBRANCH   9  10
ENDBRANCH   6   9
TORSDOF 6
ENDMDL
MODEL 9
REMARK VINA RESULT:      -3.2      2.748      4.308
REMARK  Name = 56775466
REMARK  9 active torsions:
REMARK  status: ('A' for Active; 'I' for Inactive)
REMARK    1  A    between atoms: N_4  and  C_6
REMARK    2  A    between atoms: N_4  and  C_11
REMARK    3  A    between atoms: C_6  and  C_9
REMARK    4  A    between atoms: C_9  and  C_10
REMARK    5  A    between atoms: C_11  and  C_15
REMARK    6  A    between atoms: C_12  and  C_14
REMARK    7  A    between atoms: C_12  and  C_16
REMARK    8  A    between atoms: C_12  and  C_17
REMARK    9  A    between atoms: C_12  and  C_18
REMARK                            x       y       z     vdW  Elec       q    Type
REMARK                         _______ _______ _______ _____ _____    ______ ____
ROOT
ATOM      1  O   UNL     1      -3.236   3.294  22.798  0.00  0.00    -0.376 OA
ATOM      6  C   UNL     1      -2.866   2.319  24.661  0.00  0.00    +0.072 C 
ATOM      7  C   UNL     1      -2.872   1.949  23.182  0.00  0.00    +0.184 C 
ATOM      8  C   UNL     1      -3.342   3.688  24.185  0.00  0.00    +0.184 C 
ENDROOT
BRANCH   6   4
ATOM      4  N   UNL     1      -3.974   1.640  25.318  0.00  0.00    -0.300 NA
ATOM     22  H   UNL     1      -3.738   1.190  26.202  0.00  0.00    +0.123 HD
BRANCH   4  11
ATOM     11  C   UNL     1      -4.561   0.658  24.410  0.00  0.00    +0.156 C 
BRANCH  11  15
ATOM      3  O   UNL     1      -4.243  -1.654  23.720  0.00  0.00    -0.467 OA
ATOM     15  C   UNL     1      -4.089  -0.739  24.712  0.00  0.00    +0.119 A 
ATOM     19  C   UNL     1      -3.512  -1.317  25.819  0.00  0.00    +0.046 A 
ATOM     20  C   UNL     1      -3.297  -2.676  25.485  0.00  0.00    +0.041 A 
ATOM     21  C   UNL     1      -3.758  -2.831  24.198  0.00  0.00    +0.195 A 
ENDBRANCH  11  15
ENDBRANCH   4  11
ENDBRANCH   6   4
BRANCH   6   9
ATOM      9  C   UNL     1      -1.552   2.220  25.447  0.00  0.00    +0.085 C 
BRANCH   9  10
ATOM      2  O   UNL     1       0.273  -0.508  24.039  0.00  0.00    -0.359 OA
ATOM      5  N   UNL     1      -0.798   0.015  24.754  0.00  0.00    -0.083 NA
ATOM     10  C   UNL     1      -0.593   1.335  24.765  0.00  0.00    +0.086 A 
ATOM     13  C   UNL     1       0.579   1.699  24.080  0.00  0.00    +0.071 A 
ATOM     14  C   UNL     1       1.086   0.504  23.643  0.00  0.00    +0.143 A 
BRANCH  14  12
ATOM     12  C   UNL     1       2.331   0.109  22.832  0.00  0.00    +0.023 C 
ATOM     16  C   UNL     1       3.167  -1.018  23.482  0.00  0.00    +0.019 C 
ATOM     17  C   UNL     1       1.905  -0.388  21.434  0.00  0.00    +0.019 C 
ATOM     18  C   UNL     1       3.259   1.333  22.675  0.00  0.00    +0.019 C 
ENDBRANCH  14  12
ENDBRANCH   9  10
ENDBRANCH   6   9
TORSDOF 6
ENDMDL
MODEL 10
REMARK VINA RESULT:      -3.1      2.698      4.324
REMARK  Name = 56775466
REMARK  9 active torsions:
REMARK  status: ('A' for Active; 'I' for Inactive)
REMARK    1  A    between atoms: N_4  and  C_6
REMARK    2  A    between atoms: N_4  and  C_11
REMARK    3  A    between atoms: C_6  and  C_9
REMARK    4  A    between atoms: C_9  and  C_10
REMARK    5  A    between atoms: C_11  and  C_15
REMARK    6  A    between atoms: C_12  and  C_14
REMARK    7  A    between atoms: C_12  and  C_16
REMARK    8  A    between atoms: C_12  and  C_17
REMARK    9  A    between atoms: C_12  and  C_18
REMARK                            x       y       z     vdW  Elec       q    Type
REMARK                         _______ _______ _______ _____ _____    ______ ____
ROOT
ATOM      1  O   UNL     1       4.340   0.062  22.831  0.00  0.00    -0.376 OA
ATOM      6  C   UNL     1       2.247   0.360  23.128  0.00  0.00    +0.072 C 
ATOM      7  C   UNL     1       3.367   0.998  22.314  0.00  0.00    +0.184 C 
ATOM      8  C   UNL     1       3.347  -0.529  23.700  0.00  0.00    +0.184 C 
ENDROOT
BRANCH   6   4
ATOM      4  N   UNL     1       1.821   1.299  24.156  0.00  0.00    -0.300 NA
ATOM     22  H   UNL     1       1.403   0.871  24.982  0.00  0.00    +0.123 HD
BRANCH   4  11
ATOM     11  C   UNL     1       0.893   2.271  23.584  0.00  0.00    +0.156 C 
BRANCH  11  15
ATOM      3  O   UNL     1      -0.695   3.956  24.335  0.00  0.00    -0.467 OA
ATOM     15  C   UNL     1      -0.102   2.763  24.601  0.00  0.00    +0.119 A 
ATOM     19  C   UNL     1      -0.562   2.248  25.792  0.00  0.00    +0.046 A 
ATOM     20  C   UNL     1      -1.498   3.187  26.289  0.00  0.00    +0.041 A 
ATOM     21  C   UNL     1      -1.543   4.207  25.367  0.00  0.00    +0.195 A 
ENDBRANCH  11  15
ENDBRANCH   4  11
ENDBRANCH   6   4
BRANCH   6   9
ATOM      9  C   UNL     1       1.071  -0.293  22.390  0.00  0.00    +0.085 C 
BRANCH   9  10
ATOM      2  O   UNL     1      -1.037  -1.338  25.077  0.00  0.00    -0.359 OA
ATOM      5  N   UNL     1       0.203  -1.231  24.458  0.00  0.00    -0.083 NA
ATOM     10  C   UNL     1      -0.038  -0.586  23.313  0.00  0.00    +0.086 A 
ATOM     13  C   UNL     1      -1.397  -0.264  23.157  0.00  0.00    +0.071 A 
ATOM     14  C   UNL     1      -1.981  -0.758  24.293  0.00  0.00    +0.143 A 
BRANCH  14  12
ATOM     12  C   UNL     1      -3.424  -0.781  24.824  0.00  0.00    +0.023 C 
ATOM     16  C   UNL     1      -4.115   0.602  24.817  0.00  0.00    +0.019 C 
ATOM     17  C   UNL     1      -4.283  -1.723  23.954  0.00  0.00    +0.019 C 
ATOM     18  C   UNL     1      -3.433  -1.288  26.282  0.00  0.00    +0.019 C 
ENDBRANCH  14  12
ENDBRANCH   9  10
ENDBRANCH   6   9
TORSDOF 6
ENDMDL
