MODEL 1
REMARK VINA RESULT:      -6.6      0.000      0.000
REMARK  Name = 11865680
REMARK  8 active torsions:
REMARK  status: ('A' for Active; 'I' for Inactive)
REMARK    1  A    between atoms: O_1  and  C_9
REMARK    2  A    between atoms: O_2  and  C_10
REMARK    3  A    between atoms: N_6  and  C_11
REMARK    4  A    between atoms: N_7  and  C_17
REMARK    5  A    between atoms: C_13  and  C_15
REMARK    6  A    between atoms: C_16  and  C_19
REMARK    7  A    between atoms: C_17  and  C_18
REMARK    8  A    between atoms: C_18  and  C_20
REMARK                            x       y       z     vdW  Elec       q    Type
REMARK                         _______ _______ _______ _____ _____    ______ ____
ROOT
ATOM      9  C   UNL     1      -2.539   4.390  25.430  0.00  0.00    +0.167 C 
ATOM     10  C   UNL     1      -1.007   4.436  25.374  0.00  0.00    +0.149 C 
ATOM     11  C   UNL     1      -3.120   3.537  24.286  0.00  0.00    +0.127 C 
ATOM     12  C   UNL     1      -0.385   3.029  25.390  0.00  0.00    +0.074 C 
ATOM     13  C   UNL     1      -1.159   2.026  24.583  0.00  0.00    +0.015 C 
ATOM     14  C   UNL     1      -2.381   2.243  24.074  0.00  0.00    +0.006 C 
ENDROOT
BRANCH  11   6
ATOM      4  O   UNL     1      -4.293   1.003  25.081  0.00  0.00    -0.276 OA
ATOM      6  N   UNL     1      -4.518   3.246  24.497  0.00  0.00    -0.307 N 
ATOM     16  C   UNL     1      -4.985   1.998  24.878  0.00  0.00    +0.210 C 
ATOM     19  C   UNL     1      -6.480   1.975  25.053  0.00  0.00    +0.109 C 
ATOM     21  H   UNL     1      -5.193   3.985  24.321  0.00  0.00    +0.149 HD
ENDBRANCH  11   6
BRANCH  13  15
ATOM      3  O   UNL     1       0.516   0.653  23.672  0.00  0.00    -0.271 OA
ATOM      7  N   UNL     1      -1.245  -0.335  24.836  0.00  0.00    -0.311 N 
ATOM     15  C   UNL     1      -0.533   0.729  24.310  0.00  0.00    +0.240 C 
ATOM     24  H   UNL     1      -2.125  -0.189  25.316  0.00  0.00    +0.149 HD
BRANCH   7  17
ATOM     17  C   UNL     1      -0.827  -1.711  24.694  0.00  0.00    +0.113 C 
BRANCH  17  18
ATOM     18  C   UNL     1      -1.990  -2.634  24.358  0.00  0.00    +0.114 C 
BRANCH  18  20
ATOM      5  O   UNL     1      -3.579  -1.878  26.031  0.00  0.00    -0.276 OA
ATOM      8  N   UNL     1      -4.244  -1.973  23.834  0.00  0.00    -0.329 N 
ATOM     20  C   UNL     1      -3.330  -2.122  24.855  0.00  0.00    +0.212 C 
ATOM     25  H   UNL     1      -4.018  -2.185  22.867  0.00  0.00    +0.145 HD
ATOM     26  H   UNL     1      -5.186  -1.642  24.020  0.00  0.00    +0.145 HD
ENDBRANCH  18  20
ENDBRANCH  17  18
ENDBRANCH   7  17
ENDBRANCH  13  15
BRANCH   9   1
ATOM      1  O   UNL     1      -2.937   3.842  26.688  0.00  0.00    -0.387 OA
ATOM     22  H   UNL     1      -2.157   3.845  27.269  0.00  0.00    +0.210 HD
ENDBRANCH   9   1
BRANCH  10   2
ATOM      2  O   UNL     1      -0.579   5.147  24.215  0.00  0.00    -0.389 OA
ATOM     23  H   UNL     1      -1.129   5.945  24.141  0.00  0.00    +0.210 HD
ENDBRANCH  10   2
TORSDOF 7
ENDMDL
MODEL 2
REMARK VINA RESULT:      -6.5      2.373      5.845
REMARK  Name = 11865680
REMARK  8 active torsions:
REMARK  status: ('A' for Active; 'I' for Inactive)
REMARK    1  A    between atoms: O_1  and  C_9
REMARK    2  A    between atoms: O_2  and  C_10
REMARK    3  A    between atoms: N_6  and  C_11
REMARK    4  A    between atoms: N_7  and  C_17
REMARK    5  A    between atoms: C_13  and  C_15
REMARK    6  A    between atoms: C_16  and  C_19
REMARK    7  A    between atoms: C_17  and  C_18
REMARK    8  A    between atoms: C_18  and  C_20
REMARK                            x       y       z     vdW  Elec       q    Type
REMARK                         _______ _______ _______ _____ _____    ______ ____
ROOT
ATOM      9  C   UNL     1      -0.827  -1.480  24.824  0.00  0.00    +0.167 C 
ATOM     10  C   UNL     1      -2.349  -1.561  24.993  0.00  0.00    +0.149 C 
ATOM     11  C   UNL     1      -0.438  -0.576  23.638  0.00  0.00    +0.127 C 
ATOM     12  C   UNL     1      -2.990  -0.170  25.150  0.00  0.00    +0.074 C 
ATOM     13  C   UNL     1      -2.363   0.876  24.274  0.00  0.00    +0.015 C 
ATOM     14  C   UNL     1      -1.226   0.705  23.584  0.00  0.00    +0.006 C 
ENDROOT
BRANCH  11   6
ATOM      4  O   UNL     1       1.349  -0.390  21.358  0.00  0.00    -0.276 OA
ATOM      6  N   UNL     1       0.969  -0.258  23.651  0.00  0.00    -0.307 N 
ATOM     16  C   UNL     1       1.744  -0.192  22.504  0.00  0.00    +0.210 C 
ATOM     19  C   UNL     1       3.172   0.184  22.799  0.00  0.00    +0.109 C 
ATOM     21  H   UNL     1       1.419  -0.111  24.551  0.00  0.00    +0.149 HD
ENDBRANCH  11   6
BRANCH  13  15
ATOM      3  O   UNL     1      -3.271   2.655  23.035  0.00  0.00    -0.271 OA
ATOM      7  N   UNL     1      -3.385   2.726  25.362  0.00  0.00    -0.311 N 
ATOM     15  C   UNL     1      -3.048   2.166  24.141  0.00  0.00    +0.240 C 
ATOM     24  H   UNL     1      -3.128   2.275  26.232  0.00  0.00    +0.149 HD
BRANCH   7  17
ATOM     17  C   UNL     1      -4.064   3.995  25.487  0.00  0.00    +0.113 C 
BRANCH  17  18
ATOM     18  C   UNL     1      -5.579   3.840  25.478  0.00  0.00    +0.114 C 
BRANCH  18  20
ATOM      5  O   UNL     1      -6.095   1.601  24.694  0.00  0.00    -0.276 OA
ATOM      8  N   UNL     1      -6.403   2.096  26.917  0.00  0.00    -0.329 N 
ATOM     20  C   UNL     1      -6.040   2.401  25.622  0.00  0.00    +0.212 C 
ATOM     25  H   UNL     1      -6.353   2.776  27.669  0.00  0.00    +0.145 HD
ATOM     26  H   UNL     1      -6.736   1.169  27.161  0.00  0.00    +0.145 HD
ENDBRANCH  18  20
ENDBRANCH  17  18
ENDBRANCH   7  17
ENDBRANCH  13  15
BRANCH   9   1
ATOM      1  O   UNL     1      -0.258  -0.962  26.029  0.00  0.00    -0.387 OA
ATOM     22  H   UNL     1      -0.981  -0.852  26.670  0.00  0.00    +0.210 HD
ENDBRANCH   9   1
BRANCH  10   2
ATOM      2  O   UNL     1      -2.931  -2.244  23.884  0.00  0.00    -0.389 OA
ATOM     23  H   UNL     1      -2.219  -2.428  23.248  0.00  0.00    +0.210 HD
ENDBRANCH  10   2
TORSDOF 7
ENDMDL
MODEL 3
REMARK VINA RESULT:      -6.3      2.063      6.236
REMARK  Name = 11865680
REMARK  8 active torsions:
REMARK  status: ('A' for Active; 'I' for Inactive)
REMARK    1  A    between atoms: O_1  and  C_9
REMARK    2  A    between atoms: O_2  and  C_10
REMARK    3  A    between atoms: N_6  and  C_11
REMARK    4  A    between atoms: N_7  and  C_17
REMARK    5  A    between atoms: C_13  and  C_15
REMARK    6  A    between atoms: C_16  and  C_19
REMARK    7  A    between atoms: C_17  and  C_18
REMARK    8  A    between atoms: C_18  and  C_20
REMARK                            x       y       z     vdW  Elec       q    Type
REMARK                         _______ _______ _______ _____ _____    ______ ____
ROOT
ATOM      9  C   UNL     1      -0.702  -1.941  24.788  0.00  0.00    +0.167 C 
ATOM     10  C   UNL     1      -2.161  -2.367  24.997  0.00  0.00    +0.149 C 
ATOM     11  C   UNL     1      -0.587  -0.815  23.743  0.00  0.00    +0.127 C 
ATOM     12  C   UNL     1      -3.060  -1.182  25.390  0.00  0.00    +0.074 C 
ATOM     13  C   UNL     1      -2.722   0.088  24.664  0.00  0.00    +0.015 C 
ATOM     14  C   UNL     1      -1.623   0.264  23.916  0.00  0.00    +0.006 C 
ENDROOT
BRANCH  11   6
ATOM      4  O   UNL     1       1.231  -0.502  21.502  0.00  0.00    -0.276 OA
ATOM      6  N   UNL     1       0.723  -0.210  23.755  0.00  0.00    -0.307 N 
ATOM     16  C   UNL     1       1.521  -0.105  22.628  0.00  0.00    +0.210 C 
ATOM     19  C   UNL     1       2.826   0.590  22.913  0.00  0.00    +0.109 C 
ATOM     21  H   UNL     1       1.089   0.122  24.643  0.00  0.00    +0.149 HD
ENDBRANCH  11   6
BRANCH  13  15
ATOM      3  O   UNL     1      -4.730   1.092  25.360  0.00  0.00    -0.271 OA
ATOM      7  N   UNL     1      -3.213   2.347  24.112  0.00  0.00    -0.311 N 
ATOM     15  C   UNL     1      -3.663   1.209  24.758  0.00  0.00    +0.240 C 
ATOM     24  H   UNL     1      -2.337   2.347  23.604  0.00  0.00    +0.149 HD
BRANCH   7  17
ATOM     17  C   UNL     1      -3.968   3.578  24.066  0.00  0.00    +0.113 C 
BRANCH  17  18
ATOM     18  C   UNL     1      -3.543   4.555  25.154  0.00  0.00    +0.114 C 
BRANCH  18  20
ATOM      5  O   UNL     1      -1.675   3.514  26.303  0.00  0.00    -0.276 OA
ATOM      8  N   UNL     1      -1.289   5.389  25.032  0.00  0.00    -0.329 N 
ATOM     20  C   UNL     1      -2.090   4.403  25.567  0.00  0.00    +0.212 C 
ATOM     25  H   UNL     1      -1.655   6.118  24.428  0.00  0.00    +0.145 HD
ATOM     26  H   UNL     1      -0.293   5.416  25.227  0.00  0.00    +0.145 HD
ENDBRANCH  18  20
ENDBRANCH  17  18
ENDBRANCH   7  17
ENDBRANCH  13  15
BRANCH   9   1
ATOM      1  O   UNL     1      -0.171  -1.493  26.037  0.00  0.00    -0.387 OA
ATOM     22  H   UNL     1       0.767  -1.281  25.897  0.00  0.00    +0.210 HD
ENDBRANCH   9   1
BRANCH  10   2
ATOM      2  O   UNL     1      -2.663  -2.992  23.818  0.00  0.00    -0.389 OA
ATOM     23  H   UNL     1      -1.899  -3.302  23.302  0.00  0.00    +0.210 HD
ENDBRANCH  10   2
TORSDOF 7
ENDMDL
MODEL 4
REMARK VINA RESULT:      -6.1      3.144      5.225
REMARK  Name = 11865680
REMARK  8 active torsions:
REMARK  status: ('A' for Active; 'I' for Inactive)
REMARK    1  A    between atoms: O_1  and  C_9
REMARK    2  A    between atoms: O_2  and  C_10
REMARK    3  A    between atoms: N_6  and  C_11
REMARK    4  A    between atoms: N_7  and  C_17
REMARK    5  A    between atoms: C_13  and  C_15
REMARK    6  A    between atoms: C_16  and  C_19
REMARK    7  A    between atoms: C_17  and  C_18
REMARK    8  A    between atoms: C_18  and  C_20
REMARK                            x       y       z     vdW  Elec       q    Type
REMARK                         _______ _______ _______ _____ _____    ______ ____
ROOT
ATOM      9  C   UNL     1      -2.538  -0.026  25.140  0.00  0.00    +0.167 C 
ATOM     10  C   UNL     1      -1.484  -1.107  25.407  0.00  0.00    +0.149 C 
ATOM     11  C   UNL     1      -1.891   1.358  24.943  0.00  0.00    +0.127 C 
ATOM     12  C   UNL     1      -0.424  -1.169  24.293  0.00  0.00    +0.074 C 
ATOM     13  C   UNL     1      -0.031   0.182  23.769  0.00  0.00    +0.015 C 
ATOM     14  C   UNL     1      -0.673   1.324  24.059  0.00  0.00    +0.006 C 
ENDROOT
BRANCH  11   6
ATOM      4  O   UNL     1      -2.693   3.891  26.112  0.00  0.00    -0.276 OA
ATOM      6  N   UNL     1      -2.830   2.313  24.406  0.00  0.00    -0.307 N 
ATOM     16  C   UNL     1      -3.150   3.502  25.041  0.00  0.00    +0.210 C 
ATOM     19  C   UNL     1      -4.136   4.324  24.253  0.00  0.00    +0.109 C 
ATOM     21  H   UNL     1      -3.305   2.082  23.537  0.00  0.00    +0.149 HD
ENDBRANCH  11   6
BRANCH  13  15
ATOM      3  O   UNL     1       1.214  -0.378  21.856  0.00  0.00    -0.271 OA
ATOM      7  N   UNL     1       2.114   1.132  23.386  0.00  0.00    -0.311 N 
ATOM     15  C   UNL     1       1.147   0.270  22.899  0.00  0.00    +0.240 C 
ATOM     24  H   UNL     1       1.997   1.600  24.277  0.00  0.00    +0.149 HD
BRANCH   7  17
ATOM     17  C   UNL     1       3.363   1.382  22.704  0.00  0.00    +0.113 C 
BRANCH  17  18
ATOM     18  C   UNL     1       4.227   0.131  22.609  0.00  0.00    +0.114 C 
BRANCH  18  20
ATOM      5  O   UNL     1       5.603   0.709  24.525  0.00  0.00    -0.276 OA
ATOM      8  N   UNL     1       5.024  -1.490  24.199  0.00  0.00    -0.329 N 
ATOM     20  C   UNL     1       5.020  -0.151  23.872  0.00  0.00    +0.212 C 
ATOM     25  H   UNL     1       4.538  -2.186  23.641  0.00  0.00    +0.145 HD
ATOM     26  H   UNL     1       5.520  -1.827  25.018  0.00  0.00    +0.145 HD
ENDBRANCH  18  20
ENDBRANCH  17  18
ENDBRANCH   7  17
ENDBRANCH  13  15
BRANCH   9   1
ATOM      1  O   UNL     1      -3.276  -0.382  23.969  0.00  0.00    -0.387 OA
ATOM     22  H   UNL     1      -3.554  -1.309  24.069  0.00  0.00    +0.210 HD
ENDBRANCH   9   1
BRANCH  10   2
ATOM      2  O   UNL     1      -0.856  -0.881  26.667  0.00  0.00    -0.389 OA
ATOM     23  H   UNL     1      -1.454  -0.327  27.197  0.00  0.00    +0.210 HD
ENDBRANCH  10   2
TORSDOF 7
ENDMDL
MODEL 5
REMARK VINA RESULT:      -6.1      2.456      3.867
REMARK  Name = 11865680
REMARK  8 active torsions:
REMARK  status: ('A' for Active; 'I' for Inactive)
REMARK    1  A    between atoms: O_1  and  C_9
REMARK    2  A    between atoms: O_2  and  C_10
REMARK    3  A    between atoms: N_6  and  C_11
REMARK    4  A    between atoms: N_7  and  C_17
REMARK    5  A    between atoms: C_13  and  C_15
REMARK    6  A    between atoms: C_16  and  C_19
REMARK    7  A    between atoms: C_17  and  C_18
REMARK    8  A    between atoms: C_18  and  C_20
REMARK                            x       y       z     vdW  Elec       q    Type
REMARK                         _______ _______ _______ _____ _____    ______ ____
ROOT
ATOM      9  C   UNL     1      -2.454   4.175  25.372  0.00  0.00    +0.167 C 
ATOM     10  C   UNL     1      -0.928   4.322  25.371  0.00  0.00    +0.149 C 
ATOM     11  C   UNL     1      -2.948   3.408  24.131  0.00  0.00    +0.127 C 
ATOM     12  C   UNL     1      -0.215   2.963  25.267  0.00  0.00    +0.074 C 
ATOM     13  C   UNL     1      -0.900   2.000  24.339  0.00  0.00    +0.015 C 
ATOM     14  C   UNL     1      -2.120   2.191  23.816  0.00  0.00    +0.006 C 
ENDROOT
BRANCH  11   6
ATOM      4  O   UNL     1      -3.969   0.952  25.297  0.00  0.00    -0.276 OA
ATOM      6  N   UNL     1      -4.329   3.009  24.267  0.00  0.00    -0.307 N 
ATOM     16  C   UNL     1      -4.720   1.811  24.841  0.00  0.00    +0.210 C 
ATOM     19  C   UNL     1      -6.217   1.657  24.880  0.00  0.00    +0.109 C 
ATOM     21  H   UNL     1      -5.044   3.624  23.889  0.00  0.00    +0.149 HD
ENDBRANCH  11   6
BRANCH  13  15
ATOM      3  O   UNL     1      -0.665  -0.332  24.175  0.00  0.00    -0.271 OA
ATOM      7  N   UNL     1       1.038   1.034  23.360  0.00  0.00    -0.311 N 
ATOM     15  C   UNL     1      -0.183   0.779  23.959  0.00  0.00    +0.240 C 
ATOM     24  H   UNL     1       1.381   1.982  23.254  0.00  0.00    +0.149 HD
BRANCH   7  17
ATOM     17  C   UNL     1       1.925  -0.009  22.900  0.00  0.00    +0.113 C 
BRANCH  17  18
ATOM     18  C   UNL     1       3.300   0.527  22.523  0.00  0.00    +0.114 C 
BRANCH  18  20
ATOM      5  O   UNL     1       5.313   0.804  23.852  0.00  0.00    -0.276 OA
ATOM      8  N   UNL     1       4.272  -1.245  23.829  0.00  0.00    -0.329 N 
ATOM     20  C   UNL     1       4.402   0.079  23.465  0.00  0.00    +0.212 C 
ATOM     25  H   UNL     1       3.511  -1.828  23.493  0.00  0.00    +0.145 HD
ATOM     26  H   UNL     1       4.941  -1.683  24.453  0.00  0.00    +0.145 HD
ENDBRANCH  18  20
ENDBRANCH  17  18
ENDBRANCH   7  17
ENDBRANCH  13  15
BRANCH   9   1
ATOM      1  O   UNL     1      -2.848   3.478  26.556  0.00  0.00    -0.387 OA
ATOM     22  H   UNL     1      -3.819   3.505  26.603  0.00  0.00    +0.210 HD
ENDBRANCH   9   1
BRANCH  10   2
ATOM      2  O   UNL     1      -0.517   5.172  24.302  0.00  0.00    -0.389 OA
ATOM     23  H   UNL     1      -0.044   5.927  24.694  0.00  0.00    +0.210 HD
ENDBRANCH  10   2
TORSDOF 7
ENDMDL
MODEL 6
REMARK VINA RESULT:      -6.0      1.887      3.927
REMARK  Name = 11865680
REMARK  8 active torsions:
REMARK  status: ('A' for Active; 'I' for Inactive)
REMARK    1  A    between atoms: O_1  and  C_9
REMARK    2  A    between atoms: O_2  and  C_10
REMARK    3  A    between atoms: N_6  and  C_11
REMARK    4  A    between atoms: N_7  and  C_17
REMARK    5  A    between atoms: C_13  and  C_15
REMARK    6  A    between atoms: C_16  and  C_19
REMARK    7  A    between atoms: C_17  and  C_18
REMARK    8  A    between atoms: C_18  and  C_20
REMARK                            x       y       z     vdW  Elec       q    Type
REMARK                         _______ _______ _______ _____ _____    ______ ____
ROOT
ATOM      9  C   UNL     1      -4.994   3.806  25.402  0.00  0.00    +0.167 C 
ATOM     10  C   UNL     1      -6.055   2.722  25.628  0.00  0.00    +0.149 C 
ATOM     11  C   UNL     1      -3.582   3.294  25.745  0.00  0.00    +0.127 C 
ATOM     12  C   UNL     1      -5.748   1.438  24.837  0.00  0.00    +0.074 C 
ATOM     13  C   UNL     1      -4.287   1.094  24.803  0.00  0.00    +0.015 C 
ATOM     14  C   UNL     1      -3.306   1.912  25.215  0.00  0.00    +0.006 C 
ENDROOT
BRANCH  11   6
ATOM      4  O   UNL     1      -0.706   2.974  25.973  0.00  0.00    -0.276 OA
ATOM      6  N   UNL     1      -2.560   4.191  25.262  0.00  0.00    -0.307 N 
ATOM     16  C   UNL     1      -1.204   3.951  25.419  0.00  0.00    +0.210 C 
ATOM     19  C   UNL     1      -0.357   5.032  24.802  0.00  0.00    +0.109 C 
ATOM     21  H   UNL     1      -2.853   5.057  24.819  0.00  0.00    +0.149 HD
ENDBRANCH  11   6
BRANCH  13  15
ATOM      3  O   UNL     1      -3.920  -0.489  23.107  0.00  0.00    -0.271 OA
ATOM      7  N   UNL     1      -3.532  -1.099  25.322  0.00  0.00    -0.311 N 
ATOM     15  C   UNL     1      -3.900  -0.231  24.309  0.00  0.00    +0.240 C 
ATOM     24  H   UNL     1      -3.581  -0.818  26.294  0.00  0.00    +0.149 HD
BRANCH   7  17
ATOM     17  C   UNL     1      -3.113  -2.460  25.082  0.00  0.00    +0.113 C 
BRANCH  17  18
ATOM     18  C   UNL     1      -1.642  -2.551  24.696  0.00  0.00    +0.114 C 
BRANCH  18  20
ATOM      5  O   UNL     1      -0.909  -0.841  26.256  0.00  0.00    -0.276 OA
ATOM      8  N   UNL     1       0.011  -0.889  24.151  0.00  0.00    -0.329 N 
ATOM     20  C   UNL     1      -0.827  -1.352  25.144  0.00  0.00    +0.212 C 
ATOM     25  H   UNL     1       0.059  -1.324  23.235  0.00  0.00    +0.145 HD
ATOM     26  H   UNL     1       0.613  -0.087  24.308  0.00  0.00    +0.145 HD
ENDBRANCH  18  20
ENDBRANCH  17  18
ENDBRANCH   7  17
ENDBRANCH  13  15
BRANCH   9   1
ATOM      1  O   UNL     1      -5.038   4.214  24.034  0.00  0.00    -0.387 OA
ATOM     22  H   UNL     1      -4.787   5.153  24.000  0.00  0.00    +0.210 HD
ENDBRANCH   9   1
BRANCH  10   2
ATOM      2  O   UNL     1      -6.167   2.425  27.018  0.00  0.00    -0.389 OA
ATOM     23  H   UNL     1      -6.926   2.924  27.364  0.00  0.00    +0.210 HD
ENDBRANCH  10   2
TORSDOF 7
ENDMDL
MODEL 7
REMARK VINA RESULT:      -5.7      1.719      4.733
REMARK  Name = 11865680
REMARK  8 active torsions:
REMARK  status: ('A' for Active; 'I' for Inactive)
REMARK    1  A    between atoms: O_1  and  C_9
REMARK    2  A    between atoms: O_2  and  C_10
REMARK    3  A    between atoms: N_6  and  C_11
REMARK    4  A    between atoms: N_7  and  C_17
REMARK    5  A    between atoms: C_13  and  C_15
REMARK    6  A    between atoms: C_16  and  C_19
REMARK    7  A    between atoms: C_17  and  C_18
REMARK    8  A    between atoms: C_18  and  C_20
REMARK                            x       y       z     vdW  Elec       q    Type
REMARK                         _______ _______ _______ _____ _____    ______ ____
ROOT
ATOM      9  C   UNL     1       0.058   0.309  24.289  0.00  0.00    +0.167 C 
ATOM     10  C   UNL     1       0.441   1.780  24.492  0.00  0.00    +0.149 C 
ATOM     11  C   UNL     1      -1.245  -0.043  25.032  0.00  0.00    +0.127 C 
ATOM     12  C   UNL     1      -0.688   2.736  24.069  0.00  0.00    +0.074 C 
ATOM     13  C   UNL     1      -2.057   2.237  24.430  0.00  0.00    +0.015 C 
ATOM     14  C   UNL     1      -2.321   0.998  24.871  0.00  0.00    +0.006 C 
ENDROOT
BRANCH  11   6
ATOM      4  O   UNL     1      -3.704  -1.314  25.908  0.00  0.00    -0.276 OA
ATOM      6  N   UNL     1      -1.768  -1.322  24.615  0.00  0.00    -0.307 N 
ATOM     16  C   UNL     1      -2.957  -1.848  25.091  0.00  0.00    +0.210 C 
ATOM     19  C   UNL     1      -3.281  -3.182  24.474  0.00  0.00    +0.109 C 
ATOM     21  H   UNL     1      -1.215  -1.876  23.967  0.00  0.00    +0.149 HD
ENDBRANCH  11   6
BRANCH  13  15
ATOM      3  O   UNL     1      -3.580   3.551  23.215  0.00  0.00    -0.271 OA
ATOM      7  N   UNL     1      -3.708   3.536  25.542  0.00  0.00    -0.311 N 
ATOM     15  C   UNL     1      -3.184   3.168  24.315  0.00  0.00    +0.240 C 
ATOM     24  H   UNL     1      -3.295   3.204  26.407  0.00  0.00    +0.149 HD
BRANCH   7  17
ATOM     17  C   UNL     1      -4.821   4.445  25.685  0.00  0.00    +0.113 C 
BRANCH  17  18
ATOM     18  C   UNL     1      -6.160   3.755  25.464  0.00  0.00    +0.114 C 
BRANCH  18  20
ATOM      5  O   UNL     1      -5.782   1.430  24.873  0.00  0.00    -0.276 OA
ATOM      8  N   UNL     1      -6.507   1.932  26.995  0.00  0.00    -0.329 N 
ATOM     20  C   UNL     1      -6.116   2.259  25.715  0.00  0.00    +0.212 C 
ATOM     25  H   UNL     1      -6.783   2.634  27.675  0.00  0.00    +0.145 HD
ATOM     26  H   UNL     1      -6.531   0.965  27.303  0.00  0.00    +0.145 HD
ENDBRANCH  18  20
ENDBRANCH  17  18
ENDBRANCH   7  17
ENDBRANCH  13  15
BRANCH   9   1
ATOM      1  O   UNL     1      -0.107   0.065  22.890  0.00  0.00    -0.387 OA
ATOM     22  H   UNL     1       0.715   0.337  22.447  0.00  0.00    +0.210 HD
ENDBRANCH   9   1
BRANCH  10   2
ATOM      2  O   UNL     1       0.794   2.012  25.853  0.00  0.00    -0.389 OA
ATOM     23  H   UNL     1       0.214   1.459  26.405  0.00  0.00    +0.210 HD
ENDBRANCH  10   2
TORSDOF 7
ENDMDL
MODEL 8
REMARK VINA RESULT:      -4.9      1.590      4.926
REMARK  Name = 11865680
REMARK  8 active torsions:
REMARK  status: ('A' for Active; 'I' for Inactive)
REMARK    1  A    between atoms: O_1  and  C_9
REMARK    2  A    between atoms: O_2  and  C_10
REMARK    3  A    between atoms: N_6  and  C_11
REMARK    4  A    between atoms: N_7  and  C_17
REMARK    5  A    between atoms: C_13  and  C_15
REMARK    6  A    between atoms: C_16  and  C_19
REMARK    7  A    between atoms: C_17  and  C_18
REMARK    8  A    between atoms: C_18  and  C_20
REMARK                            x       y       z     vdW  Elec       q    Type
REMARK                         _______ _______ _______ _____ _____    ______ ____
ROOT
ATOM      9  C   UNL     1      -3.321  -1.888  24.555  0.00  0.00    +0.167 C 
ATOM     10  C   UNL     1      -1.883  -2.349  24.288  0.00  0.00    +0.149 C 
ATOM     11  C   UNL     1      -3.359  -0.694  25.528  0.00  0.00    +0.127 C 
ATOM     12  C   UNL     1      -0.996  -1.206  23.764  0.00  0.00    +0.074 C 
ATOM     13  C   UNL     1      -1.275   0.114  24.422  0.00  0.00    +0.015 C 
ATOM     14  C   UNL     1      -2.324   0.355  25.222  0.00  0.00    +0.006 C 
ENDROOT
BRANCH  11   6
ATOM      4  O   UNL     1      -4.130   1.834  24.327  0.00  0.00    -0.276 OA
ATOM      6  N   UNL     1      -4.661  -0.072  25.555  0.00  0.00    -0.307 N 
ATOM     16  C   UNL     1      -4.934   1.144  24.949  0.00  0.00    +0.210 C 
ATOM     19  C   UNL     1      -6.375   1.551  25.107  0.00  0.00    +0.109 C 
ATOM     21  H   UNL     1      -5.402  -0.533  26.076  0.00  0.00    +0.149 HD
ENDBRANCH  11   6
BRANCH  13  15
ATOM      3  O   UNL     1       0.805   0.994  23.774  0.00  0.00    -0.271 OA
ATOM      7  N   UNL     1      -0.857   2.452  24.512  0.00  0.00    -0.311 N 
ATOM     15  C   UNL     1      -0.329   1.212  24.198  0.00  0.00    +0.240 C 
ATOM     24  H   UNL     1      -1.791   2.540  24.896  0.00  0.00    +0.149 HD
BRANCH   7  17
ATOM     17  C   UNL     1      -0.114   3.683  24.376  0.00  0.00    +0.113 C 
BRANCH  17  18
ATOM     18  C   UNL     1      -0.906   4.891  24.859  0.00  0.00    +0.114 C 
BRANCH  18  20
ATOM      5  O   UNL     1      -2.569   4.192  26.485  0.00  0.00    -0.276 OA
ATOM      8  N   UNL     1      -3.243   4.649  24.337  0.00  0.00    -0.329 N 
ATOM     20  C   UNL     1      -2.303   4.542  25.340  0.00  0.00    +0.212 C 
ATOM     25  H   UNL     1      -3.000   4.936  23.394  0.00  0.00    +0.145 HD
ATOM     26  H   UNL     1      -4.220   4.441  24.512  0.00  0.00    +0.145 HD
ENDBRANCH  18  20
ENDBRANCH  17  18
ENDBRANCH   7  17
ENDBRANCH  13  15
BRANCH   9   1
ATOM      1  O   UNL     1      -3.922  -1.516  23.314  0.00  0.00    -0.387 OA
ATOM     22  H   UNL     1      -4.476  -2.260  23.022  0.00  0.00    +0.210 HD
ENDBRANCH   9   1
BRANCH  10   2
ATOM      2  O   UNL     1      -1.316  -2.903  25.474  0.00  0.00    -0.389 OA
ATOM     23  H   UNL     1      -0.627  -2.290  25.782  0.00  0.00    +0.210 HD
ENDBRANCH  10   2
TORSDOF 7
ENDMDL
MODEL 9
REMARK VINA RESULT:      -4.6      2.971      5.071
REMARK  Name = 11865680
REMARK  8 active torsions:
REMARK  status: ('A' for Active; 'I' for Inactive)
REMARK    1  A    between atoms: O_1  and  C_9
REMARK    2  A    between atoms: O_2  and  C_10
REMARK    3  A    between atoms: N_6  and  C_11
REMARK    4  A    between atoms: N_7  and  C_17
REMARK    5  A    between atoms: C_13  and  C_15
REMARK    6  A    between atoms: C_16  and  C_19
REMARK    7  A    between atoms: C_17  and  C_18
REMARK    8  A    between atoms: C_18  and  C_20
REMARK                            x       y       z     vdW  Elec       q    Type
REMARK                         _______ _______ _______ _____ _____    ______ ____
ROOT
ATOM      9  C   UNL     1      -4.708   1.644  24.265  0.00  0.00    +0.167 C 
ATOM     10  C   UNL     1      -4.385   3.087  23.859  0.00  0.00    +0.149 C 
ATOM     11  C   UNL     1      -3.453   0.752  24.224  0.00  0.00    +0.127 C 
ATOM     12  C   UNL     1      -3.269   3.696  24.726  0.00  0.00    +0.074 C 
ATOM     13  C   UNL     1      -2.175   2.723  25.059  0.00  0.00    +0.015 C 
ATOM     14  C   UNL     1      -2.240   1.403  24.832  0.00  0.00    +0.006 C 
ENDROOT
BRANCH  11   6
ATOM      4  O   UNL     1      -1.849  -1.659  24.002  0.00  0.00    -0.276 OA
ATOM      6  N   UNL     1      -3.679  -0.515  24.878  0.00  0.00    -0.307 N 
ATOM     16  C   UNL     1      -2.853  -1.615  24.709  0.00  0.00    +0.210 C 
ATOM     19  C   UNL     1      -3.302  -2.798  25.525  0.00  0.00    +0.109 C 
ATOM     21  H   UNL     1      -4.505  -0.612  25.461  0.00  0.00    +0.149 HD
ENDBRANCH  11   6
BRANCH  13  15
ATOM      3  O   UNL     1      -0.540   4.379  25.386  0.00  0.00    -0.271 OA
ATOM      7  N   UNL     1      -0.327   2.346  26.506  0.00  0.00    -0.311 N 
ATOM     15  C   UNL     1      -0.941   3.248  25.654  0.00  0.00    +0.240 C 
ATOM     24  H   UNL     1      -0.704   1.416  26.642  0.00  0.00    +0.149 HD
BRANCH   7  17
ATOM     17  C   UNL     1       0.902   2.636  27.207  0.00  0.00    +0.113 C 
BRANCH  17  18
ATOM     18  C   UNL     1       0.737   2.549  28.719  0.00  0.00    +0.114 C 
BRANCH  18  20
ATOM      5  O   UNL     1       2.113   1.741  30.549  0.00  0.00    -0.276 OA
ATOM      8  N   UNL     1       3.135   2.747  28.754  0.00  0.00    -0.329 N 
ATOM     20  C   UNL     1       2.040   2.287  29.453  0.00  0.00    +0.212 C 
ATOM     25  H   UNL     1       3.051   3.200  27.850  0.00  0.00    +0.145 HD
ATOM     26  H   UNL     1       4.074   2.644  29.127  0.00  0.00    +0.145 HD
ENDBRANCH  18  20
ENDBRANCH  17  18
ENDBRANCH   7  17
ENDBRANCH  13  15
BRANCH   9   1
ATOM      1  O   UNL     1      -5.250   1.649  25.587  0.00  0.00    -0.387 OA
ATOM     22  H   UNL     1      -5.425   0.725  25.835  0.00  0.00    +0.210 HD
ENDBRANCH   9   1
BRANCH  10   2
ATOM      2  O   UNL     1      -4.017   3.140  22.483  0.00  0.00    -0.389 OA
ATOM     23  H   UNL     1      -3.411   2.399  22.313  0.00  0.00    +0.210 HD
ENDBRANCH  10   2
TORSDOF 7
ENDMDL
MODEL 10
REMARK VINA RESULT:      -4.4      2.613      4.618
REMARK  Name = 11865680
REMARK  8 active torsions:
REMARK  status: ('A' for Active; 'I' for Inactive)
REMARK    1  A    between atoms: O_1  and  C_9
REMARK    2  A    between atoms: O_2  and  C_10
REMARK    3  A    between atoms: N_6  and  C_11
REMARK    4  A    between atoms: N_7  and  C_17
REMARK    5  A    between atoms: C_13  and  C_15
REMARK    6  A    between atoms: C_16  and  C_19
REMARK    7  A    between atoms: C_17  and  C_18
REMARK    8  A    between atoms: C_18  and  C_20
REMARK                            x       y       z     vdW  Elec       q    Type
REMARK                         _______ _______ _______ _____ _____    ______ ____
ROOT
ATOM      9  C   UNL     1      -4.701   1.583  24.642  0.00  0.00    +0.167 C 
ATOM     10  C   UNL     1      -4.203   3.003  24.937  0.00  0.00    +0.149 C 
ATOM     11  C   UNL     1      -3.770   0.851  23.657  0.00  0.00    +0.127 C 
ATOM     12  C   UNL     1      -2.758   3.012  25.464  0.00  0.00    +0.074 C 
ATOM     13  C   UNL     1      -1.871   2.006  24.787  0.00  0.00    +0.015 C 
ATOM     14  C   UNL     1      -2.309   1.039  23.969  0.00  0.00    +0.006 C 
ENDROOT
BRANCH  11   6
ATOM      4  O   UNL     1      -2.768  -1.221  25.427  0.00  0.00    -0.276 OA
ATOM      6  N   UNL     1      -4.057  -0.562  23.603  0.00  0.00    -0.307 N 
ATOM     16  C   UNL     1      -3.529  -1.479  24.498  0.00  0.00    +0.210 C 
ATOM     19  C   UNL     1      -4.010  -2.881  24.232  0.00  0.00    +0.109 C 
ATOM     21  H   UNL     1      -4.647  -0.903  22.849  0.00  0.00    +0.149 HD
ENDBRANCH  11   6
BRANCH  13  15
ATOM      3  O   UNL     1       0.025   2.637  26.024  0.00  0.00    -0.271 OA
ATOM      7  N   UNL     1       0.318   1.523  23.999  0.00  0.00    -0.311 N 
ATOM     15  C   UNL     1      -0.425   2.096  25.016  0.00  0.00    +0.240 C 
ATOM     24  H   UNL     1      -0.131   1.131  23.180  0.00  0.00    +0.149 HD
BRANCH   7  17
ATOM     17  C   UNL     1       1.763   1.490  23.999  0.00  0.00    +0.113 C 
BRANCH  17  18
ATOM     18  C   UNL     1       2.314   0.380  23.114  0.00  0.00    +0.114 C 
BRANCH  18  20
ATOM      5  O   UNL     1       4.679   0.788  23.482  0.00  0.00    -0.276 OA
ATOM      8  N   UNL     1       3.911   0.588  21.326  0.00  0.00    -0.329 N 
ATOM     20  C   UNL     1       3.756   0.603  22.696  0.00  0.00    +0.212 C 
ATOM     25  H   UNL     1       3.132   0.437  20.693  0.00  0.00    +0.145 HD
ATOM     26  H   UNL     1       4.822   0.729  20.902  0.00  0.00    +0.145 HD
ENDBRANCH  18  20
ENDBRANCH  17  18
ENDBRANCH   7  17
ENDBRANCH  13  15
BRANCH   9   1
ATOM      1  O   UNL     1      -4.768   0.855  25.870  0.00  0.00    -0.387 OA
ATOM     22  H   UNL     1      -4.850   1.503  26.591  0.00  0.00    +0.210 HD
ENDBRANCH   9   1
BRANCH  10   2
ATOM      2  O   UNL     1      -4.302   3.811  23.766  0.00  0.00    -0.389 OA
ATOM     23  H   UNL     1      -3.403   4.104  23.537  0.00  0.00    +0.210 HD
ENDBRANCH  10   2
TORSDOF 7
ENDMDL
