MODEL 1
REMARK VINA RESULT:      -2.0      0.000      0.000
REMARK  Name = 28960388
REMARK  7 active torsions:
REMARK  status: ('A' for Active; 'I' for Inactive)
REMARK    1  A    between atoms: O_3  and  C_8
REMARK    2  A    between atoms: N_5  and  C_7
REMARK    3  A    between atoms: N_6  and  C_9
REMARK    4  A    between atoms: N_6  and  C_19
REMARK    5  A    between atoms: C_14  and  C_18
REMARK    6  A    between atoms: C_18  and  C_20
REMARK    7  A    between atoms: C_19  and  C_21
REMARK                            x       y       z     vdW  Elec       q    Type
REMARK                         _______ _______ _______ _____ _____    ______ ____
ROOT
ATOM      1  O   UNL     1      -4.343   2.631  23.681  0.00  0.00    -0.343 OA
ATOM      2  O   UNL     1      -4.174   4.885  24.201  0.00  0.00    -0.347 OA
ATOM      7  C   UNL     1      -2.426   3.387  24.939  0.00  0.00    +0.143 C 
ATOM      8  C   UNL     1      -3.177   3.130  26.267  0.00  0.00    +0.156 C 
ATOM      9  C   UNL     1      -4.565   2.466  26.083  0.00  0.00    +0.116 C 
ATOM     10  C   UNL     1      -3.422   3.723  23.814  0.00  0.00    +0.270 C 
ATOM     11  C   UNL     1      -5.250   2.881  24.761  0.00  0.00    +0.166 C 
ATOM     15  C   UNL     1      -5.454   4.377  24.609  0.00  0.00    +0.196 C 
ENDROOT
BRANCH   7   5
ATOM      5  N   UNL     1      -1.624   2.222  24.565  0.00  0.00    -0.293 NA
ATOM     12  C   UNL     1      -0.220   2.419  24.950  0.00  0.00    +0.085 C 
ATOM     13  C   UNL     1      -1.746   1.954  23.126  0.00  0.00    +0.085 C 
ATOM     14  C   UNL     1       0.519   0.829  23.129  0.00  0.00    -0.004 C 
ATOM     16  C   UNL     1       0.623   1.189  24.615  0.00  0.00    +0.019 C 
ATOM     17  C   UNL     1      -0.955   0.707  22.727  0.00  0.00    +0.019 C 
BRANCH  14  18
ATOM     18  C   UNL     1       1.281  -0.456  22.819  0.00  0.00    +0.038 C 
BRANCH  18  20
ATOM     20  C   UNL     1       2.755  -0.304  23.080  0.00  0.00    -0.047 A 
ATOM     22  C   UNL     1       3.409   0.876  22.724  0.00  0.00    +0.003 A 
ATOM     23  C   UNL     1       3.468  -1.344  23.675  0.00  0.00    +0.003 A 
ATOM     25  C   UNL     1       4.775   1.016  22.965  0.00  0.00    +0.000 A 
ATOM     26  C   UNL     1       4.835  -1.203  23.917  0.00  0.00    +0.000 A 
ATOM     27  C   UNL     1       5.489  -0.024  23.562  0.00  0.00    +0.000 A 
ENDBRANCH  18  20
ENDBRANCH  14  18
ENDBRANCH   7   5
BRANCH   8   3
ATOM      3  O   UNL     1      -3.361   4.398  26.913  0.00  0.00    -0.388 OA
ATOM     31  H   UNL     1      -4.303   4.477  27.142  0.00  0.00    +0.210 HD
ENDBRANCH   8   3
BRANCH   9   6
ATOM      6  N   UNL     1      -4.442   1.004  26.096  0.00  0.00    -0.302 NA
ATOM     30  H   UNL     1      -3.497   0.746  26.377  0.00  0.00    +0.123 HD
BRANCH   6  19
ATOM     19  C   UNL     1      -4.701   0.459  24.775  0.00  0.00    +0.156 C 
BRANCH  19  21
ATOM      4  O   UNL     1      -2.743  -0.947  25.110  0.00  0.00    -0.467 OA
ATOM     21  C   UNL     1      -3.979  -0.842  24.554  0.00  0.00    +0.119 A 
ATOM     24  C   UNL     1      -4.307  -2.000  23.887  0.00  0.00    +0.046 A 
ATOM     28  C   UNL     1      -3.202  -2.870  24.042  0.00  0.00    +0.041 A 
ATOM     29  C   UNL     1      -2.277  -2.183  24.794  0.00  0.00    +0.195 A 
ENDBRANCH  19  21
ENDBRANCH   6  19
ENDBRANCH   9   6
TORSDOF 7
ENDMDL
MODEL 2
REMARK VINA RESULT:       0.8      1.819      4.158
REMARK  Name = 28960388
REMARK  7 active torsions:
REMARK  status: ('A' for Active; 'I' for Inactive)
REMARK    1  A    between atoms: O_3  and  C_8
REMARK    2  A    between atoms: N_5  and  C_7
REMARK    3  A    between atoms: N_6  and  C_9
REMARK    4  A    between atoms: N_6  and  C_19
REMARK    5  A    between atoms: C_14  and  C_18
REMARK    6  A    between atoms: C_18  and  C_20
REMARK    7  A    between atoms: C_19  and  C_21
REMARK                            x       y       z     vdW  Elec       q    Type
REMARK                         _______ _______ _______ _____ _____    ______ ____
ROOT
ATOM      1  O   UNL     1      -2.549   0.707  25.801  0.00  0.00    -0.343 OA
ATOM      2  O   UNL     1      -3.618  -1.267  26.385  0.00  0.00    -0.347 OA
ATOM      7  C   UNL     1      -1.830  -1.349  24.760  0.00  0.00    +0.143 C 
ATOM      8  C   UNL     1      -2.839  -1.135  23.607  0.00  0.00    +0.156 C 
ATOM      9  C   UNL     1      -3.591   0.217  23.675  0.00  0.00    +0.116 C 
ATOM     10  C   UNL     1      -2.344  -0.690  26.053  0.00  0.00    +0.270 C 
ATOM     11  C   UNL     1      -3.813   0.699  25.127  0.00  0.00    +0.166 C 
ATOM     15  C   UNL     1      -4.583  -0.277  25.996  0.00  0.00    +0.196 C 
ENDROOT
BRANCH   7   5
ATOM      5  N   UNL     1      -0.519  -0.803  24.407  0.00  0.00    -0.293 NA
ATOM     12  C   UNL     1      -0.420   0.604  24.818  0.00  0.00    +0.085 C 
ATOM     13  C   UNL     1      -0.269  -0.954  22.968  0.00  0.00    +0.085 C 
ATOM     14  C   UNL     1       1.307   1.023  23.019  0.00  0.00    -0.004 C 
ATOM     16  C   UNL     1       0.964   1.175  24.505  0.00  0.00    +0.019 C 
ATOM     17  C   UNL     1       1.120  -0.437  22.591  0.00  0.00    +0.019 C 
BRANCH  14  18
ATOM     18  C   UNL     1       2.726   1.502  22.731  0.00  0.00    +0.038 C 
BRANCH  18  20
ATOM     20  C   UNL     1       3.755   0.514  23.210  0.00  0.00    -0.047 A 
ATOM     22  C   UNL     1       3.401  -0.822  23.405  0.00  0.00    +0.003 A 
ATOM     23  C   UNL     1       5.061   0.933  23.458  0.00  0.00    +0.003 A 
ATOM     25  C   UNL     1       4.354  -1.738  23.849  0.00  0.00    +0.000 A 
ATOM     26  C   UNL     1       6.015   0.015  23.901  0.00  0.00    +0.000 A 
ATOM     27  C   UNL     1       5.661  -1.320  24.098  0.00  0.00    +0.000 A 
ENDBRANCH  18  20
ENDBRANCH  14  18
ENDBRANCH   7   5
BRANCH   8   3
ATOM      3  O   UNL     1      -3.803  -2.197  23.673  0.00  0.00    -0.388 OA
ATOM     31  H   UNL     1      -4.080  -2.284  24.601  0.00  0.00    +0.210 HD
ENDBRANCH   8   3
BRANCH   9   6
ATOM      6  N   UNL     1      -2.848   1.257  22.956  0.00  0.00    -0.302 NA
ATOM     30  H   UNL     1      -1.902   1.319  23.332  0.00  0.00    +0.123 HD
BRANCH   6  19
ATOM     19  C   UNL     1      -3.496   2.547  23.111  0.00  0.00    +0.156 C 
BRANCH  19  21
ATOM      4  O   UNL     1      -1.423   3.541  23.909  0.00  0.00    -0.467 OA
ATOM     21  C   UNL     1      -2.766   3.428  24.088  0.00  0.00    +0.119 A 
ATOM     24  C   UNL     1      -3.173   4.177  25.167  0.00  0.00    +0.046 A 
ATOM     28  C   UNL     1      -2.007   4.788  25.685  0.00  0.00    +0.041 A 
ATOM     29  C   UNL     1      -0.969   4.370  24.885  0.00  0.00    +0.195 A 
ENDBRANCH  19  21
ENDBRANCH   6  19
ENDBRANCH   9   6
TORSDOF 7
ENDMDL
MODEL 3
REMARK VINA RESULT:       1.6      2.325      3.872
REMARK  Name = 28960388
REMARK  7 active torsions:
REMARK  status: ('A' for Active; 'I' for Inactive)
REMARK    1  A    between atoms: O_3  and  C_8
REMARK    2  A    between atoms: N_5  and  C_7
REMARK    3  A    between atoms: N_6  and  C_9
REMARK    4  A    between atoms: N_6  and  C_19
REMARK    5  A    between atoms: C_14  and  C_18
REMARK    6  A    between atoms: C_18  and  C_20
REMARK    7  A    between atoms: C_19  and  C_21
REMARK                            x       y       z     vdW  Elec       q    Type
REMARK                         _______ _______ _______ _____ _____    ______ ____
ROOT
ATOM      1  O   UNL     1      -3.555   1.966  25.356  0.00  0.00    -0.343 OA
ATOM      2  O   UNL     1      -4.294   3.761  24.087  0.00  0.00    -0.347 OA
ATOM      7  C   UNL     1      -1.976   3.097  23.923  0.00  0.00    +0.143 C 
ATOM      8  C   UNL     1      -1.597   4.058  25.074  0.00  0.00    +0.156 C 
ATOM      9  C   UNL     1      -2.274   3.716  26.424  0.00  0.00    +0.116 C 
ATOM     10  C   UNL     1      -3.429   2.613  24.083  0.00  0.00    +0.270 C 
ATOM     11  C   UNL     1      -3.674   3.085  26.242  0.00  0.00    +0.166 C 
ATOM     15  C   UNL     1      -4.650   3.949  25.465  0.00  0.00    +0.196 C 
ENDROOT
BRANCH   7   5
ATOM      5  N   UNL     1      -1.068   1.950  23.887  0.00  0.00    -0.293 NA
ATOM     12  C   UNL     1       0.330   2.400  23.883  0.00  0.00    +0.085 C 
ATOM     13  C   UNL     1      -1.355   1.103  22.721  0.00  0.00    +0.085 C 
ATOM     14  C   UNL     1       1.030   0.265  22.724  0.00  0.00    -0.004 C 
ATOM     16  C   UNL     1       1.293   1.212  23.899  0.00  0.00    +0.019 C 
ATOM     17  C   UNL     1      -0.451  -0.130  22.698  0.00  0.00    +0.019 C 
BRANCH  14  18
ATOM     18  C   UNL     1       1.926  -0.968  22.801  0.00  0.00    +0.038 C 
BRANCH  18  20
ATOM     20  C   UNL     1       3.339  -0.606  23.170  0.00  0.00    -0.047 A 
ATOM     22  C   UNL     1       4.130  -1.514  23.875  0.00  0.00    +0.003 A 
ATOM     23  C   UNL     1       3.857   0.636  22.807  0.00  0.00    +0.003 A 
ATOM     25  C   UNL     1       5.440  -1.179  24.216  0.00  0.00    +0.000 A 
ATOM     26  C   UNL     1       5.169   0.971  23.148  0.00  0.00    +0.000 A 
ATOM     27  C   UNL     1       5.959   0.064  23.854  0.00  0.00    +0.000 A 
ENDBRANCH  18  20
ENDBRANCH  14  18
ENDBRANCH   7   5
BRANCH   8   3
ATOM      3  O   UNL     1      -1.998   5.380  24.684  0.00  0.00    -0.388 OA
ATOM     31  H   UNL     1      -2.970   5.404  24.687  0.00  0.00    +0.210 HD
ENDBRANCH   8   3
BRANCH   9   6
ATOM      6  N   UNL     1      -1.447   2.782  27.194  0.00  0.00    -0.302 NA
ATOM     30  H   UNL     1      -1.572   2.959  28.190  0.00  0.00    +0.123 HD
BRANCH   6  19
ATOM     19  C   UNL     1      -0.042   2.954  26.864  0.00  0.00    +0.156 C 
BRANCH  19  21
ATOM      4  O   UNL     1       2.176   2.938  27.867  0.00  0.00    -0.467 OA
ATOM     21  C   UNL     1       0.846   2.730  28.058  0.00  0.00    +0.119 A 
ATOM     24  C   UNL     1       0.599   2.346  29.356  0.00  0.00    +0.046 A 
ATOM     28  C   UNL     1       1.857   2.316  30.003  0.00  0.00    +0.041 A 
ATOM     29  C   UNL     1       2.783   2.684  29.055  0.00  0.00    +0.195 A 
ENDBRANCH  19  21
ENDBRANCH   6  19
ENDBRANCH   9   6
TORSDOF 7
ENDMDL
MODEL 4
REMARK VINA RESULT:       1.8      1.681      3.831
REMARK  Name = 28960388
REMARK  7 active torsions:
REMARK  status: ('A' for Active; 'I' for Inactive)
REMARK    1  A    between atoms: O_3  and  C_8
REMARK    2  A    between atoms: N_5  and  C_7
REMARK    3  A    between atoms: N_6  and  C_9
REMARK    4  A    between atoms: N_6  and  C_19
REMARK    5  A    between atoms: C_14  and  C_18
REMARK    6  A    between atoms: C_18  and  C_20
REMARK    7  A    between atoms: C_19  and  C_21
REMARK                            x       y       z     vdW  Elec       q    Type
REMARK                         _______ _______ _______ _____ _____    ______ ____
ROOT
ATOM      1  O   UNL     1      -4.847   0.725  25.882  0.00  0.00    -0.343 OA
ATOM      2  O   UNL     1      -6.185   1.070  24.019  0.00  0.00    -0.347 OA
ATOM      7  C   UNL     1      -3.784   1.174  23.762  0.00  0.00    +0.143 C 
ATOM      8  C   UNL     1      -3.796   2.691  24.060  0.00  0.00    +0.156 C 
ATOM      9  C   UNL     1      -4.312   3.047  25.477  0.00  0.00    +0.116 C 
ATOM     10  C   UNL     1      -4.957   0.476  24.473  0.00  0.00    +0.270 C 
ATOM     11  C   UNL     1      -5.378   2.051  25.987  0.00  0.00    +0.166 C 
ATOM     15  C   UNL     1      -6.597   1.931  25.091  0.00  0.00    +0.196 C 
ENDROOT
BRANCH   7   5
ATOM      5  N   UNL     1      -2.517   0.575  24.181  0.00  0.00    -0.293 NA
ATOM     12  C   UNL     1      -1.390   1.218  23.493  0.00  0.00    +0.085 C 
ATOM     13  C   UNL     1      -2.528  -0.874  23.939  0.00  0.00    +0.085 C 
ATOM     14  C   UNL     1      -0.005  -0.880  23.766  0.00  0.00    -0.004 C 
ATOM     16  C   UNL     1      -0.054   0.640  23.960  0.00  0.00    +0.019 C 
ATOM     17  C   UNL     1      -1.231  -1.526  24.422  0.00  0.00    +0.019 C 
BRANCH  14  18
ATOM     18  C   UNL     1       1.288  -1.464  24.325  0.00  0.00    +0.038 C 
BRANCH  18  20
ATOM     20  C   UNL     1       2.500  -0.788  23.745  0.00  0.00    -0.047 A 
ATOM     22  C   UNL     1       3.773  -1.301  23.996  0.00  0.00    +0.003 A 
ATOM     23  C   UNL     1       2.351   0.354  22.958  0.00  0.00    +0.003 A 
ATOM     25  C   UNL     1       4.896  -0.674  23.458  0.00  0.00    +0.000 A 
ATOM     26  C   UNL     1       3.475   0.981  22.419  0.00  0.00    +0.000 A 
ATOM     27  C   UNL     1       4.748   0.468  22.670  0.00  0.00    +0.000 A 
ENDBRANCH  18  20
ENDBRANCH  14  18
ENDBRANCH   7   5
BRANCH   8   3
ATOM      3  O   UNL     1      -4.653   3.316  23.093  0.00  0.00    -0.388 OA
ATOM     31  H   UNL     1      -5.091   2.609  22.589  0.00  0.00    +0.210 HD
ENDBRANCH   8   3
BRANCH   9   6
ATOM      6  N   UNL     1      -3.205   3.065  26.438  0.00  0.00    -0.302 NA
ATOM     30  H   UNL     1      -3.544   2.769  27.353  0.00  0.00    +0.123 HD
BRANCH   6  19
ATOM     19  C   UNL     1      -2.655   4.405  26.558  0.00  0.00    +0.156 C 
BRANCH  19  21
ATOM      4  O   UNL     1      -0.689   3.689  25.314  0.00  0.00    -0.467 OA
ATOM     21  C   UNL     1      -1.603   4.675  25.517  0.00  0.00    +0.119 A 
ATOM     24  C   UNL     1      -1.351   5.744  24.688  0.00  0.00    +0.046 A 
ATOM     28  C   UNL     1      -0.210   5.393  23.929  0.00  0.00    +0.041 A 
ATOM     29  C   UNL     1       0.154   4.134  24.347  0.00  0.00    +0.195 A 
ENDBRANCH  19  21
ENDBRANCH   6  19
ENDBRANCH   9   6
TORSDOF 7
ENDMDL
