MODEL 1
REMARK VINA RESULT:       2.5      0.000      0.000
REMARK  Name = 11886262
REMARK  6 active torsions:
REMARK  status: ('A' for Active; 'I' for Inactive)
REMARK    1  A    between atoms: O_3  and  C_27
REMARK    2  A    between atoms: O_3  and  C_28
REMARK    3  A    between atoms: N_5  and  C_16
REMARK    4  A    between atoms: N_6  and  C_17
REMARK    5  A    between atoms: N_7  and  C_20
REMARK    6  A    between atoms: N_11  and  C_33
REMARK                            x       y       z     vdW  Elec       q    Type
REMARK                         _______ _______ _______ _____ _____    ______ ____
ROOT
ATOM      1  O   UNL     1      -2.381  -0.780  26.045  0.00  0.00    -0.370 OA
ATOM      2  O   UNL     1      -3.594  -0.524  23.154  0.00  0.00    -0.370 OA
ATOM     14  C   UNL     1      -2.422   0.002  23.799  0.00  0.00    +0.171 C 
ATOM     15  C   UNL     1      -2.794   0.333  25.231  0.00  0.00    +0.176 C 
ATOM     16  C   UNL     1      -1.368  -1.075  23.925  0.00  0.00    +0.131 C 
ATOM     17  C   UNL     1      -4.308   0.433  25.223  0.00  0.00    +0.171 C 
ATOM     18  C   UNL     1      -1.771  -1.774  25.209  0.00  0.00    +0.185 C 
ATOM     19  C   UNL     1      -4.705  -0.470  24.060  0.00  0.00    +0.190 C 
ENDROOT
BRANCH  16   5
ATOM      4  O   UNL     1       0.652  -1.004  21.879  0.00  0.00    -0.253 OA
ATOM      5  N   UNL     1      -0.048  -0.502  24.034  0.00  0.00    -0.292 N 
ATOM      7  N   UNL     1       2.065   0.104  23.353  0.00  0.00    -0.297 N 
ATOM     23  C   UNL     1       0.871  -0.512  22.987  0.00  0.00    +0.300 C 
ATOM     36  H   UNL     1       0.250  -0.132  24.932  0.00  0.00    +0.151 HD
ATOM     37  H   UNL     1       2.163   0.411  24.315  0.00  0.00    +0.151 HD
BRANCH   7  20
ATOM     20  C   UNL     1       3.194   0.236  22.460  0.00  0.00    +0.074 C 
ATOM     21  C   UNL     1       4.087   1.411  22.871  0.00  0.00    +0.022 C 
ATOM     22  C   UNL     1       3.994  -1.070  22.387  0.00  0.00    +0.022 C 
ATOM     24  C   UNL     1       4.873   1.129  24.152  0.00  0.00    +0.002 C 
ATOM     25  C   UNL     1       4.778  -1.348  23.669  0.00  0.00    +0.002 C 
ATOM     26  C   UNL     1       5.667  -0.169  24.051  0.00  0.00    +0.000 C 
ENDBRANCH   7  20
ENDBRANCH  16   5
BRANCH  17   6
ATOM      6  N   UNL     1      -4.779   1.816  25.123  0.00  0.00    -0.187 N 
ATOM      8  N   UNL     1      -6.051   2.138  25.398  0.00  0.00    -0.041 NA
ATOM      9  N   UNL     1      -4.906   3.959  24.810  0.00  0.00    -0.071 NA
ATOM     10  N   UNL     1      -6.122   3.449  25.205  0.00  0.00    -0.020 NA
ATOM     27  C   UNL     1      -4.090   2.931  24.765  0.00  0.00    +0.342 A 
BRANCH  27   3
ATOM      3  O   UNL     1      -2.813   2.952  24.432  0.00  0.00    -0.423 OA
BRANCH   3  28
ATOM     28  C   UNL     1      -1.793   2.884  25.373  0.00  0.00    +0.132 A 
ATOM     29  C   UNL     1      -0.502   2.535  24.977  0.00  0.00    +0.048 A 
ATOM     30  C   UNL     1      -2.062   3.164  26.712  0.00  0.00    +0.048 A 
ATOM     31  C   UNL     1       0.521   2.465  25.922  0.00  0.00    +0.031 A 
ATOM     32  C   UNL     1      -1.038   3.095  27.657  0.00  0.00    +0.031 A 
ATOM     33  C   UNL     1       0.253   2.745  27.263  0.00  0.00    +0.067 A 
BRANCH  33  11
ATOM     11  N   UNL     1       1.268   2.676  28.200  0.00  0.00    -0.220 N 
ATOM     12  N   UNL     1       2.492   3.169  27.954  0.00  0.00    -0.154 NA
ATOM     13  N   UNL     1       2.358   2.253  30.046  0.00  0.00    -0.222 NA
ATOM     34  C   UNL     1       1.197   2.133  29.445  0.00  0.00    +0.225 A 
ATOM     35  C   UNL     1       3.113   2.888  29.101  0.00  0.00    +0.245 A 
ENDBRANCH  33  11
ENDBRANCH   3  28
ENDBRANCH  27   3
ENDBRANCH  17   6
TORSDOF 6
ENDMDL
MODEL 2
REMARK VINA RESULT:       6.4      2.231      4.172
REMARK  Name = 11886262
REMARK  6 active torsions:
REMARK  status: ('A' for Active; 'I' for Inactive)
REMARK    1  A    between atoms: O_3  and  C_27
REMARK    2  A    between atoms: O_3  and  C_28
REMARK    3  A    between atoms: N_5  and  C_16
REMARK    4  A    between atoms: N_6  and  C_17
REMARK    5  A    between atoms: N_7  and  C_20
REMARK    6  A    between atoms: N_11  and  C_33
REMARK                            x       y       z     vdW  Elec       q    Type
REMARK                         _______ _______ _______ _____ _____    ______ ____
ROOT
ATOM      1  O   UNL     1      -1.492   4.057  23.897  0.00  0.00    -0.370 OA
ATOM      2  O   UNL     1      -2.060   3.918  26.987  0.00  0.00    -0.370 OA
ATOM     14  C   UNL     1      -1.729   2.943  25.985  0.00  0.00    +0.171 C 
ATOM     15  C   UNL     1      -2.440   3.338  24.706  0.00  0.00    +0.176 C 
ATOM     16  C   UNL     1      -0.260   3.027  25.638  0.00  0.00    +0.131 C 
ATOM     17  C   UNL     1      -3.549   4.273  25.153  0.00  0.00    +0.171 C 
ATOM     18  C   UNL     1      -0.238   4.123  24.589  0.00  0.00    +0.185 C 
ATOM     19  C   UNL     1      -2.999   4.859  26.449  0.00  0.00    +0.190 C 
ENDROOT
BRANCH  16   5
ATOM      4  O   UNL     1       1.515   2.690  23.400  0.00  0.00    -0.253 OA
ATOM      5  N   UNL     1       0.221   1.778  25.097  0.00  0.00    -0.292 N 
ATOM      7  N   UNL     1       1.393   0.389  23.686  0.00  0.00    -0.297 N 
ATOM     23  C   UNL     1       1.083   1.709  24.005  0.00  0.00    +0.300 C 
ATOM     36  H   UNL     1      -0.134   0.909  25.486  0.00  0.00    +0.151 HD
ATOM     37  H   UNL     1       0.924  -0.346  24.206  0.00  0.00    +0.151 HD
BRANCH   7  20
ATOM     20  C   UNL     1       2.268   0.022  22.596  0.00  0.00    +0.074 C 
ATOM     21  C   UNL     1       3.408   1.034  22.440  0.00  0.00    +0.022 C 
ATOM     22  C   UNL     1       2.809  -1.400  22.777  0.00  0.00    +0.022 C 
ATOM     24  C   UNL     1       4.436   0.934  23.567  0.00  0.00    +0.002 C 
ATOM     25  C   UNL     1       3.837  -1.495  23.905  0.00  0.00    +0.002 C 
ATOM     26  C   UNL     1       4.967  -0.487  23.722  0.00  0.00    +0.000 C 
ENDBRANCH   7  20
ENDBRANCH  16   5
BRANCH  17   6
ATOM      6  N   UNL     1      -4.841   3.593  25.279  0.00  0.00    -0.187 N 
ATOM      8  N   UNL     1      -5.772   4.027  26.139  0.00  0.00    -0.041 NA
ATOM      9  N   UNL     1      -6.512   2.231  25.043  0.00  0.00    -0.071 NA
ATOM     10  N   UNL     1      -6.792   3.191  25.990  0.00  0.00    -0.020 NA
ATOM     27  C   UNL     1      -5.300   2.500  24.617  0.00  0.00    +0.342 A 
BRANCH  27   3
ATOM      3  O   UNL     1      -4.621   1.833  23.701  0.00  0.00    -0.423 OA
BRANCH   3  28
ATOM     28  C   UNL     1      -3.691   0.854  24.025  0.00  0.00    +0.132 A 
ATOM     29  C   UNL     1      -2.595   0.632  23.192  0.00  0.00    +0.048 A 
ATOM     30  C   UNL     1      -3.856   0.093  25.181  0.00  0.00    +0.048 A 
ATOM     31  C   UNL     1      -1.662  -0.354  23.517  0.00  0.00    +0.031 A 
ATOM     32  C   UNL     1      -2.923  -0.892  25.506  0.00  0.00    +0.031 A 
ATOM     33  C   UNL     1      -1.826  -1.115  24.674  0.00  0.00    +0.067 A 
BRANCH  33  11
ATOM     11  N   UNL     1      -0.901  -2.092  24.996  0.00  0.00    -0.220 N 
ATOM     12  N   UNL     1       0.349  -1.784  25.376  0.00  0.00    -0.154 NA
ATOM     13  N   UNL     1       0.011  -4.046  25.349  0.00  0.00    -0.222 NA
ATOM     34  C   UNL     1      -1.093  -3.438  24.981  0.00  0.00    +0.225 A 
ATOM     35  C   UNL     1       0.859  -3.000  25.578  0.00  0.00    +0.245 A 
ENDBRANCH  33  11
ENDBRANCH   3  28
ENDBRANCH  27   3
ENDBRANCH  17   6
TORSDOF 6
ENDMDL
