MODEL 1
REMARK VINA RESULT:      -4.0      0.000      0.000
REMARK  Name = 28962508
REMARK  10 active torsions:
REMARK  status: ('A' for Active; 'I' for Inactive)
REMARK    1  A    between atoms: O_2  and  C_10
REMARK    2  A    between atoms: N_5  and  C_14
REMARK    3  A    between atoms: N_6  and  C_24
REMARK    4  A    between atoms: C_7  and  C_17
REMARK    5  A    between atoms: C_9  and  C_19
REMARK    6  A    between atoms: C_13  and  C_18
REMARK    7  A    between atoms: C_18  and  C_20
REMARK    8  A    between atoms: C_18  and  C_21
REMARK    9  A    between atoms: C_22  and  C_23
REMARK   10  A    between atoms: C_24  and  C_25
REMARK                            x       y       z     vdW  Elec       q    Type
REMARK                         _______ _______ _______ _____ _____    ______ ____
ROOT
ATOM      7  C   UNL     1      -2.211  -1.014  25.159  0.00  0.00    -0.027 C 
ATOM      8  C   UNL     1      -2.223   0.174  24.141  0.00  0.00    +0.028 C 
ATOM      9  C   UNL     1      -0.772   0.733  23.917  0.00  0.00    +0.012 C 
ATOM     10  C   UNL     1      -3.296   1.235  24.526  0.00  0.00    +0.122 C 
ATOM     11  C   UNL     1      -3.634  -1.613  25.270  0.00  0.00    +0.007 C 
ATOM     12  C   UNL     1      -1.274  -2.124  24.627  0.00  0.00    +0.009 C 
ATOM     13  C   UNL     1      -4.696   0.613  24.738  0.00  0.00    +0.029 C 
ATOM     14  C   UNL     1       0.178  -0.407  23.455  0.00  0.00    +0.076 C 
ATOM     15  C   UNL     1      -4.679  -0.587  25.685  0.00  0.00    +0.007 C 
ATOM     16  C   UNL     1       0.143  -1.634  24.364  0.00  0.00    +0.023 C 
ATOM     17  C   UNL     1      -1.741  -0.584  26.571  0.00  0.00    +0.011 C 
ATOM     19  C   UNL     1      -0.707   1.888  22.904  0.00  0.00    +0.010 C 
ENDROOT
BRANCH  14   5
ATOM      4  O   UNL     1       1.856  -0.391  21.085  0.00  0.00    -0.276 OA
ATOM      5  N   UNL     1       1.550   0.046  23.350  0.00  0.00    -0.312 N 
ATOM     22  C   UNL     1       2.268   0.014  22.169  0.00  0.00    +0.210 C 
ATOM     23  C   UNL     1       3.658   0.567  22.334  0.00  0.00    +0.109 C 
ATOM     29  H   UNL     1       2.016   0.348  24.201  0.00  0.00    +0.149 HD
ENDBRANCH  14   5
BRANCH  10   2
ATOM      2  O   UNL     1      -3.426   2.186  23.469  0.00  0.00    -0.391 OA
ATOM     30  H   UNL     1      -3.301   1.718  22.625  0.00  0.00    +0.210 HD
ENDBRANCH  10   2
BRANCH  13  18
ATOM     18  C   UNL     1      -5.707   1.650  25.242  0.00  0.00    +0.077 C 
ATOM     20  C   UNL     1      -6.913   1.704  24.311  0.00  0.00    +0.017 C 
BRANCH  18  21
ATOM      3  O   UNL     1      -5.222   3.921  24.552  0.00  0.00    -0.276 OA
ATOM      6  N   UNL     1      -4.205   3.103  26.470  0.00  0.00    -0.310 N 
ATOM     21  C   UNL     1      -5.035   3.015  25.362  0.00  0.00    +0.216 C 
ATOM     31  H   UNL     1      -4.088   2.294  27.073  0.00  0.00    +0.149 HD
BRANCH   6  24
ATOM     24  C   UNL     1      -3.458   4.297  26.793  0.00  0.00    +0.146 C 
BRANCH  24  25
ATOM      1  S   UNL     1      -0.964   3.195  26.253  0.00  0.00    -0.100 S 
ATOM     25  C   UNL     1      -2.170   4.389  26.023  0.00  0.00    +0.007 A 
ATOM     26  C   UNL     1      -1.786   5.343  25.106  0.00  0.00    +0.013 A 
ATOM     27  C   UNL     1      -0.484   5.089  24.586  0.00  0.00    +0.008 A 
ATOM     28  C   UNL     1       0.077   3.953  25.125  0.00  0.00    +0.045 A 
ENDBRANCH  24  25
ENDBRANCH   6  24
ENDBRANCH  18  21
ENDBRANCH  13  18
TORSDOF 6
ENDMDL
MODEL 2
REMARK VINA RESULT:      -0.3     15.746     17.763
REMARK  Name = 28962508
REMARK  10 active torsions:
REMARK  status: ('A' for Active; 'I' for Inactive)
REMARK    1  A    between atoms: O_2  and  C_10
REMARK    2  A    between atoms: N_5  and  C_14
REMARK    3  A    between atoms: N_6  and  C_24
REMARK    4  A    between atoms: C_7  and  C_17
REMARK    5  A    between atoms: C_9  and  C_19
REMARK    6  A    between atoms: C_13  and  C_18
REMARK    7  A    between atoms: C_18  and  C_20
REMARK    8  A    between atoms: C_18  and  C_21
REMARK    9  A    between atoms: C_22  and  C_23
REMARK   10  A    between atoms: C_24  and  C_25
REMARK                            x       y       z     vdW  Elec       q    Type
REMARK                         _______ _______ _______ _____ _____    ______ ____
ROOT
ATOM      7  C   UNL     1      -5.818  -9.611  11.094  0.00  0.00    -0.027 C 
ATOM      8  C   UNL     1      -7.120 -10.110  11.803  0.00  0.00    +0.028 C 
ATOM      9  C   UNL     1      -8.387  -9.386  11.220  0.00  0.00    +0.012 C 
ATOM     10  C   UNL     1      -6.974 -10.057  13.352  0.00  0.00    +0.122 C 
ATOM     11  C   UNL     1      -4.606 -10.421  11.609  0.00  0.00    +0.007 C 
ATOM     12  C   UNL     1      -5.943  -9.866   9.573  0.00  0.00    +0.009 C 
ATOM     13  C   UNL     1      -5.703 -10.781  13.854  0.00  0.00    +0.029 C 
ATOM     14  C   UNL     1      -8.461  -9.588   9.681  0.00  0.00    +0.076 C 
ATOM     15  C   UNL     1      -4.436 -10.339  13.120  0.00  0.00    +0.007 C 
ATOM     16  C   UNL     1      -7.170  -9.211   8.956  0.00  0.00    +0.023 C 
ATOM     17  C   UNL     1      -5.549  -8.104  11.336  0.00  0.00    +0.011 C 
ATOM     19  C   UNL     1      -9.709  -9.853  11.856  0.00  0.00    +0.010 C 
ENDROOT
BRANCH  14   5
ATOM      4  O   UNL     1      -8.452  -6.800   8.872  0.00  0.00    -0.276 OA
ATOM      5  N   UNL     1      -9.552  -8.838   9.093  0.00  0.00    -0.312 N 
ATOM     22  C   UNL     1      -9.448  -7.506   8.740  0.00  0.00    +0.210 C 
ATOM     23  C   UNL     1     -10.719  -6.979   8.128  0.00  0.00    +0.109 C 
ATOM     29  H   UNL     1     -10.448  -9.305   8.991  0.00  0.00    +0.149 HD
ENDBRANCH  14   5
BRANCH  10   2
ATOM      2  O   UNL     1      -8.086 -10.716  13.959  0.00  0.00    -0.391 OA
ATOM     30  H   UNL     1      -8.696 -10.990  13.253  0.00  0.00    +0.210 HD
ENDBRANCH  10   2
BRANCH  13  18
ATOM     18  C   UNL     1      -5.508 -10.606  15.364  0.00  0.00    +0.077 C 
ATOM     20  C   UNL     1      -6.208  -9.338  15.840  0.00  0.00    +0.017 C 
BRANCH  18  21
ATOM      3  O   UNL     1      -3.592 -10.690  16.844  0.00  0.00    -0.276 OA
ATOM      6  N   UNL     1      -3.226 -10.410  14.571  0.00  0.00    -0.310 N 
ATOM     21  C   UNL     1      -4.019 -10.577  15.696  0.00  0.00    +0.216 C 
ATOM     31  H   UNL     1      -3.666 -10.298  13.662  0.00  0.00    +0.149 HD
BRANCH   6  24
ATOM     24  C   UNL     1      -1.784 -10.350  14.633  0.00  0.00    +0.146 C 
BRANCH  24  25
ATOM      1  S   UNL     1      -1.465 -10.190  11.876  0.00  0.00    -0.100 S 
ATOM     25  C   UNL     1      -1.194  -9.610  13.464  0.00  0.00    +0.007 A 
ATOM     26  C   UNL     1      -0.422  -8.468  13.474  0.00  0.00    +0.013 A 
ATOM     27  C   UNL     1      -0.049  -8.066  12.160  0.00  0.00    +0.008 A 
ATOM     28  C   UNL     1      -0.548  -8.913  11.196  0.00  0.00    +0.045 A 
ENDBRANCH  24  25
ENDBRANCH   6  24
ENDBRANCH  18  21
ENDBRANCH  13  18
TORSDOF 6
ENDMDL
