MODEL 1
REMARK VINA RESULT:      -5.5      0.000      0.000
REMARK  Name = 11912948
REMARK  11 active torsions:
REMARK  status: ('A' for Active; 'I' for Inactive)
REMARK    1  A    between atoms: S_1  and  C_20
REMARK    2  A    between atoms: S_1  and  C_27
REMARK    3  A    between atoms: O_5  and  C_28
REMARK    4  A    between atoms: N_7  and  C_13
REMARK    5  A    between atoms: N_8  and  C_14
REMARK    6  A    between atoms: C_18  and  C_20
REMARK    7  A    between atoms: C_19  and  C_21
REMARK    8  A    between atoms: C_19  and  C_23
REMARK    9  A    between atoms: C_19  and  C_24
REMARK   10  A    between atoms: C_19  and  C_25
REMARK   11  A    between atoms: C_27  and  C_28
REMARK                            x       y       z     vdW  Elec       q    Type
REMARK                         _______ _______ _______ _____ _____    ______ ____
ROOT
ATOM      2  O   UNL     1      -2.696  -2.073  23.907  0.00  0.00    -0.370 OA
ATOM      3  O   UNL     1      -1.259  -1.075  26.490  0.00  0.00    -0.370 OA
ATOM     11  C   UNL     1      -2.158  -0.449  25.560  0.00  0.00    +0.171 C 
ATOM     12  C   UNL     1      -1.813  -0.973  24.180  0.00  0.00    +0.171 C 
ATOM     13  C   UNL     1      -3.571  -0.927  25.794  0.00  0.00    +0.130 C 
ATOM     14  C   UNL     1      -0.389  -1.462  24.317  0.00  0.00    +0.130 C 
ATOM     15  C   UNL     1      -3.625  -2.214  24.992  0.00  0.00    +0.185 C 
ATOM     16  C   UNL     1      -0.337  -1.904  25.769  0.00  0.00    +0.185 C 
ENDROOT
BRANCH  13   7
ATOM      7  N   UNL     1      -4.513   0.034  25.262  0.00  0.00    -0.306 N 
ATOM      9  N   UNL     1      -2.903   1.705  25.177  0.00  0.00    -0.219 NA
ATOM     10  N   UNL     1      -5.169   2.114  24.465  0.00  0.00    -0.223 NA
ATOM     17  C   UNL     1      -4.180   1.341  24.955  0.00  0.00    +0.216 A 
ATOM     21  C   UNL     1      -2.614   2.987  24.867  0.00  0.00    +0.052 A 
ATOM     22  C   UNL     1      -3.536   3.879  24.358  0.00  0.00    +0.043 A 
ATOM     26  C   UNL     1      -4.811   3.382  24.176  0.00  0.00    +0.116 A 
ATOM     29  H   UNL     1      -5.458  -0.261  25.048  0.00  0.00    +0.149 HD
BRANCH  21  19
ATOM     19  C   UNL     1      -1.209   3.433  25.097  0.00  0.00    +0.005 C 
ATOM     23  C   UNL     1      -1.134   4.978  25.295  0.00  0.00    +0.017 C 
ATOM     24  C   UNL     1      -0.294   3.067  23.888  0.00  0.00    +0.017 C 
ATOM     25  C   UNL     1      -0.508   2.818  26.353  0.00  0.00    +0.017 C 
ENDBRANCH  21  19
ENDBRANCH  13   7
BRANCH  14   8
ATOM      4  O   UNL     1       0.900  -0.840  21.801  0.00  0.00    -0.275 OA
ATOM      8  N   UNL     1       0.555  -0.403  24.057  0.00  0.00    -0.307 N 
ATOM     18  C   UNL     1       1.124  -0.178  22.813  0.00  0.00    +0.223 C 
ATOM     30  H   UNL     1       0.856   0.166  24.844  0.00  0.00    +0.149 HD
BRANCH  18  20
ATOM     20  C   UNL     1       2.095   0.979  22.806  0.00  0.00    +0.165 C 
BRANCH  20   1
ATOM      1  S   UNL     1       3.630   0.454  22.005  0.00  0.00    -0.140 S 
BRANCH   1  27
ATOM     27  C   UNL     1       4.752   0.677  23.405  0.00  0.00    +0.189 C 
BRANCH  27  28
ATOM      6  O   UNL     1       6.103  -0.917  24.608  0.00  0.00    -0.250 OA
ATOM     28  C   UNL     1       5.065  -0.662  24.011  0.00  0.00    +0.315 C 
BRANCH  28   5
ATOM      5  O   UNL     1       4.063  -1.561  23.840  0.00  0.00    -0.480 OA
ATOM     31  H   UNL     1       3.297  -1.170  23.368  0.00  0.00    +0.295 HD
ENDBRANCH  28   5
ENDBRANCH  27  28
ENDBRANCH   1  27
ENDBRANCH  20   1
ENDBRANCH  18  20
ENDBRANCH  14   8
TORSDOF 8
ENDMDL
