MODEL 1
REMARK VINA RESULT:      -3.2      0.000      0.000
REMARK  Name = 7675143
REMARK  4 active torsions:
REMARK  status: ('A' for Active; 'I' for Inactive)
REMARK    1  A    between atoms: S_1  and  N_9
REMARK    2  A    between atoms: S_1  and  C_19
REMARK    3  A    between atoms: N_10  and  C_18
REMARK    4  A    between atoms: C_18  and  C_20
REMARK                            x       y       z     vdW  Elec       q    Type
REMARK                         _______ _______ _______ _____ _____    ______ ____
ROOT
ATOM      3  O   UNL     1      -4.029   2.801  22.622  0.00  0.00    -0.273 OA
ATOM      4  O   UNL     1      -2.698   3.901  26.897  0.00  0.00    -0.252 OA
ATOM      8  N   UNL     1      -1.536   3.167  25.001  0.00  0.00    -0.271 N 
ATOM      9  N   UNL     1       0.049   1.232  23.753  0.00  0.00    -0.172 NA
ATOM     10  N   UNL     1      -3.732   3.470  24.843  0.00  0.00    -0.215 N 
ATOM     12  C   UNL     1      -1.823   2.820  23.629  0.00  0.00    +0.180 C 
ATOM     13  C   UNL     1      -1.385   1.393  23.340  0.00  0.00    +0.141 C 
ATOM     14  C   UNL     1      -0.192   2.965  25.508  0.00  0.00    +0.127 C 
ATOM     15  C   UNL     1       0.254   1.535  25.210  0.00  0.00    +0.128 C 
ATOM     16  C   UNL     1      -3.329   3.016  23.603  0.00  0.00    +0.245 C 
ATOM     17  C   UNL     1      -2.663   3.562  25.720  0.00  0.00    +0.312 C 
ENDROOT
BRANCH   9   1
ATOM      1  S   UNL     1       0.816  -0.191  23.189  0.00  0.00    +0.067 S 
ATOM      5  O   UNL     1       0.460  -0.385  21.800  0.00  0.00    -0.152 OA
ATOM      6  O   UNL     1       0.657  -1.238  24.176  0.00  0.00    -0.152 OA
BRANCH   1  19
ATOM      2  S   UNL     1       3.515  -1.200  23.688  0.00  0.00    -0.077 S 
ATOM     19  C   UNL     1       2.578   0.121  23.172  0.00  0.00    +0.143 A 
ATOM     21  C   UNL     1       3.307   1.210  22.825  0.00  0.00    +0.036 A 
ATOM     22  C   UNL     1       4.702   0.967  22.986  0.00  0.00    +0.010 A 
ATOM     23  C   UNL     1       4.955  -0.306  23.449  0.00  0.00    +0.047 A 
ENDBRANCH   1  19
ENDBRANCH   9   1
BRANCH  10  18
ATOM     18  C   UNL     1      -5.104   3.784  25.191  0.00  0.00    +0.213 C 
BRANCH  18  20
ATOM      7  O   UNL     1      -6.111   1.632  24.728  0.00  0.00    -0.274 OA
ATOM     11  N   UNL     1      -6.233   2.480  26.861  0.00  0.00    -0.328 N 
ATOM     20  C   UNL     1      -5.845   2.514  25.539  0.00  0.00    +0.228 C 
ATOM     24  H   UNL     1      -6.752   1.691  27.231  0.00  0.00    +0.145 HD
ATOM     25  H   UNL     1      -6.022   3.230  27.512  0.00  0.00    +0.145 HD
ENDBRANCH  18  20
ENDBRANCH  10  18
TORSDOF 4
ENDMDL
MODEL 2
REMARK VINA RESULT:      -2.0     15.921     18.427
REMARK  Name = 7675143
REMARK  4 active torsions:
REMARK  status: ('A' for Active; 'I' for Inactive)
REMARK    1  A    between atoms: S_1  and  N_9
REMARK    2  A    between atoms: S_1  and  C_19
REMARK    3  A    between atoms: N_10  and  C_18
REMARK    4  A    between atoms: C_18  and  C_20
REMARK                            x       y       z     vdW  Elec       q    Type
REMARK                         _______ _______ _______ _____ _____    ______ ____
ROOT
ATOM      3  O   UNL     1      11.551  -4.666  31.789  0.00  0.00    -0.273 OA
ATOM      4  O   UNL     1      15.449  -7.112  32.066  0.00  0.00    -0.252 OA
ATOM      8  N   UNL     1      13.331  -7.576  31.181  0.00  0.00    -0.271 N 
ATOM      9  N   UNL     1      10.995  -9.109  31.218  0.00  0.00    -0.172 NA
ATOM     10  N   UNL     1      13.688  -5.572  32.073  0.00  0.00    -0.215 N 
ATOM     12  C   UNL     1      12.064  -6.905  31.012  0.00  0.00    +0.180 C 
ATOM     13  C   UNL     1      10.955  -7.687  31.698  0.00  0.00    +0.141 C 
ATOM     14  C   UNL     1      13.436  -8.976  30.819  0.00  0.00    +0.127 C 
ATOM     15  C   UNL     1      12.317  -9.762  31.499  0.00  0.00    +0.128 C 
ATOM     16  C   UNL     1      12.368  -5.569  31.668  0.00  0.00    +0.245 C 
ATOM     17  C   UNL     1      14.299  -6.786  31.801  0.00  0.00    +0.312 C 
ENDROOT
BRANCH   9   1
ATOM      1  S   UNL     1       9.618 -10.050  31.609  0.00  0.00    +0.067 S 
ATOM      5  O   UNL     1       9.858 -10.711  32.873  0.00  0.00    -0.152 OA
ATOM      6  O   UNL     1       9.190 -10.774  30.431  0.00  0.00    -0.152 OA
BRANCH   1  19
ATOM      2  S   UNL     1       6.928  -9.139  30.913  0.00  0.00    -0.077 S 
ATOM     19  C   UNL     1       8.270  -8.918  31.932  0.00  0.00    +0.143 A 
ATOM     21  C   UNL     1       8.117  -7.917  32.834  0.00  0.00    +0.036 A 
ATOM     22  C   UNL     1       6.843  -7.293  32.696  0.00  0.00    +0.010 A 
ATOM     23  C   UNL     1       6.096  -7.860  31.688  0.00  0.00    +0.047 A 
ENDBRANCH   1  19
ENDBRANCH   9   1
BRANCH  10  18
ATOM     18  C   UNL     1      14.343  -4.457  32.728  0.00  0.00    +0.213 C 
BRANCH  18  20
ATOM      7  O   UNL     1      15.187  -3.629  30.615  0.00  0.00    -0.274 OA
ATOM     11  N   UNL     1      16.590  -3.663  32.436  0.00  0.00    -0.328 N 
ATOM     20  C   UNL     1      15.382  -3.863  31.804  0.00  0.00    +0.228 C 
ATOM     24  H   UNL     1      17.384  -3.282  31.932  0.00  0.00    +0.145 HD
ATOM     25  H   UNL     1      16.738  -3.883  33.416  0.00  0.00    +0.145 HD
ENDBRANCH  18  20
ENDBRANCH  10  18
TORSDOF 4
ENDMDL
MODEL 3
REMARK VINA RESULT:      -1.8      1.959      2.732
REMARK  Name = 7675143
REMARK  4 active torsions:
REMARK  status: ('A' for Active; 'I' for Inactive)
REMARK    1  A    between atoms: S_1  and  N_9
REMARK    2  A    between atoms: S_1  and  C_19
REMARK    3  A    between atoms: N_10  and  C_18
REMARK    4  A    between atoms: C_18  and  C_20
REMARK                            x       y       z     vdW  Elec       q    Type
REMARK                         _______ _______ _______ _____ _____    ______ ____
ROOT
ATOM      3  O   UNL     1      -1.135   3.922  25.635  0.00  0.00    -0.273 OA
ATOM      4  O   UNL     1      -3.511  -0.005  25.207  0.00  0.00    -0.252 OA
ATOM      8  N   UNL     1      -1.222   0.487  25.187  0.00  0.00    -0.271 N 
ATOM      9  N   UNL     1       1.216   0.522  23.822  0.00  0.00    -0.172 NA
ATOM     10  N   UNL     1      -2.658   2.153  25.500  0.00  0.00    -0.215 N 
ATOM     12  C   UNL     1      -0.367   1.641  25.332  0.00  0.00    +0.180 C 
ATOM     13  C   UNL     1       0.504   1.814  24.098  0.00  0.00    +0.141 C 
ATOM     14  C   UNL     1      -0.624  -0.788  24.839  0.00  0.00    +0.127 C 
ATOM     15  C   UNL     1       0.260  -0.615  23.605  0.00  0.00    +0.128 C 
ATOM     16  C   UNL     1      -1.407   2.735  25.506  0.00  0.00    +0.245 C 
ATOM     17  C   UNL     1      -2.579   0.785  25.296  0.00  0.00    +0.312 C 
ENDROOT
BRANCH   9   1
ATOM      1  S   UNL     1       2.498   0.623  22.690  0.00  0.00    +0.067 S 
ATOM      5  O   UNL     1       2.969   1.991  22.650  0.00  0.00    -0.152 OA
ATOM      6  O   UNL     1       2.127  -0.098  21.490  0.00  0.00    -0.152 OA
BRANCH   1  19
ATOM      2  S   UNL     1       5.316   0.570  23.469  0.00  0.00    -0.077 S 
ATOM     19  C   UNL     1       3.871  -0.316  23.350  0.00  0.00    +0.143 A 
ATOM     21  C   UNL     1       3.976  -1.600  23.773  0.00  0.00    +0.036 A 
ATOM     22  C   UNL     1       5.299  -1.886  24.218  0.00  0.00    +0.010 A 
ATOM     23  C   UNL     1       6.130  -0.793  24.107  0.00  0.00    +0.047 A 
ENDBRANCH   1  19
ENDBRANCH   9   1
BRANCH  10  18
ATOM     18  C   UNL     1      -3.900   2.886  25.658  0.00  0.00    +0.213 C 
BRANCH  18  20
ATOM      7  O   UNL     1      -4.432   3.141  23.309  0.00  0.00    -0.274 OA
ATOM     11  N   UNL     1      -5.946   2.091  24.683  0.00  0.00    -0.328 N 
ATOM     20  C   UNL     1      -4.749   2.721  24.418  0.00  0.00    +0.228 C 
ATOM     24  H   UNL     1      -6.622   1.925  23.945  0.00  0.00    +0.145 HD
ATOM     25  H   UNL     1      -6.200   1.769  25.612  0.00  0.00    +0.145 HD
ENDBRANCH  18  20
ENDBRANCH  10  18
TORSDOF 4
ENDMDL
MODEL 4
REMARK VINA RESULT:      -1.0      2.689      3.910
REMARK  Name = 7675143
REMARK  4 active torsions:
REMARK  status: ('A' for Active; 'I' for Inactive)
REMARK    1  A    between atoms: S_1  and  N_9
REMARK    2  A    between atoms: S_1  and  C_19
REMARK    3  A    between atoms: N_10  and  C_18
REMARK    4  A    between atoms: C_18  and  C_20
REMARK                            x       y       z     vdW  Elec       q    Type
REMARK                         _______ _______ _______ _____ _____    ______ ____
ROOT
ATOM      3  O   UNL     1      -3.689   3.026  22.496  0.00  0.00    -0.273 OA
ATOM      4  O   UNL     1      -2.711   4.525  26.745  0.00  0.00    -0.252 OA
ATOM      8  N   UNL     1      -1.616   3.069  25.273  0.00  0.00    -0.271 N 
ATOM      9  N   UNL     1      -0.656   0.509  24.697  0.00  0.00    -0.172 NA
ATOM     10  N   UNL     1      -3.510   4.021  24.604  0.00  0.00    -0.215 N 
ATOM     12  C   UNL     1      -1.798   2.549  23.939  0.00  0.00    +0.180 C 
ATOM     13  C   UNL     1      -1.860   1.030  23.966  0.00  0.00    +0.141 C 
ATOM     14  C   UNL     1      -0.525   2.559  26.081  0.00  0.00    +0.127 C 
ATOM     15  C   UNL     1      -0.579   1.033  26.102  0.00  0.00    +0.128 C 
ATOM     16  C   UNL     1      -3.114   3.208  23.562  0.00  0.00    +0.245 C 
ATOM     17  C   UNL     1      -2.623   3.950  25.667  0.00  0.00    +0.312 C 
ENDROOT
BRANCH   9   1
ATOM      1  S   UNL     1      -0.371  -1.172  24.528  0.00  0.00    +0.067 S 
ATOM      5  O   UNL     1       0.130  -1.681  25.787  0.00  0.00    -0.152 OA
ATOM      6  O   UNL     1       0.312  -1.412  23.275  0.00  0.00    -0.152 OA
BRANCH   1  19
ATOM      2  S   UNL     1      -3.285  -0.942  24.606  0.00  0.00    -0.077 S 
ATOM     19  C   UNL     1      -1.961  -1.966  24.312  0.00  0.00    +0.143 A 
ATOM     21  C   UNL     1      -2.308  -3.228  23.960  0.00  0.00    +0.036 A 
ATOM     22  C   UNL     1      -3.724  -3.379  23.924  0.00  0.00    +0.010 A 
ATOM     23  C   UNL     1      -4.377  -2.213  24.255  0.00  0.00    +0.047 A 
ENDBRANCH   1  19
ENDBRANCH   9   1
BRANCH  10  18
ATOM     18  C   UNL     1      -4.716   4.827  24.599  0.00  0.00    +0.213 C 
BRANCH  18  20
ATOM      7  O   UNL     1      -5.882   2.929  25.549  0.00  0.00    -0.274 OA
ATOM     11  N   UNL     1      -6.674   5.045  25.971  0.00  0.00    -0.328 N 
ATOM     20  C   UNL     1      -5.786   4.146  25.422  0.00  0.00    +0.228 C 
ATOM     24  H   UNL     1      -7.453   4.727  26.538  0.00  0.00    +0.145 HD
ATOM     25  H   UNL     1      -6.590   6.048  25.837  0.00  0.00    +0.145 HD
ENDBRANCH  18  20
ENDBRANCH  10  18
TORSDOF 4
ENDMDL
MODEL 5
REMARK VINA RESULT:       0.1      3.337      6.790
REMARK  Name = 7675143
REMARK  4 active torsions:
REMARK  status: ('A' for Active; 'I' for Inactive)
REMARK    1  A    between atoms: S_1  and  N_9
REMARK    2  A    between atoms: S_1  and  C_19
REMARK    3  A    between atoms: N_10  and  C_18
REMARK    4  A    between atoms: C_18  and  C_20
REMARK                            x       y       z     vdW  Elec       q    Type
REMARK                         _______ _______ _______ _____ _____    ______ ____
ROOT
ATOM      3  O   UNL     1      -1.681  -1.028  26.881  0.00  0.00    -0.273 OA
ATOM      4  O   UNL     1       0.786  -0.632  23.006  0.00  0.00    -0.252 OA
ATOM      8  N   UNL     1      -0.020   0.930  24.554  0.00  0.00    -0.271 N 
ATOM      9  N   UNL     1      -1.648   3.129  25.123  0.00  0.00    -0.172 NA
ATOM     10  N   UNL     1      -0.426  -1.224  24.918  0.00  0.00    -0.215 N 
ATOM     12  C   UNL     1      -0.765   0.935  25.791  0.00  0.00    +0.180 C 
ATOM     13  C   UNL     1      -2.024   1.774  25.648  0.00  0.00    +0.141 C 
ATOM     14  C   UNL     1       0.315   2.197  23.933  0.00  0.00    +0.127 C 
ATOM     15  C   UNL     1      -0.947   3.046  23.797  0.00  0.00    +0.128 C 
ATOM     16  C   UNL     1      -1.034  -0.551  25.958  0.00  0.00    +0.245 C 
ATOM     17  C   UNL     1       0.191  -0.348  24.039  0.00  0.00    +0.312 C 
ENDROOT
BRANCH   9   1
ATOM      1  S   UNL     1      -2.876   4.319  25.225  0.00  0.00    +0.067 S 
ATOM      5  O   UNL     1      -2.930   5.033  23.968  0.00  0.00    -0.152 OA
ATOM      6  O   UNL     1      -2.764   5.005  26.495  0.00  0.00    -0.152 OA
BRANCH   1  19
ATOM      2  S   UNL     1      -4.673   2.291  24.125  0.00  0.00    -0.077 S 
ATOM     19  C   UNL     1      -4.444   3.462  25.335  0.00  0.00    +0.143 A 
ATOM     21  C   UNL     1      -5.482   3.571  26.200  0.00  0.00    +0.036 A 
ATOM     22  C   UNL     1      -6.524   2.657  25.867  0.00  0.00    +0.010 A 
ATOM     23  C   UNL     1      -6.214   1.900  24.759  0.00  0.00    +0.047 A 
ENDBRANCH   1  19
ENDBRANCH   9   1
BRANCH  10  18
ATOM     18  C   UNL     1      -0.453  -2.665  24.751  0.00  0.00    +0.213 C 
BRANCH  18  20
ATOM      7  O   UNL     1      -1.849  -3.782  23.118  0.00  0.00    -0.274 OA
ATOM     11  N   UNL     1      -2.851  -2.536  24.770  0.00  0.00    -0.328 N 
ATOM     20  C   UNL     1      -1.763  -3.079  24.121  0.00  0.00    +0.228 C 
ATOM     24  H   UNL     1      -3.795  -2.720  24.447  0.00  0.00    +0.145 HD
ATOM     25  H   UNL     1      -2.758  -1.940  25.587  0.00  0.00    +0.145 HD
ENDBRANCH  18  20
ENDBRANCH  10  18
TORSDOF 4
ENDMDL
MODEL 6
REMARK VINA RESULT:       0.3      3.606      6.084
REMARK  Name = 7675143
REMARK  4 active torsions:
REMARK  status: ('A' for Active; 'I' for Inactive)
REMARK    1  A    between atoms: S_1  and  N_9
REMARK    2  A    between atoms: S_1  and  C_19
REMARK    3  A    between atoms: N_10  and  C_18
REMARK    4  A    between atoms: C_18  and  C_20
REMARK                            x       y       z     vdW  Elec       q    Type
REMARK                         _______ _______ _______ _____ _____    ______ ____
ROOT
ATOM      3  O   UNL     1      -3.476  -1.301  26.608  0.00  0.00    -0.273 OA
ATOM      4  O   UNL     1      -0.988  -2.983  23.111  0.00  0.00    -0.252 OA
ATOM      8  N   UNL     1      -0.670  -1.186  24.578  0.00  0.00    -0.271 N 
ATOM      9  N   UNL     1      -0.391   1.565  24.983  0.00  0.00    -0.172 NA
ATOM     10  N   UNL     1      -2.484  -2.445  24.827  0.00  0.00    -0.215 N 
ATOM     12  C   UNL     1      -1.343  -0.583  25.704  0.00  0.00    +0.180 C 
ATOM     13  C   UNL     1      -1.653   0.877  25.416  0.00  0.00    +0.141 C 
ATOM     14  C   UNL     1       0.513  -0.541  24.042  0.00  0.00    +0.127 C 
ATOM     15  C   UNL     1       0.208   0.929  23.761  0.00  0.00    +0.128 C 
ATOM     16  C   UNL     1      -2.577  -1.465  25.794  0.00  0.00    +0.245 C 
ATOM     17  C   UNL     1      -1.338  -2.296  24.062  0.00  0.00    +0.312 C 
ENDROOT
BRANCH   9   1
ATOM      1  S   UNL     1      -0.465   3.276  24.952  0.00  0.00    +0.067 S 
ATOM      5  O   UNL     1      -0.151   3.725  23.612  0.00  0.00    -0.152 OA
ATOM      6  O   UNL     1       0.215   3.800  26.117  0.00  0.00    -0.152 OA
BRANCH   1  19
ATOM      2  S   UNL     1      -3.202   3.307  23.922  0.00  0.00    -0.077 S 
ATOM     19  C   UNL     1      -2.174   3.742  25.204  0.00  0.00    +0.143 A 
ATOM     21  C   UNL     1      -2.804   4.377  26.223  0.00  0.00    +0.036 A 
ATOM     22  C   UNL     1      -4.196   4.521  25.955  0.00  0.00    +0.010 A 
ATOM     23  C   UNL     1      -4.547   3.983  24.736  0.00  0.00    +0.047 A 
ENDBRANCH   1  19
ENDBRANCH   9   1
BRANCH  10  18
ATOM     18  C   UNL     1      -3.475  -3.484  24.619  0.00  0.00    +0.213 C 
BRANCH  18  20
ATOM      7  O   UNL     1      -5.300  -3.678  23.040  0.00  0.00    -0.274 OA
ATOM     11  N   UNL     1      -4.657  -1.586  23.744  0.00  0.00    -0.328 N 
ATOM     20  C   UNL     1      -4.581  -2.962  23.731  0.00  0.00    +0.228 C 
ATOM     24  H   UNL     1      -5.347  -1.098  23.183  0.00  0.00    +0.145 HD
ATOM     25  H   UNL     1      -4.039  -1.010  24.306  0.00  0.00    +0.145 HD
ENDBRANCH  18  20
ENDBRANCH  10  18
TORSDOF 4
ENDMDL
