MODEL 1
REMARK VINA RESULT:       1.9      0.000      0.000
REMARK  Name = 26744176
REMARK  9 active torsions:
REMARK  status: ('A' for Active; 'I' for Inactive)
REMARK    1  A    between atoms: O_1  and  C_11
REMARK    2  A    between atoms: O_3  and  C_27
REMARK    3  A    between atoms: O_3  and  C_30
REMARK    4  A    between atoms: N_5  and  C_13
REMARK    5  A    between atoms: N_8  and  C_21
REMARK    6  A    between atoms: C_9  and  C_14
REMARK    7  A    between atoms: C_13  and  C_15
REMARK    8  A    between atoms: C_18  and  C_22
REMARK    9  A    between atoms: C_28  and  C_29
REMARK                            x       y       z     vdW  Elec       q    Type
REMARK                         _______ _______ _______ _____ _____    ______ ____
ROOT
ATOM      5  N   UNL     1      -5.380   2.300  25.341  0.00  0.00    -0.285 NA
ATOM      9  C   UNL     1      -4.496   3.034  24.413  0.00  0.00    +0.149 C 
ATOM     10  C   UNL     1      -4.749   4.522  24.722  0.00  0.00    +0.061 C 
ATOM     11  C   UNL     1      -5.822   4.523  25.802  0.00  0.00    +0.130 C 
ATOM     12  C   UNL     1      -6.511   3.184  25.621  0.00  0.00    +0.116 C 
ENDROOT
BRANCH   9  14
ATOM      2  O   UNL     1      -2.455   2.937  25.756  0.00  0.00    -0.336 OA
ATOM      6  N   UNL     1      -2.245   2.058  23.706  0.00  0.00    -0.190 NA
ATOM      7  N   UNL     1      -1.132   2.490  25.658  0.00  0.00    -0.056 NA
ATOM     14  C   UNL     1      -3.041   2.645  24.564  0.00  0.00    +0.245 A 
ATOM     18  C   UNL     1      -1.085   1.984  24.422  0.00  0.00    +0.202 A 
BRANCH  18  22
ATOM     22  C   UNL     1       0.103   1.398  23.872  0.00  0.00    +0.023 A 
ATOM     23  C   UNL     1       0.040   0.156  23.239  0.00  0.00    +0.015 A 
ATOM     24  C   UNL     1       1.321   2.069  23.972  0.00  0.00    +0.015 A 
ATOM     25  C   UNL     1       1.198  -0.413  22.707  0.00  0.00    +0.046 A 
ATOM     26  C   UNL     1       2.478   1.500  23.439  0.00  0.00    +0.046 A 
ATOM     27  C   UNL     1       2.416   0.258  22.806  0.00  0.00    +0.120 A 
BRANCH  27   3
ATOM      3  O   UNL     1       3.544  -0.298  22.287  0.00  0.00    -0.495 OA
ATOM     30  C   UNL     1       4.789   0.130  22.837  0.00  0.00    +0.277 C 
ENDBRANCH  27   3
ENDBRANCH  18  22
ENDBRANCH   9  14
BRANCH  11   1
ATOM      1  O   UNL     1      -6.718   5.603  25.619  0.00  0.00    -0.390 OA
ATOM     31  H   UNL     1      -6.861   5.705  24.663  0.00  0.00    +0.210 HD
ENDBRANCH  11   1
BRANCH   5  13
ATOM     13  C   UNL     1      -5.809   1.008  24.825  0.00  0.00    +0.120 C 
BRANCH  13  15
ATOM     15  C   UNL     1      -4.701  -0.010  24.871  0.00  0.00    -0.033 A 
ATOM     16  C   UNL     1      -4.027  -0.256  26.067  0.00  0.00    +0.007 A 
ATOM     17  C   UNL     1      -4.347  -0.707  23.716  0.00  0.00    +0.007 A 
ATOM     19  C   UNL     1      -3.000  -1.198  26.108  0.00  0.00    +0.023 A 
ATOM     20  C   UNL     1      -3.320  -1.651  23.757  0.00  0.00    +0.023 A 
ATOM     21  C   UNL     1      -2.646  -1.895  24.953  0.00  0.00    +0.033 A 
BRANCH  21   8
ATOM      4  O   UNL     1       0.218  -1.629  25.846  0.00  0.00    -0.276 OA
ATOM      8  N   UNL     1      -1.619  -2.839  24.994  0.00  0.00    -0.286 N 
ATOM     28  C   UNL     1      -0.296  -2.660  25.420  0.00  0.00    +0.214 C 
ATOM     29  C   UNL     1       0.505  -3.933  25.308  0.00  0.00    +0.109 C 
ATOM     32  H   UNL     1      -1.872  -3.770  24.672  0.00  0.00    +0.155 HD
ENDBRANCH  21   8
ENDBRANCH  13  15
ENDBRANCH   5  13
TORSDOF 7
ENDMDL
MODEL 2
REMARK VINA RESULT:       4.0      3.062      4.991
REMARK  Name = 26744176
REMARK  9 active torsions:
REMARK  status: ('A' for Active; 'I' for Inactive)
REMARK    1  A    between atoms: O_1  and  C_11
REMARK    2  A    between atoms: O_3  and  C_27
REMARK    3  A    between atoms: O_3  and  C_30
REMARK    4  A    between atoms: N_5  and  C_13
REMARK    5  A    between atoms: N_8  and  C_21
REMARK    6  A    between atoms: C_9  and  C_14
REMARK    7  A    between atoms: C_13  and  C_15
REMARK    8  A    between atoms: C_18  and  C_22
REMARK    9  A    between atoms: C_28  and  C_29
REMARK                            x       y       z     vdW  Elec       q    Type
REMARK                         _______ _______ _______ _____ _____    ______ ____
ROOT
ATOM      5  N   UNL     1      -3.082  -0.109  23.747  0.00  0.00    -0.285 NA
ATOM      9  C   UNL     1      -1.985  -0.882  24.362  0.00  0.00    +0.149 C 
ATOM     10  C   UNL     1      -2.426  -2.353  24.248  0.00  0.00    +0.061 C 
ATOM     11  C   UNL     1      -3.802  -2.302  23.597  0.00  0.00    +0.130 C 
ATOM     12  C   UNL     1      -4.297  -0.904  23.919  0.00  0.00    +0.116 C 
ENDROOT
BRANCH   9  14
ATOM      2  O   UNL     1      -0.673  -0.303  22.382  0.00  0.00    -0.336 OA
ATOM      6  N   UNL     1       0.555  -0.650  24.224  0.00  0.00    -0.190 NA
ATOM      7  N   UNL     1       0.661  -0.109  22.004  0.00  0.00    -0.056 NA
ATOM     14  C   UNL     1      -0.647  -0.619  23.705  0.00  0.00    +0.245 A 
ATOM     18  C   UNL     1       1.323  -0.330  23.142  0.00  0.00    +0.202 A 
BRANCH  18  22
ATOM     22  C   UNL     1       2.752  -0.240  23.234  0.00  0.00    +0.023 A 
ATOM     23  C   UNL     1       3.492  -1.329  23.697  0.00  0.00    +0.015 A 
ATOM     24  C   UNL     1       3.401   0.936  22.862  0.00  0.00    +0.015 A 
ATOM     25  C   UNL     1       4.881  -1.239  23.788  0.00  0.00    +0.046 A 
ATOM     26  C   UNL     1       4.791   1.026  22.953  0.00  0.00    +0.046 A 
ATOM     27  C   UNL     1       5.531  -0.063  23.416  0.00  0.00    +0.120 A 
BRANCH  27   3
ATOM      3  O   UNL     1       6.885   0.025  23.505  0.00  0.00    -0.495 OA
ATOM     30  C   UNL     1       7.648  -0.824  22.648  0.00  0.00    +0.277 C 
ENDBRANCH  27   3
ENDBRANCH  18  22
ENDBRANCH   9  14
BRANCH  11   1
ATOM      1  O   UNL     1      -4.650  -3.297  24.137  0.00  0.00    -0.390 OA
ATOM     31  H   UNL     1      -5.528  -2.898  24.260  0.00  0.00    +0.210 HD
ENDBRANCH  11   1
BRANCH   5  13
ATOM     13  C   UNL     1      -3.222   1.231  24.299  0.00  0.00    +0.120 C 
BRANCH  13  15
ATOM     15  C   UNL     1      -2.005   1.646  25.082  0.00  0.00    -0.033 A 
ATOM     16  C   UNL     1      -1.613   0.912  26.202  0.00  0.00    +0.007 A 
ATOM     17  C   UNL     1      -1.270   2.764  24.689  0.00  0.00    +0.007 A 
ATOM     19  C   UNL     1      -0.487   1.298  26.929  0.00  0.00    +0.023 A 
ATOM     20  C   UNL     1      -0.143   3.149  25.416  0.00  0.00    +0.023 A 
ATOM     21  C   UNL     1       0.248   2.416  26.536  0.00  0.00    +0.033 A 
BRANCH  21   8
ATOM      4  O   UNL     1       0.789   2.331  29.497  0.00  0.00    -0.276 OA
ATOM      8  N   UNL     1       1.376   2.801  27.262  0.00  0.00    -0.286 N 
ATOM     28  C   UNL     1       1.575   2.741  28.648  0.00  0.00    +0.214 C 
ATOM     29  C   UNL     1       2.937   3.256  29.040  0.00  0.00    +0.109 C 
ATOM     32  H   UNL     1       2.144   3.171  26.706  0.00  0.00    +0.155 HD
ENDBRANCH  21   8
ENDBRANCH  13  15
ENDBRANCH   5  13
TORSDOF 7
ENDMDL
MODEL 3
REMARK VINA RESULT:       4.0      2.504      3.962
REMARK  Name = 26744176
REMARK  9 active torsions:
REMARK  status: ('A' for Active; 'I' for Inactive)
REMARK    1  A    between atoms: O_1  and  C_11
REMARK    2  A    between atoms: O_3  and  C_27
REMARK    3  A    between atoms: O_3  and  C_30
REMARK    4  A    between atoms: N_5  and  C_13
REMARK    5  A    between atoms: N_8  and  C_21
REMARK    6  A    between atoms: C_9  and  C_14
REMARK    7  A    between atoms: C_13  and  C_15
REMARK    8  A    between atoms: C_18  and  C_22
REMARK    9  A    between atoms: C_28  and  C_29
REMARK                            x       y       z     vdW  Elec       q    Type
REMARK                         _______ _______ _______ _____ _____    ______ ____
ROOT
ATOM      5  N   UNL     1      -4.126   2.961  24.399  0.00  0.00    -0.285 NA
ATOM      9  C   UNL     1      -3.772   1.748  25.164  0.00  0.00    +0.149 C 
ATOM     10  C   UNL     1      -5.058   0.901  25.176  0.00  0.00    +0.061 C 
ATOM     11  C   UNL     1      -6.089   1.739  24.432  0.00  0.00    +0.130 C 
ATOM     12  C   UNL     1      -5.564   3.155  24.573  0.00  0.00    +0.116 C 
ENDROOT
BRANCH   9  14
ATOM      2  O   UNL     1      -2.772  -0.309  24.302  0.00  0.00    -0.336 OA
ATOM      6  N   UNL     1      -1.395   1.458  24.278  0.00  0.00    -0.190 NA
ATOM      7  N   UNL     1      -1.560  -0.768  23.773  0.00  0.00    -0.056 NA
ATOM     14  C   UNL     1      -2.590   1.011  24.573  0.00  0.00    +0.245 A 
ATOM     18  C   UNL     1      -0.799   0.331  23.790  0.00  0.00    +0.202 A 
BRANCH  18  22
ATOM     22  C   UNL     1       0.558   0.337  23.327  0.00  0.00    +0.023 A 
ATOM     23  C   UNL     1       0.959  -0.552  22.328  0.00  0.00    +0.015 A 
ATOM     24  C   UNL     1       1.477   1.230  23.875  0.00  0.00    +0.015 A 
ATOM     25  C   UNL     1       2.281  -0.546  21.880  0.00  0.00    +0.046 A 
ATOM     26  C   UNL     1       2.799   1.236  23.427  0.00  0.00    +0.046 A 
ATOM     27  C   UNL     1       3.200   0.347  22.428  0.00  0.00    +0.120 A 
BRANCH  27   3
ATOM      3  O   UNL     1       4.488   0.353  21.992  0.00  0.00    -0.495 OA
ATOM     30  C   UNL     1       5.502   0.086  22.960  0.00  0.00    +0.277 C 
ENDBRANCH  27   3
ENDBRANCH  18  22
ENDBRANCH   9  14
BRANCH  11   1
ATOM      1  O   UNL     1      -7.370   1.594  25.016  0.00  0.00    -0.390 OA
ATOM     31  H   UNL     1      -7.883   2.390  24.799  0.00  0.00    +0.210 HD
ENDBRANCH  11   1
BRANCH   5  13
ATOM     13  C   UNL     1      -3.362   4.135  24.797  0.00  0.00    +0.120 C 
BRANCH  13  15
ATOM     15  C   UNL     1      -2.101   3.763  25.530  0.00  0.00    -0.033 A 
ATOM     16  C   UNL     1      -2.176   3.159  26.785  0.00  0.00    +0.007 A 
ATOM     17  C   UNL     1      -0.858   4.024  24.955  0.00  0.00    +0.007 A 
ATOM     19  C   UNL     1      -1.008   2.816  27.465  0.00  0.00    +0.023 A 
ATOM     20  C   UNL     1       0.312   3.680  25.635  0.00  0.00    +0.023 A 
ATOM     21  C   UNL     1       0.236   3.077  26.890  0.00  0.00    +0.033 A 
BRANCH  21   8
ATOM      4  O   UNL     1       0.772   2.798  29.840  0.00  0.00    -0.276 OA
ATOM      8  N   UNL     1       1.405   2.733  27.569  0.00  0.00    -0.286 N 
ATOM     28  C   UNL     1       1.601   2.619  28.952  0.00  0.00    +0.214 C 
ATOM     29  C   UNL     1       3.018   2.224  29.286  0.00  0.00    +0.109 C 
ATOM     32  H   UNL     1       2.211   2.543  26.977  0.00  0.00    +0.155 HD
ENDBRANCH  21   8
ENDBRANCH  13  15
ENDBRANCH   5  13
TORSDOF 7
ENDMDL
MODEL 4
REMARK VINA RESULT:       4.3     14.904     17.612
REMARK  Name = 26744176
REMARK  9 active torsions:
REMARK  status: ('A' for Active; 'I' for Inactive)
REMARK    1  A    between atoms: O_1  and  C_11
REMARK    2  A    between atoms: O_3  and  C_27
REMARK    3  A    between atoms: O_3  and  C_30
REMARK    4  A    between atoms: N_5  and  C_13
REMARK    5  A    between atoms: N_8  and  C_21
REMARK    6  A    between atoms: C_9  and  C_14
REMARK    7  A    between atoms: C_13  and  C_15
REMARK    8  A    between atoms: C_18  and  C_22
REMARK    9  A    between atoms: C_28  and  C_29
REMARK                            x       y       z     vdW  Elec       q    Type
REMARK                         _______ _______ _______ _____ _____    ______ ____
ROOT
ATOM      5  N   UNL     1      -0.732  -9.495  11.888  0.00  0.00    -0.285 NA
ATOM      9  C   UNL     1      -1.884  -8.579  12.015  0.00  0.00    +0.149 C 
ATOM     10  C   UNL     1      -1.271  -7.167  11.976  0.00  0.00    +0.061 C 
ATOM     11  C   UNL     1       0.232  -7.393  11.871  0.00  0.00    +0.130 C 
ATOM     12  C   UNL     1       0.422  -8.787  12.438  0.00  0.00    +0.116 C 
ENDROOT
BRANCH   9  14
ATOM      2  O   UNL     1      -2.460  -8.917   9.663  0.00  0.00    -0.336 OA
ATOM      6  N   UNL     1      -4.225  -8.887  11.042  0.00  0.00    -0.190 NA
ATOM      7  N   UNL     1      -3.587  -9.107   8.856  0.00  0.00    -0.056 NA
ATOM     14  C   UNL     1      -2.923  -8.796  10.936  0.00  0.00    +0.245 A 
ATOM     18  C   UNL     1      -4.588  -9.078   9.741  0.00  0.00    +0.202 A 
BRANCH  18  22
ATOM     22  C   UNL     1      -5.962  -9.236   9.358  0.00  0.00    +0.023 A 
ATOM     23  C   UNL     1      -6.696  -8.133   8.922  0.00  0.00    +0.015 A 
ATOM     24  C   UNL     1      -6.563 -10.493   9.423  0.00  0.00    +0.015 A 
ATOM     25  C   UNL     1      -8.033  -8.288   8.552  0.00  0.00    +0.046 A 
ATOM     26  C   UNL     1      -7.899 -10.648   9.053  0.00  0.00    +0.046 A 
ATOM     27  C   UNL     1      -8.634  -9.545   8.617  0.00  0.00    +0.120 A 
BRANCH  27   3
ATOM      3  O   UNL     1      -9.937  -9.696   8.256  0.00  0.00    -0.495 OA
ATOM     30  C   UNL     1     -10.719  -8.508   8.137  0.00  0.00    +0.277 C 
ENDBRANCH  27   3
ENDBRANCH  18  22
ENDBRANCH   9  14
BRANCH  11   1
ATOM      1  O   UNL     1       0.939  -6.421  12.618  0.00  0.00    -0.390 OA
ATOM     31  H   UNL     1       1.839  -6.759  12.759  0.00  0.00    +0.210 HD
ENDBRANCH  11   1
BRANCH   5  13
ATOM     13  C   UNL     1      -0.946 -10.781  12.536  0.00  0.00    +0.120 C 
BRANCH  13  15
ATOM     15  C   UNL     1      -1.874 -10.668  13.716  0.00  0.00    -0.033 A 
ATOM     16  C   UNL     1      -1.354 -10.570  15.006  0.00  0.00    +0.007 A 
ATOM     17  C   UNL     1      -3.255 -10.663  13.519  0.00  0.00    +0.007 A 
ATOM     19  C   UNL     1      -2.214 -10.468  16.099  0.00  0.00    +0.023 A 
ATOM     20  C   UNL     1      -4.115 -10.560  14.612  0.00  0.00    +0.023 A 
ATOM     21  C   UNL     1      -3.595 -10.463  15.902  0.00  0.00    +0.033 A 
BRANCH  21   8
ATOM      4  O   UNL     1      -6.546  -9.875  16.018  0.00  0.00    -0.276 OA
ATOM      8  N   UNL     1      -4.455 -10.359  16.996  0.00  0.00    -0.286 N 
ATOM     28  C   UNL     1      -5.829 -10.080  16.993  0.00  0.00    +0.214 C 
ATOM     29  C   UNL     1      -6.398 -10.056  18.389  0.00  0.00    +0.109 C 
ATOM     32  H   UNL     1      -4.022 -10.506  17.905  0.00  0.00    +0.155 HD
ENDBRANCH  21   8
ENDBRANCH  13  15
ENDBRANCH   5  13
TORSDOF 7
ENDMDL
MODEL 5
REMARK VINA RESULT:       4.9      2.253      4.986
REMARK  Name = 26744176
REMARK  9 active torsions:
REMARK  status: ('A' for Active; 'I' for Inactive)
REMARK    1  A    between atoms: O_1  and  C_11
REMARK    2  A    between atoms: O_3  and  C_27
REMARK    3  A    between atoms: O_3  and  C_30
REMARK    4  A    between atoms: N_5  and  C_13
REMARK    5  A    between atoms: N_8  and  C_21
REMARK    6  A    between atoms: C_9  and  C_14
REMARK    7  A    between atoms: C_13  and  C_15
REMARK    8  A    between atoms: C_18  and  C_22
REMARK    9  A    between atoms: C_28  and  C_29
REMARK                            x       y       z     vdW  Elec       q    Type
REMARK                         _______ _______ _______ _____ _____    ______ ____
ROOT
ATOM      5  N   UNL     1      -4.403  -1.328  23.978  0.00  0.00    -0.285 NA
ATOM      9  C   UNL     1      -3.435  -1.733  25.017  0.00  0.00    +0.149 C 
ATOM     10  C   UNL     1      -3.217  -3.240  24.786  0.00  0.00    +0.061 C 
ATOM     11  C   UNL     1      -4.137  -3.598  23.626  0.00  0.00    +0.130 C 
ATOM     12  C   UNL     1      -5.198  -2.514  23.666  0.00  0.00    +0.116 C 
ENDROOT
BRANCH   9  14
ATOM      2  O   UNL     1      -2.035   0.100  25.827  0.00  0.00    -0.336 OA
ATOM      6  N   UNL     1      -1.107  -1.101  24.180  0.00  0.00    -0.190 NA
ATOM      7  N   UNL     1      -0.782   0.674  25.587  0.00  0.00    -0.056 NA
ATOM     14  C   UNL     1      -2.148  -0.938  24.957  0.00  0.00    +0.245 A 
ATOM     18  C   UNL     1      -0.295  -0.089  24.603  0.00  0.00    +0.202 A 
BRANCH  18  22
ATOM     22  C   UNL     1       0.997   0.133  24.022  0.00  0.00    +0.023 A 
ATOM     23  C   UNL     1       1.847  -0.947  23.779  0.00  0.00    +0.015 A 
ATOM     24  C   UNL     1       1.404   1.427  23.701  0.00  0.00    +0.015 A 
ATOM     25  C   UNL     1       3.106  -0.730  23.216  0.00  0.00    +0.046 A 
ATOM     26  C   UNL     1       2.662   1.644  23.137  0.00  0.00    +0.046 A 
ATOM     27  C   UNL     1       3.513   0.564  22.895  0.00  0.00    +0.120 A 
BRANCH  27   3
ATOM      3  O   UNL     1       4.739   0.776  22.345  0.00  0.00    -0.495 OA
ATOM     30  C   UNL     1       5.848   0.121  22.961  0.00  0.00    +0.277 C 
ENDBRANCH  27   3
ENDBRANCH  18  22
ENDBRANCH   9  14
BRANCH  11   1
ATOM      1  O   UNL     1      -4.695  -4.885  23.807  0.00  0.00    -0.390 OA
ATOM     31  H   UNL     1      -5.638  -4.831  23.578  0.00  0.00    +0.210 HD
ENDBRANCH  11   1
BRANCH   5  13
ATOM     13  C   UNL     1      -5.234  -0.200  24.375  0.00  0.00    +0.120 C 
BRANCH  13  15
ATOM     15  C   UNL     1      -4.457   1.089  24.401  0.00  0.00    -0.033 A 
ATOM     16  C   UNL     1      -3.551   1.379  23.381  0.00  0.00    +0.007 A 
ATOM     17  C   UNL     1      -4.642   1.993  25.447  0.00  0.00    +0.007 A 
ATOM     19  C   UNL     1      -2.830   2.572  23.407  0.00  0.00    +0.023 A 
ATOM     20  C   UNL     1      -3.921   3.188  25.473  0.00  0.00    +0.023 A 
ATOM     21  C   UNL     1      -3.014   3.476  24.453  0.00  0.00    +0.033 A 
BRANCH  21   8
ATOM      4  O   UNL     1      -0.199   4.041  25.360  0.00  0.00    -0.276 OA
ATOM      8  N   UNL     1      -2.293   4.671  24.479  0.00  0.00    -0.286 N 
ATOM     28  C   UNL     1      -0.978   4.879  24.916  0.00  0.00    +0.214 C 
ATOM     29  C   UNL     1      -0.565   6.323  24.781  0.00  0.00    +0.109 C 
ATOM     32  H   UNL     1      -2.795   5.488  24.136  0.00  0.00    +0.155 HD
ENDBRANCH  21   8
ENDBRANCH  13  15
ENDBRANCH   5  13
TORSDOF 7
ENDMDL
MODEL 6
REMARK VINA RESULT:       5.5      1.868      6.859
REMARK  Name = 26744176
REMARK  9 active torsions:
REMARK  status: ('A' for Active; 'I' for Inactive)
REMARK    1  A    between atoms: O_1  and  C_11
REMARK    2  A    between atoms: O_3  and  C_27
REMARK    3  A    between atoms: O_3  and  C_30
REMARK    4  A    between atoms: N_5  and  C_13
REMARK    5  A    between atoms: N_8  and  C_21
REMARK    6  A    between atoms: C_9  and  C_14
REMARK    7  A    between atoms: C_13  and  C_15
REMARK    8  A    between atoms: C_18  and  C_22
REMARK    9  A    between atoms: C_28  and  C_29
REMARK                            x       y       z     vdW  Elec       q    Type
REMARK                         _______ _______ _______ _____ _____    ______ ____
ROOT
ATOM      5  N   UNL     1       0.782  -0.289  22.895  0.00  0.00    -0.285 NA
ATOM      9  C   UNL     1       1.421   0.537  23.939  0.00  0.00    +0.149 C 
ATOM     10  C   UNL     1       2.660   1.146  23.255  0.00  0.00    +0.061 C 
ATOM     11  C   UNL     1       2.656   0.568  21.846  0.00  0.00    +0.130 C 
ATOM     12  C   UNL     1       1.848  -0.708  21.987  0.00  0.00    +0.116 C 
ENDROOT
BRANCH   9  14
ATOM      2  O   UNL     1       1.062   2.570  25.249  0.00  0.00    -0.336 OA
ATOM      6  N   UNL     1      -0.810   1.696  24.384  0.00  0.00    -0.190 NA
ATOM      7  N   UNL     1       0.017   3.408  25.656  0.00  0.00    -0.056 NA
ATOM     14  C   UNL     1       0.489   1.587  24.504  0.00  0.00    +0.245 A 
ATOM     18  C   UNL     1      -1.054   2.828  25.107  0.00  0.00    +0.202 A 
BRANCH  18  22
ATOM     22  C   UNL     1      -2.380   3.352  25.260  0.00  0.00    +0.023 A 
ATOM     23  C   UNL     1      -2.872   3.643  26.533  0.00  0.00    +0.015 A 
ATOM     24  C   UNL     1      -3.177   3.571  24.138  0.00  0.00    +0.015 A 
ATOM     25  C   UNL     1      -4.163   4.152  26.681  0.00  0.00    +0.046 A 
ATOM     26  C   UNL     1      -4.469   4.079  24.286  0.00  0.00    +0.046 A 
ATOM     27  C   UNL     1      -4.961   4.370  25.559  0.00  0.00    +0.120 A 
BRANCH  27   3
ATOM      3  O   UNL     1      -6.220   4.865  25.703  0.00  0.00    -0.495 OA
ATOM     30  C   UNL     1      -6.553   6.021  24.936  0.00  0.00    +0.277 C 
ENDBRANCH  27   3
ENDBRANCH  18  22
ENDBRANCH   9  14
BRANCH  11   1
ATOM      1  O   UNL     1       3.975   0.309  21.406  0.00  0.00    -0.390 OA
ATOM     31  H   UNL     1       3.913  -0.152  20.553  0.00  0.00    +0.210 HD
ENDBRANCH  11   1
BRANCH   5  13
ATOM     13  C   UNL     1       0.042  -1.423  23.433  0.00  0.00    +0.120 C 
BRANCH  13  15
ATOM     15  C   UNL     1      -1.217  -0.990  24.135  0.00  0.00    -0.033 A 
ATOM     16  C   UNL     1      -2.277  -0.455  23.402  0.00  0.00    +0.007 A 
ATOM     17  C   UNL     1      -1.325  -1.123  25.519  0.00  0.00    +0.007 A 
ATOM     19  C   UNL     1      -3.442  -0.052  24.053  0.00  0.00    +0.023 A 
ATOM     20  C   UNL     1      -2.491  -0.722  26.171  0.00  0.00    +0.023 A 
ATOM     21  C   UNL     1      -3.549  -0.186  25.437  0.00  0.00    +0.033 A 
BRANCH  21   8
ATOM      4  O   UNL     1      -5.826   1.540  24.485  0.00  0.00    -0.276 OA
ATOM      8  N   UNL     1      -4.716   0.216  26.089  0.00  0.00    -0.286 N 
ATOM     28  C   UNL     1      -5.748   1.026  25.597  0.00  0.00    +0.214 C 
ATOM     29  C   UNL     1      -6.839   1.226  26.618  0.00  0.00    +0.109 C 
ATOM     32  H   UNL     1      -4.821  -0.128  27.041  0.00  0.00    +0.155 HD
ENDBRANCH  21   8
ENDBRANCH  13  15
ENDBRANCH   5  13
TORSDOF 7
ENDMDL
