MODEL 1
REMARK VINA RESULT:      -3.3      0.000      0.000
REMARK  Name = 51137843
REMARK  3 active torsions:
REMARK  status: ('A' for Active; 'I' for Inactive)
REMARK    1  A    between atoms: C_9  and  C_13
REMARK    2  A    between atoms: C_14  and  C_15
REMARK    3  A    between atoms: C_16  and  C_17
REMARK                            x       y       z     vdW  Elec       q    Type
REMARK                         _______ _______ _______ _____ _____    ______ ____
ROOT
ATOM      2  O   UNL     1      16.382  -8.395  25.203  0.00  0.00    -0.268 OA
ATOM      3  N   UNL     1      17.000  -7.456  27.235  0.00  0.00    -0.295 N 
ATOM      9  C   UNL     1      17.082  -6.794  29.520  0.00  0.00    +0.095 C 
ATOM     10  C   UNL     1      17.309  -8.310  29.413  0.00  0.00    +0.033 C 
ATOM     11  C   UNL     1      17.378  -6.327  28.088  0.00  0.00    +0.121 C 
ATOM     12  C   UNL     1      16.793  -8.660  28.024  0.00  0.00    +0.109 C 
ATOM     14  C   UNL     1      16.770  -7.437  25.869  0.00  0.00    +0.266 C 
ENDROOT
BRANCH  14  15
ATOM      6  N   UNL     1      17.200  -6.246  23.831  0.00  0.00    -0.247 NA
ATOM      7  N   UNL     1      17.195  -3.792  25.190  0.00  0.00    -0.259 NA
ATOM     15  C   UNL     1      16.993  -6.167  25.160  0.00  0.00    +0.144 A 
ATOM     18  C   UNL     1      16.991  -4.961  25.828  0.00  0.00    +0.143 A 
ATOM     21  C   UNL     1      17.405  -5.076  23.192  0.00  0.00    +0.131 A 
ATOM     22  C   UNL     1      17.404  -3.871  23.861  0.00  0.00    +0.130 A 
ENDBRANCH  14  15
BRANCH   9  13
ATOM      1  O   UNL     1      14.937  -7.525  30.465  0.00  0.00    -0.420 OA
ATOM      4  N   UNL     1      15.117  -5.308  30.227  0.00  0.00    -0.112 NA
ATOM      5  N   UNL     1      13.873  -5.579  30.762  0.00  0.00    -0.107 NA
ATOM     13  C   UNL     1      15.703  -6.472  30.069  0.00  0.00    +0.222 A 
ATOM     16  C   UNL     1      13.811  -6.885  30.884  0.00  0.00    +0.250 A 
BRANCH  16  17
ATOM      8  N   UNL     1      10.670  -7.926  32.580  0.00  0.00    -0.263 NA
ATOM     17  C   UNL     1      12.761  -7.725  31.382  0.00  0.00    +0.057 A 
ATOM     19  C   UNL     1      12.784  -9.099  31.178  0.00  0.00    +0.016 A 
ATOM     20  C   UNL     1      11.691  -7.192  32.083  0.00  0.00    +0.124 A 
ATOM     23  C   UNL     1      11.751  -9.888  31.672  0.00  0.00    +0.020 A 
ATOM     24  C   UNL     1      10.727  -9.259  32.361  0.00  0.00    +0.111 A 
ENDBRANCH  16  17
ENDBRANCH   9  13
TORSDOF 3
ENDMDL
MODEL 2
REMARK VINA RESULT:      -2.4      1.522      2.122
REMARK  Name = 51137843
REMARK  3 active torsions:
REMARK  status: ('A' for Active; 'I' for Inactive)
REMARK    1  A    between atoms: C_9  and  C_13
REMARK    2  A    between atoms: C_14  and  C_15
REMARK    3  A    between atoms: C_16  and  C_17
REMARK                            x       y       z     vdW  Elec       q    Type
REMARK                         _______ _______ _______ _____ _____    ______ ____
ROOT
ATOM      2  O   UNL     1      16.288  -6.110  24.191  0.00  0.00    -0.268 OA
ATOM      3  N   UNL     1      16.949  -6.149  26.418  0.00  0.00    -0.295 N 
ATOM      9  C   UNL     1      17.078  -6.551  28.760  0.00  0.00    +0.095 C 
ATOM     10  C   UNL     1      17.299  -7.866  27.997  0.00  0.00    +0.033 C 
ATOM     11  C   UNL     1      17.347  -5.503  27.671  0.00  0.00    +0.121 C 
ATOM     12  C   UNL     1      16.755  -7.578  26.605  0.00  0.00    +0.109 C 
ATOM     14  C   UNL     1      16.692  -5.537  25.202  0.00  0.00    +0.266 C 
ENDROOT
BRANCH  14  15
ATOM      6  N   UNL     1      17.108  -3.432  26.277  0.00  0.00    -0.247 NA
ATOM      7  N   UNL     1      17.081  -2.095  23.811  0.00  0.00    -0.259 NA
ATOM     15  C   UNL     1      16.903  -4.083  25.115  0.00  0.00    +0.144 A 
ATOM     18  C   UNL     1      16.891  -3.426  23.903  0.00  0.00    +0.143 A 
ATOM     21  C   UNL     1      17.298  -2.101  26.186  0.00  0.00    +0.131 A 
ATOM     22  C   UNL     1      17.285  -1.444  24.974  0.00  0.00    +0.130 A 
ENDBRANCH  14  15
BRANCH   9  13
ATOM      1  O   UNL     1      15.140  -7.707  29.728  0.00  0.00    -0.420 OA
ATOM      4  N   UNL     1      14.973  -5.476  29.751  0.00  0.00    -0.112 NA
ATOM      5  N   UNL     1      13.825  -5.996  30.319  0.00  0.00    -0.107 NA
ATOM     13  C   UNL     1      15.711  -6.510  29.421  0.00  0.00    +0.222 A 
ATOM     16  C   UNL     1      13.966  -7.300  30.285  0.00  0.00    +0.250 A 
BRANCH  16  17
ATOM      8  N   UNL     1      12.663 -10.709  30.996  0.00  0.00    -0.263 NA
ATOM     17  C   UNL     1      13.091  -8.344  30.736  0.00  0.00    +0.057 A 
ATOM     19  C   UNL     1      11.868  -8.050  31.326  0.00  0.00    +0.016 A 
ATOM     20  C   UNL     1      13.439  -9.677  30.594  0.00  0.00    +0.124 A 
ATOM     23  C   UNL     1      11.042  -9.084  31.753  0.00  0.00    +0.020 A 
ATOM     24  C   UNL     1      11.481 -10.384  31.566  0.00  0.00    +0.111 A 
ENDBRANCH  16  17
ENDBRANCH   9  13
TORSDOF 3
ENDMDL
MODEL 3
REMARK VINA RESULT:      -1.3     17.126     18.406
REMARK  Name = 51137843
REMARK  3 active torsions:
REMARK  status: ('A' for Active; 'I' for Inactive)
REMARK    1  A    between atoms: C_9  and  C_13
REMARK    2  A    between atoms: C_14  and  C_15
REMARK    3  A    between atoms: C_16  and  C_17
REMARK                            x       y       z     vdW  Elec       q    Type
REMARK                         _______ _______ _______ _____ _____    ______ ____
ROOT
ATOM      2  O   UNL     1       1.746  -0.335  21.060  0.00  0.00    -0.268 OA
ATOM      3  N   UNL     1       0.819  -0.770  23.145  0.00  0.00    -0.295 N 
ATOM      9  C   UNL     1      -0.591  -0.797  25.062  0.00  0.00    +0.095 C 
ATOM     10  C   UNL     1      -1.312  -1.466  23.881  0.00  0.00    +0.033 C 
ATOM     11  C   UNL     1       0.874  -0.843  24.606  0.00  0.00    +0.121 C 
ATOM     12  C   UNL     1      -0.535  -0.990  22.661  0.00  0.00    +0.109 C 
ATOM     14  C   UNL     1       1.854  -0.457  22.279  0.00  0.00    +0.266 C 
ENDROOT
BRANCH  14  15
ATOM      6  N   UNL     1       3.775  -1.303  23.442  0.00  0.00    -0.247 NA
ATOM      7  N   UNL     1       5.013   1.213  23.356  0.00  0.00    -0.259 NA
ATOM     15  C   UNL     1       3.186  -0.237  22.864  0.00  0.00    +0.144 A 
ATOM     18  C   UNL     1       3.794   0.999  22.822  0.00  0.00    +0.143 A 
ATOM     21  C   UNL     1       4.994  -1.088  23.977  0.00  0.00    +0.131 A 
ATOM     22  C   UNL     1       5.602   0.148  23.935  0.00  0.00    +0.130 A 
ENDBRANCH  14  15
BRANCH   9  13
ATOM      1  O   UNL     1      -2.513   0.723  25.228  0.00  0.00    -0.420 OA
ATOM      4  N   UNL     1      -0.555   1.673  25.746  0.00  0.00    -0.112 NA
ATOM      5  N   UNL     1      -1.542   2.631  25.879  0.00  0.00    -0.107 NA
ATOM     13  C   UNL     1      -1.166   0.576  25.365  0.00  0.00    +0.222 A 
ATOM     16  C   UNL     1      -2.668   2.032  25.568  0.00  0.00    +0.250 A 
BRANCH  16  17
ATOM      8  N   UNL     1      -5.527   4.397  25.809  0.00  0.00    -0.263 NA
ATOM     17  C   UNL     1      -4.011   2.535  25.530  0.00  0.00    +0.057 A 
ATOM     19  C   UNL     1      -5.077   1.707  25.198  0.00  0.00    +0.016 A 
ATOM     20  C   UNL     1      -4.286   3.860  25.825  0.00  0.00    +0.124 A 
ATOM     23  C   UNL     1      -6.368   2.224  25.170  0.00  0.00    +0.020 A 
ATOM     24  C   UNL     1      -6.538   3.563  25.482  0.00  0.00    +0.111 A 
ENDBRANCH  16  17
ENDBRANCH   9  13
TORSDOF 3
ENDMDL
MODEL 4
REMARK VINA RESULT:      -0.4     17.855     20.138
REMARK  Name = 51137843
REMARK  3 active torsions:
REMARK  status: ('A' for Active; 'I' for Inactive)
REMARK    1  A    between atoms: C_9  and  C_13
REMARK    2  A    between atoms: C_14  and  C_15
REMARK    3  A    between atoms: C_16  and  C_17
REMARK                            x       y       z     vdW  Elec       q    Type
REMARK                         _______ _______ _______ _____ _____    ______ ____
ROOT
ATOM      2  O   UNL     1      -4.242   4.555  23.419  0.00  0.00    -0.268 OA
ATOM      3  N   UNL     1      -2.486   3.772  24.722  0.00  0.00    -0.295 N 
ATOM      9  C   UNL     1      -0.390   2.928  25.471  0.00  0.00    +0.095 C 
ATOM     10  C   UNL     1      -0.210   4.357  24.935  0.00  0.00    +0.033 C 
ATOM     11  C   UNL     1      -1.904   2.871  25.719  0.00  0.00    +0.121 C 
ATOM     12  C   UNL     1      -1.461   4.595  24.100  0.00  0.00    +0.109 C 
ATOM     14  C   UNL     1      -3.809   3.831  24.314  0.00  0.00    +0.266 C 
ENDROOT
BRANCH  14  15
ATOM      6  N   UNL     1      -4.939   1.720  24.465  0.00  0.00    -0.247 NA
ATOM      7  N   UNL     1      -6.344   2.564  26.742  0.00  0.00    -0.259 NA
ATOM     15  C   UNL     1      -4.770   2.948  24.994  0.00  0.00    +0.144 A 
ATOM     18  C   UNL     1      -5.460   3.362  26.112  0.00  0.00    +0.143 A 
ATOM     21  C   UNL     1      -5.824   0.921  25.095  0.00  0.00    +0.131 A 
ATOM     22  C   UNL     1      -6.514   1.336  26.213  0.00  0.00    +0.130 A 
ENDBRANCH  14  15
BRANCH   9  13
ATOM      1  O   UNL     1       1.520   1.659  24.592  0.00  0.00    -0.420 OA
ATOM      4  N   UNL     1      -0.426   1.174  23.602  0.00  0.00    -0.112 NA
ATOM      5  N   UNL     1       0.555   0.397  23.017  0.00  0.00    -0.107 NA
ATOM     13  C   UNL     1       0.181   1.895  24.515  0.00  0.00    +0.222 A 
ATOM     16  C   UNL     1       1.674   0.713  23.625  0.00  0.00    +0.250 A 
BRANCH  16  17
ATOM      8  N   UNL     1       4.600  -1.581  23.670  0.00  0.00    -0.263 NA
ATOM     17  C   UNL     1       3.009   0.224  23.434  0.00  0.00    +0.057 A 
ATOM     19  C   UNL     1       3.989   1.022  22.858  0.00  0.00    +0.016 A 
ATOM     20  C   UNL     1       3.362  -1.059  23.820  0.00  0.00    +0.124 A 
ATOM     23  C   UNL     1       5.275   0.520  22.685  0.00  0.00    +0.020 A 
ATOM     24  C   UNL     1       5.526  -0.775  23.105  0.00  0.00    +0.111 A 
ENDBRANCH  16  17
ENDBRANCH   9  13
TORSDOF 3
ENDMDL
MODEL 5
REMARK VINA RESULT:      -0.1     17.933     19.493
REMARK  Name = 51137843
REMARK  3 active torsions:
REMARK  status: ('A' for Active; 'I' for Inactive)
REMARK    1  A    between atoms: C_9  and  C_13
REMARK    2  A    between atoms: C_14  and  C_15
REMARK    3  A    between atoms: C_16  and  C_17
REMARK                            x       y       z     vdW  Elec       q    Type
REMARK                         _______ _______ _______ _____ _____    ______ ____
ROOT
ATOM      2  O   UNL     1       1.192   2.341  26.079  0.00  0.00    -0.268 OA
ATOM      3  N   UNL     1      -0.538   2.889  24.629  0.00  0.00    -0.295 N 
ATOM      9  C   UNL     1      -2.678   3.256  23.654  0.00  0.00    +0.095 C 
ATOM     10  C   UNL     1      -2.454   4.254  24.801  0.00  0.00    +0.033 C 
ATOM     11  C   UNL     1      -1.245   2.796  23.350  0.00  0.00    +0.121 C 
ATOM     12  C   UNL     1      -1.313   3.642  25.602  0.00  0.00    +0.109 C 
ATOM     14  C   UNL     1       0.669   2.297  24.967  0.00  0.00    +0.266 C 
ENDROOT
BRANCH  14  15
ATOM      6  N   UNL     1       2.633   1.928  23.639  0.00  0.00    -0.247 NA
ATOM      7  N   UNL     1       1.400  -0.203  22.294  0.00  0.00    -0.259 NA
ATOM     15  C   UNL     1       1.372   1.541  23.918  0.00  0.00    +0.144 A 
ATOM     18  C   UNL     1       0.767   0.495  23.257  0.00  0.00    +0.143 A 
ATOM     21  C   UNL     1       3.267   1.230  22.675  0.00  0.00    +0.131 A 
ATOM     22  C   UNL     1       2.661   0.184  22.014  0.00  0.00    +0.130 A 
ENDBRANCH  14  15
BRANCH   9  13
ATOM      1  O   UNL     1      -3.217   0.890  24.031  0.00  0.00    -0.420 OA
ATOM      4  N   UNL     1      -4.932   2.282  24.391  0.00  0.00    -0.112 NA
ATOM      5  N   UNL     1      -5.369   0.994  24.636  0.00  0.00    -0.107 NA
ATOM     13  C   UNL     1      -3.672   2.174  24.040  0.00  0.00    +0.222 A 
ATOM     16  C   UNL     1      -4.336   0.215  24.413  0.00  0.00    +0.250 A 
BRANCH  16  17
ATOM      8  N   UNL     1      -3.394  -3.131  25.733  0.00  0.00    -0.263 NA
ATOM     17  C   UNL     1      -4.206  -1.210  24.510  0.00  0.00    +0.057 A 
ATOM     19  C   UNL     1      -4.730  -2.046  23.531  0.00  0.00    +0.016 A 
ATOM     20  C   UNL     1      -3.552  -1.796  25.581  0.00  0.00    +0.124 A 
ATOM     23  C   UNL     1      -4.588  -3.424  23.653  0.00  0.00    +0.020 A 
ATOM     24  C   UNL     1      -3.916  -3.911  24.762  0.00  0.00    +0.111 A 
ENDBRANCH  16  17
ENDBRANCH   9  13
TORSDOF 3
ENDMDL
MODEL 6
REMARK VINA RESULT:       0.3      2.225      3.167
REMARK  Name = 51137843
REMARK  3 active torsions:
REMARK  status: ('A' for Active; 'I' for Inactive)
REMARK    1  A    between atoms: C_9  and  C_13
REMARK    2  A    between atoms: C_14  and  C_15
REMARK    3  A    between atoms: C_16  and  C_17
REMARK                            x       y       z     vdW  Elec       q    Type
REMARK                         _______ _______ _______ _____ _____    ______ ____
ROOT
ATOM      2  O   UNL     1      14.407  -3.913  24.176  0.00  0.00    -0.268 OA
ATOM      3  N   UNL     1      16.119  -4.670  25.549  0.00  0.00    -0.295 N 
ATOM      9  C   UNL     1      17.367  -5.619  27.340  0.00  0.00    +0.095 C 
ATOM     10  C   UNL     1      16.587  -6.724  26.611  0.00  0.00    +0.033 C 
ATOM     11  C   UNL     1      17.364  -4.490  26.300  0.00  0.00    +0.121 C 
ATOM     12  C   UNL     1      15.523  -5.966  25.829  0.00  0.00    +0.109 C 
ATOM     14  C   UNL     1      15.491  -3.745  24.731  0.00  0.00    +0.266 C 
ENDROOT
BRANCH  14  15
ATOM      6  N   UNL     1      16.787  -2.285  23.335  0.00  0.00    -0.247 NA
ATOM      7  N   UNL     1      16.777  -0.290  25.307  0.00  0.00    -0.259 NA
ATOM     15  C   UNL     1      16.166  -2.455  24.519  0.00  0.00    +0.144 A 
ATOM     18  C   UNL     1      16.162  -1.474  25.488  0.00  0.00    +0.143 A 
ATOM     21  C   UNL     1      17.404  -1.100  23.154  0.00  0.00    +0.131 A 
ATOM     22  C   UNL     1      17.399  -0.120  24.123  0.00  0.00    +0.130 A 
ENDBRANCH  14  15
BRANCH   9  13
ATOM      1  O   UNL     1      15.797  -6.152  29.151  0.00  0.00    -0.420 OA
ATOM      4  N   UNL     1      17.008  -4.306  29.512  0.00  0.00    -0.112 NA
ATOM      5  N   UNL     1      16.173  -4.487  30.598  0.00  0.00    -0.107 NA
ATOM     13  C   UNL     1      16.755  -5.300  28.693  0.00  0.00    +0.222 A 
ATOM     16  C   UNL     1      15.485  -5.575  30.345  0.00  0.00    +0.250 A 
BRANCH  16  17
ATOM      8  N   UNL     1      12.145  -6.438  31.732  0.00  0.00    -0.263 NA
ATOM     17  C   UNL     1      14.475  -6.239  31.116  0.00  0.00    +0.057 A 
ATOM     19  C   UNL     1      14.797  -7.286  31.971  0.00  0.00    +0.016 A 
ATOM     20  C   UNL     1      13.146  -5.856  31.033  0.00  0.00    +0.124 A 
ATOM     23  C   UNL     1      13.795  -7.911  32.706  0.00  0.00    +0.020 A 
ATOM     24  C   UNL     1      12.497  -7.452  32.552  0.00  0.00    +0.111 A 
ENDBRANCH  16  17
ENDBRANCH   9  13
TORSDOF 3
ENDMDL
