MODEL 1
REMARK VINA RESULT:      -0.0      0.000      0.000
REMARK  Name = 51136964
REMARK  6 active torsions:
REMARK  status: ('A' for Active; 'I' for Inactive)
REMARK    1  A    between atoms: N_2  and  C_11
REMARK    2  A    between atoms: C_7  and  C_12
REMARK    3  A    between atoms: C_11  and  C_13
REMARK    4  A    between atoms: C_14  and  C_18
REMARK    5  A    between atoms: C_16  and  C_21
REMARK    6  A    between atoms: C_25  and  C_26
REMARK                            x       y       z     vdW  Elec       q    Type
REMARK                         _______ _______ _______ _____ _____    ______ ____
ROOT
ATOM      1  O   UNL     1      -3.259   2.571  22.450  0.00  0.00    -0.336 OA
ATOM      3  N   UNL     1      -2.380   1.274  24.050  0.00  0.00    -0.190 NA
ATOM      4  N   UNL     1      -1.922   2.364  22.092  0.00  0.00    -0.056 NA
ATOM     12  C   UNL     1      -3.446   1.896  23.614  0.00  0.00    +0.245 A 
ATOM     16  C   UNL     1      -1.470   1.591  23.083  0.00  0.00    +0.204 A 
ENDROOT
BRANCH  16  21
ATOM      5  N   UNL     1       2.162   1.458  23.868  0.00  0.00    -0.254 NA
ATOM     21  C   UNL     1      -0.117   1.118  23.138  0.00  0.00    +0.041 A 
ATOM     22  C   UNL     1       0.245  -0.088  22.548  0.00  0.00    +0.015 A 
ATOM     23  C   UNL     1       0.870   1.847  23.780  0.00  0.00    +0.123 A 
ATOM     24  C   UNL     1       1.564  -0.522  22.617  0.00  0.00    +0.029 A 
ATOM     25  C   UNL     1       2.476   0.282  23.283  0.00  0.00    +0.071 A 
BRANCH  25  26
ATOM      6  N   UNL     1       6.547  -0.854  23.613  0.00  0.00    -0.263 NA
ATOM     26  C   UNL     1       3.863  -0.105  23.395  0.00  0.00    +0.003 A 
ATOM     27  C   UNL     1       4.869   0.818  23.129  0.00  0.00    +0.030 A 
ATOM     28  C   UNL     1       4.197  -1.401  23.769  0.00  0.00    +0.030 A 
ATOM     29  C   UNL     1       6.183   0.397  23.251  0.00  0.00    +0.111 A 
ATOM     30  C   UNL     1       5.542  -1.723  23.863  0.00  0.00    +0.111 A 
ENDBRANCH  25  26
ENDBRANCH  16  21
BRANCH  12   7
ATOM      2  N   UNL     1      -4.906   1.318  25.544  0.00  0.00    -0.287 NA
ATOM      7  C   UNL     1      -4.833   1.963  24.218  0.00  0.00    +0.146 C 
ATOM      8  C   UNL     1      -5.307   3.408  24.459  0.00  0.00    +0.030 C 
ATOM      9  C   UNL     1      -5.682   3.462  25.934  0.00  0.00    +0.017 C 
ATOM     10  C   UNL     1      -5.958   2.014  26.285  0.00  0.00    +0.085 C 
BRANCH   2  11
ATOM     11  C   UNL     1      -5.145  -0.119  25.471  0.00  0.00    +0.120 C 
BRANCH  11  13
ATOM     13  C   UNL     1      -3.861  -0.896  25.361  0.00  0.00    -0.030 A 
ATOM     14  C   UNL     1      -3.725  -1.929  24.434  0.00  0.00    -0.046 A 
ATOM     15  C   UNL     1      -2.796  -0.568  26.201  0.00  0.00    +0.005 A 
ATOM     17  C   UNL     1      -2.526  -2.636  24.349  0.00  0.00    +0.003 A 
ATOM     18  C   UNL     1      -4.850  -2.298  23.524  0.00  0.00    +0.044 C 
ATOM     19  C   UNL     1      -1.597  -1.275  26.116  0.00  0.00    +0.000 A 
ATOM     20  C   UNL     1      -1.462  -2.309  25.189  0.00  0.00    +0.000 A 
ENDBRANCH  11  13
ENDBRANCH   2  11
ENDBRANCH  12   7
TORSDOF 5
ENDMDL
MODEL 2
REMARK VINA RESULT:       1.9      0.510      1.561
REMARK  Name = 51136964
REMARK  6 active torsions:
REMARK  status: ('A' for Active; 'I' for Inactive)
REMARK    1  A    between atoms: N_2  and  C_11
REMARK    2  A    between atoms: C_7  and  C_12
REMARK    3  A    between atoms: C_11  and  C_13
REMARK    4  A    between atoms: C_14  and  C_18
REMARK    5  A    between atoms: C_16  and  C_21
REMARK    6  A    between atoms: C_25  and  C_26
REMARK                            x       y       z     vdW  Elec       q    Type
REMARK                         _______ _______ _______ _____ _____    ______ ____
ROOT
ATOM      1  O   UNL     1      -3.376   2.565  22.407  0.00  0.00    -0.336 OA
ATOM      3  N   UNL     1      -2.452   1.446  24.113  0.00  0.00    -0.190 NA
ATOM      4  N   UNL     1      -2.056   2.298  22.026  0.00  0.00    -0.056 NA
ATOM     12  C   UNL     1      -3.526   2.032  23.647  0.00  0.00    +0.245 A 
ATOM     16  C   UNL     1      -1.576   1.635  23.083  0.00  0.00    +0.204 A 
ENDROOT
BRANCH  16  21
ATOM      5  N   UNL     1       2.051   1.465  23.886  0.00  0.00    -0.254 NA
ATOM     21  C   UNL     1      -0.227   1.150  23.142  0.00  0.00    +0.041 A 
ATOM     22  C   UNL     1       0.127  -0.055  22.546  0.00  0.00    +0.015 A 
ATOM     23  C   UNL     1       0.763   1.866  23.794  0.00  0.00    +0.123 A 
ATOM     24  C   UNL     1       1.442  -0.501  22.619  0.00  0.00    +0.029 A 
ATOM     25  C   UNL     1       2.358   0.290  23.295  0.00  0.00    +0.071 A 
BRANCH  25  26
ATOM      6  N   UNL     1       6.417  -0.881  23.638  0.00  0.00    -0.263 NA
ATOM     26  C   UNL     1       3.740  -0.110  23.412  0.00  0.00    +0.003 A 
ATOM     27  C   UNL     1       4.062  -1.408  23.792  0.00  0.00    +0.030 A 
ATOM     28  C   UNL     1       4.754   0.803  23.145  0.00  0.00    +0.030 A 
ATOM     29  C   UNL     1       5.404  -1.740  23.890  0.00  0.00    +0.111 A 
ATOM     30  C   UNL     1       6.065   0.371  23.271  0.00  0.00    +0.111 A 
ENDBRANCH  25  26
ENDBRANCH  16  21
BRANCH  12   7
ATOM      2  N   UNL     1      -5.121   1.213  25.373  0.00  0.00    -0.287 NA
ATOM      7  C   UNL     1      -4.888   2.190  24.291  0.00  0.00    +0.146 C 
ATOM      8  C   UNL     1      -5.074   3.565  24.959  0.00  0.00    +0.030 C 
ATOM      9  C   UNL     1      -5.469   3.257  26.397  0.00  0.00    +0.017 C 
ATOM     10  C   UNL     1      -6.034   1.854  26.319  0.00  0.00    +0.085 C 
BRANCH   2  11
ATOM     11  C   UNL     1      -5.638  -0.063  24.892  0.00  0.00    +0.120 C 
BRANCH  11  13
ATOM     13  C   UNL     1      -4.536  -1.066  24.671  0.00  0.00    -0.030 A 
ATOM     14  C   UNL     1      -3.491  -1.196  25.586  0.00  0.00    -0.046 A 
ATOM     15  C   UNL     1      -4.572  -1.871  23.533  0.00  0.00    +0.005 A 
ATOM     17  C   UNL     1      -2.481  -2.132  25.360  0.00  0.00    +0.003 A 
ATOM     18  C   UNL     1      -3.431  -0.346  26.811  0.00  0.00    +0.044 C 
ATOM     19  C   UNL     1      -3.562  -2.806  23.308  0.00  0.00    +0.000 A 
ATOM     20  C   UNL     1      -2.517  -2.937  24.222  0.00  0.00    +0.000 A 
ENDBRANCH  11  13
ENDBRANCH   2  11
ENDBRANCH  12   7
TORSDOF 5
ENDMDL
