MODEL 1
REMARK VINA RESULT:      -4.4      0.000      0.000
REMARK  Name = 38029504
REMARK  9 active torsions:
REMARK  status: ('A' for Active; 'I' for Inactive)
REMARK    1  A    between atoms: N_4  and  C_14
REMARK    2  A    between atoms: C_7  and  C_11
REMARK    3  A    between atoms: C_8  and  C_14
REMARK    4  A    between atoms: C_10  and  C_15
REMARK    5  A    between atoms: C_11  and  C_16
REMARK    6  A    between atoms: C_11  and  C_17
REMARK    7  A    between atoms: C_12  and  C_18
REMARK    8  A    between atoms: C_15  and  C_19
REMARK    9  A    between atoms: C_20  and  C_21
REMARK                            x       y       z     vdW  Elec       q    Type
REMARK                         _______ _______ _______ _____ _____    ______ ____
ROOT
ATOM      7  C   UNL     1      -2.813   2.386  23.974  0.00  0.00    +0.000 C 
ATOM      8  C   UNL     1      -1.587   2.810  24.821  0.00  0.00    +0.032 C 
ATOM      9  C   UNL     1      -3.849   3.520  23.925  0.00  0.00    +0.012 C 
ATOM     10  C   UNL     1      -4.340   3.922  25.329  0.00  0.00    +0.023 C 
ATOM     12  C   UNL     1      -3.189   4.098  26.299  0.00  0.00    -0.073 C 
ATOM     13  C   UNL     1      -1.963   3.606  26.049  0.00  0.00    -0.022 C 
ATOM     18  C   UNL     1      -3.469   4.893  27.544  0.00  0.00    +0.039 C 
ENDROOT
BRANCH   7  11
ATOM     11  C   UNL     1      -2.412   1.988  22.551  0.00  0.00    -0.013 C 
ATOM     16  C   UNL     1      -2.716   0.513  22.305  0.00  0.00    +0.007 C 
ATOM     17  C   UNL     1      -3.131   2.865  21.531  0.00  0.00    +0.007 C 
ENDBRANCH   7  11
BRANCH   8  14
ATOM     14  C   UNL     1      -0.754   1.592  25.237  0.00  0.00    +0.112 C 
BRANCH  14   4
ATOM      2  O   UNL     1       0.102  -0.676  23.699  0.00  0.00    -0.267 OA
ATOM      4  N   UNL     1       0.433   1.496  24.446  0.00  0.00    -0.308 N 
ATOM     20  C   UNL     1       0.774   0.352  23.727  0.00  0.00    +0.279 C 
ATOM     30  H   UNL     1       1.035   2.311  24.374  0.00  0.00    +0.149 HD
BRANCH  20  21
ATOM      3  O   UNL     1       3.072   1.134  23.501  0.00  0.00    -0.458 OA
ATOM     21  C   UNL     1       2.055   0.402  22.975  0.00  0.00    +0.189 A 
ATOM     23  C   UNL     1       2.439  -0.178  21.788  0.00  0.00    +0.054 A 
ATOM     25  C   UNL     1       3.779   0.223  21.571  0.00  0.00    +0.042 A 
ATOM     26  C   UNL     1       4.117   1.019  22.640  0.00  0.00    +0.196 A 
ENDBRANCH  20  21
ENDBRANCH  14   4
ENDBRANCH   8  14
BRANCH  10  15
ATOM     15  C   UNL     1      -5.362   2.913  25.867  0.00  0.00    +0.104 C 
BRANCH  15  19
ATOM      1  O   UNL     1      -6.059   1.348  24.173  0.00  0.00    -0.275 OA
ATOM      5  N   UNL     1      -4.338   0.771  25.664  0.00  0.00    -0.270 N 
ATOM      6  N   UNL     1      -2.996  -1.177  25.919  0.00  0.00    -0.240 NA
ATOM     19  C   UNL     1      -5.317   1.596  25.118  0.00  0.00    +0.219 C 
ATOM     22  C   UNL     1      -3.983  -0.536  25.252  0.00  0.00    +0.125 A 
ATOM     24  C   UNL     1      -4.676  -1.079  24.182  0.00  0.00    +0.044 A 
ATOM     27  C   UNL     1      -4.334  -2.362  23.770  0.00  0.00    +0.005 A 
ATOM     28  C   UNL     1      -2.693  -2.422  25.490  0.00  0.00    +0.113 A 
ATOM     29  C   UNL     1      -3.325  -3.053  24.431  0.00  0.00    +0.020 A 
ATOM     31  H   UNL     1      -3.797   1.120  26.453  0.00  0.00    +0.156 HD
ENDBRANCH  15  19
ENDBRANCH  10  15
TORSDOF 6
ENDMDL
MODEL 2
REMARK VINA RESULT:      -3.5      1.834      4.779
REMARK  Name = 38029504
REMARK  9 active torsions:
REMARK  status: ('A' for Active; 'I' for Inactive)
REMARK    1  A    between atoms: N_4  and  C_14
REMARK    2  A    between atoms: C_7  and  C_11
REMARK    3  A    between atoms: C_8  and  C_14
REMARK    4  A    between atoms: C_10  and  C_15
REMARK    5  A    between atoms: C_11  and  C_16
REMARK    6  A    between atoms: C_11  and  C_17
REMARK    7  A    between atoms: C_12  and  C_18
REMARK    8  A    between atoms: C_15  and  C_19
REMARK    9  A    between atoms: C_20  and  C_21
REMARK                            x       y       z     vdW  Elec       q    Type
REMARK                         _______ _______ _______ _____ _____    ______ ____
ROOT
ATOM      7  C   UNL     1      -1.416   0.051  25.035  0.00  0.00    +0.000 C 
ATOM      8  C   UNL     1      -0.849  -1.227  24.368  0.00  0.00    +0.032 C 
ATOM      9  C   UNL     1      -2.560  -0.309  25.995  0.00  0.00    +0.012 C 
ATOM     10  C   UNL     1      -3.712  -1.041  25.281  0.00  0.00    +0.023 C 
ATOM     12  C   UNL     1      -3.205  -2.153  24.387  0.00  0.00    -0.073 C 
ATOM     13  C   UNL     1      -1.919  -2.228  24.000  0.00  0.00    -0.022 C 
ATOM     18  C   UNL     1      -4.200  -3.206  23.985  0.00  0.00    +0.039 C 
ENDROOT
BRANCH   7  11
ATOM     11  C   UNL     1      -0.333   0.830  25.786  0.00  0.00    -0.013 C 
ATOM     16  C   UNL     1       0.410   1.762  24.834  0.00  0.00    +0.007 C 
ATOM     17  C   UNL     1      -0.947   1.616  26.941  0.00  0.00    +0.007 C 
ENDBRANCH   7  11
BRANCH   8  14
ATOM     14  C   UNL     1      -0.024  -0.881  23.123  0.00  0.00    +0.112 C 
BRANCH  14   4
ATOM      2  O   UNL     1       2.101  -0.165  21.329  0.00  0.00    -0.267 OA
ATOM      4  N   UNL     1       1.349  -0.675  23.464  0.00  0.00    -0.308 N 
ATOM     20  C   UNL     1       2.320  -0.327  22.527  0.00  0.00    +0.279 C 
ATOM     30  H   UNL     1       1.622  -0.748  24.441  0.00  0.00    +0.149 HD
BRANCH  20  21
ATOM      3  O   UNL     1       4.248  -1.216  23.725  0.00  0.00    -0.458 OA
ATOM     21  C   UNL     1       3.707  -0.176  23.039  0.00  0.00    +0.189 A 
ATOM     23  C   UNL     1       4.603   0.864  22.951  0.00  0.00    +0.054 A 
ATOM     25  C   UNL     1       5.771   0.434  23.626  0.00  0.00    +0.042 A 
ATOM     26  C   UNL     1       5.504  -0.836  24.078  0.00  0.00    +0.196 A 
ENDBRANCH  20  21
ENDBRANCH  14   4
ENDBRANCH   8  14
BRANCH  10  15
ATOM     15  C   UNL     1      -4.587  -0.058  24.493  0.00  0.00    +0.104 C 
BRANCH  15  19
ATOM      1  O   UNL     1      -5.308   1.844  25.782  0.00  0.00    -0.275 OA
ATOM      5  N   UNL     1      -3.333   1.968  24.516  0.00  0.00    -0.270 N 
ATOM      6  N   UNL     1      -1.727   3.690  24.176  0.00  0.00    -0.240 NA
ATOM     19  C   UNL     1      -4.477   1.358  25.021  0.00  0.00    +0.219 C 
ATOM     22  C   UNL     1      -2.873   3.283  24.768  0.00  0.00    +0.125 A 
ATOM     24  C   UNL     1      -3.634   4.075  25.612  0.00  0.00    +0.044 A 
ATOM     27  C   UNL     1      -3.191   5.368  25.866  0.00  0.00    +0.005 A 
ATOM     28  C   UNL     1      -1.329   4.952  24.446  0.00  0.00    +0.113 A 
ATOM     29  C   UNL     1      -2.018   5.823  25.275  0.00  0.00    +0.020 A 
ATOM     31  H   UNL     1      -2.736   1.431  23.891  0.00  0.00    +0.156 HD
ENDBRANCH  15  19
ENDBRANCH  10  15
TORSDOF 6
ENDMDL
MODEL 3
REMARK VINA RESULT:      -3.1      1.687      5.622
REMARK  Name = 38029504
REMARK  9 active torsions:
REMARK  status: ('A' for Active; 'I' for Inactive)
REMARK    1  A    between atoms: N_4  and  C_14
REMARK    2  A    between atoms: C_7  and  C_11
REMARK    3  A    between atoms: C_8  and  C_14
REMARK    4  A    between atoms: C_10  and  C_15
REMARK    5  A    between atoms: C_11  and  C_16
REMARK    6  A    between atoms: C_11  and  C_17
REMARK    7  A    between atoms: C_12  and  C_18
REMARK    8  A    between atoms: C_15  and  C_19
REMARK    9  A    between atoms: C_20  and  C_21
REMARK                            x       y       z     vdW  Elec       q    Type
REMARK                         _______ _______ _______ _____ _____    ______ ____
ROOT
ATOM      7  C   UNL     1      -3.761   3.351  25.708  0.00  0.00    +0.000 C 
ATOM      8  C   UNL     1      -3.748   3.761  24.214  0.00  0.00    +0.032 C 
ATOM      9  C   UNL     1      -2.757   4.200  26.505  0.00  0.00    +0.012 C 
ATOM     10  C   UNL     1      -1.319   4.055  25.971  0.00  0.00    +0.023 C 
ATOM     12  C   UNL     1      -1.264   4.181  24.462  0.00  0.00    -0.073 C 
ATOM     13  C   UNL     1      -2.361   4.060  23.694  0.00  0.00    -0.022 C 
ATOM     18  C   UNL     1       0.076   4.495  23.857  0.00  0.00    +0.039 C 
ENDROOT
BRANCH   7  11
ATOM     11  C   UNL     1      -5.156   3.486  26.323  0.00  0.00    -0.013 C 
ATOM     16  C   UNL     1      -6.041   4.369  25.449  0.00  0.00    +0.007 C 
ATOM     17  C   UNL     1      -5.788   2.110  26.515  0.00  0.00    +0.007 C 
ENDBRANCH   7  11
BRANCH   8  14
ATOM     14  C   UNL     1      -4.400   2.683  23.340  0.00  0.00    +0.112 C 
BRANCH  14   4
ATOM      2  O   UNL     1      -5.979   0.519  24.374  0.00  0.00    -0.267 OA
ATOM      4  N   UNL     1      -3.932   1.383  23.704  0.00  0.00    -0.308 N 
ATOM     20  C   UNL     1      -4.770   0.385  24.200  0.00  0.00    +0.279 C 
ATOM     30  H   UNL     1      -2.950   1.162  23.559  0.00  0.00    +0.149 HD
BRANCH  20  21
ATOM      3  O   UNL     1      -4.191  -1.920  23.657  0.00  0.00    -0.458 OA
ATOM     21  C   UNL     1      -4.124  -0.904  24.557  0.00  0.00    +0.189 A 
ATOM     23  C   UNL     1      -3.432  -1.297  25.680  0.00  0.00    +0.054 A 
ATOM     25  C   UNL     1      -3.048  -2.641  25.454  0.00  0.00    +0.042 A 
ATOM     26  C   UNL     1      -3.534  -2.972  24.211  0.00  0.00    +0.196 A 
ENDBRANCH  20  21
ENDBRANCH  14   4
ENDBRANCH   8  14
BRANCH  10  15
ATOM     15  C   UNL     1      -0.686   2.738  26.435  0.00  0.00    +0.104 C 
BRANCH  15  19
ATOM      1  O   UNL     1      -1.368   1.035  24.874  0.00  0.00    -0.275 OA
ATOM      5  N   UNL     1       0.832   1.855  24.825  0.00  0.00    -0.270 N 
ATOM      6  N   UNL     1       2.722   1.353  23.471  0.00  0.00    -0.240 NA
ATOM     19  C   UNL     1      -0.477   1.768  25.290  0.00  0.00    +0.219 C 
ATOM     22  C   UNL     1       1.424   1.119  23.771  0.00  0.00    +0.125 A 
ATOM     24  C   UNL     1       0.629   0.198  23.110  0.00  0.00    +0.044 A 
ATOM     27  C   UNL     1       1.202  -0.530  22.073  0.00  0.00    +0.005 A 
ATOM     28  C   UNL     1       3.244   0.627  22.458  0.00  0.00    +0.113 A 
ATOM     29  C   UNL     1       2.533  -0.318  21.735  0.00  0.00    +0.020 A 
ATOM     31  H   UNL     1       1.461   2.517  25.275  0.00  0.00    +0.156 HD
ENDBRANCH  15  19
ENDBRANCH  10  15
TORSDOF 6
ENDMDL
MODEL 4
REMARK VINA RESULT:      -1.2      1.750      2.876
REMARK  Name = 38029504
REMARK  9 active torsions:
REMARK  status: ('A' for Active; 'I' for Inactive)
REMARK    1  A    between atoms: N_4  and  C_14
REMARK    2  A    between atoms: C_7  and  C_11
REMARK    3  A    between atoms: C_8  and  C_14
REMARK    4  A    between atoms: C_10  and  C_15
REMARK    5  A    between atoms: C_11  and  C_16
REMARK    6  A    between atoms: C_11  and  C_17
REMARK    7  A    between atoms: C_12  and  C_18
REMARK    8  A    between atoms: C_15  and  C_19
REMARK    9  A    between atoms: C_20  and  C_21
REMARK                            x       y       z     vdW  Elec       q    Type
REMARK                         _______ _______ _______ _____ _____    ______ ____
ROOT
ATOM      7  C   UNL     1      -2.255   4.120  24.807  0.00  0.00    +0.000 C 
ATOM      8  C   UNL     1      -2.697   3.533  26.171  0.00  0.00    +0.032 C 
ATOM      9  C   UNL     1      -3.462   4.710  24.061  0.00  0.00    +0.012 C 
ATOM     10  C   UNL     1      -4.561   3.661  23.809  0.00  0.00    +0.023 C 
ATOM     12  C   UNL     1      -4.865   2.852  25.054  0.00  0.00    -0.073 C 
ATOM     13  C   UNL     1      -4.027   2.818  26.105  0.00  0.00    -0.022 C 
ATOM     18  C   UNL     1      -6.177   2.120  25.082  0.00  0.00    +0.039 C 
ENDROOT
BRANCH   7  11
ATOM     11  C   UNL     1      -1.172   5.190  24.972  0.00  0.00    -0.013 C 
ATOM     16  C   UNL     1      -0.111   5.046  23.886  0.00  0.00    +0.007 C 
ATOM     17  C   UNL     1      -1.793   6.584  24.939  0.00  0.00    +0.007 C 
ENDBRANCH   7  11
BRANCH   8  14
ATOM     14  C   UNL     1      -1.634   2.583  26.735  0.00  0.00    +0.112 C 
BRANCH  14   4
ATOM      2  O   UNL     1       1.167   2.672  26.110  0.00  0.00    -0.267 OA
ATOM      4  N   UNL     1      -0.972   1.880  25.682  0.00  0.00    -0.308 N 
ATOM     20  C   UNL     1       0.399   1.979  25.448  0.00  0.00    +0.279 C 
ATOM     30  H   UNL     1      -1.518   1.248  25.102  0.00  0.00    +0.149 HD
BRANCH  20  21
ATOM      3  O   UNL     1       2.133   1.572  23.783  0.00  0.00    -0.458 OA
ATOM     21  C   UNL     1       0.929   1.204  24.296  0.00  0.00    +0.189 A 
ATOM     23  C   UNL     1       0.418   0.129  23.607  0.00  0.00    +0.054 A 
ATOM     25  C   UNL     1       1.369  -0.185  22.607  0.00  0.00    +0.042 A 
ATOM     26  C   UNL     1       2.393   0.721  22.756  0.00  0.00    +0.196 A 
ENDBRANCH  20  21
ENDBRANCH  14   4
ENDBRANCH   8  14
BRANCH  10  15
ATOM     15  C   UNL     1      -4.192   2.745  22.636  0.00  0.00    +0.104 C 
BRANCH  15  19
ATOM      1  O   UNL     1      -2.061   1.719  23.093  0.00  0.00    -0.275 OA
ATOM      5  N   UNL     1      -4.040   0.489  23.387  0.00  0.00    -0.270 N 
ATOM      6  N   UNL     1      -4.476  -1.740  24.096  0.00  0.00    -0.240 NA
ATOM     19  C   UNL     1      -3.282   1.609  23.060  0.00  0.00    +0.219 C 
ATOM     22  C   UNL     1      -3.570  -0.772  23.828  0.00  0.00    +0.125 A 
ATOM     24  C   UNL     1      -2.201  -0.934  23.957  0.00  0.00    +0.044 A 
ATOM     27  C   UNL     1      -1.730  -2.169  24.390  0.00  0.00    +0.005 A 
ATOM     28  C   UNL     1      -3.981  -2.926  24.513  0.00  0.00    +0.113 A 
ATOM     29  C   UNL     1      -2.630  -3.189  24.675  0.00  0.00    +0.020 A 
ATOM     31  H   UNL     1      -5.053   0.552  23.310  0.00  0.00    +0.156 HD
ENDBRANCH  15  19
ENDBRANCH  10  15
TORSDOF 6
ENDMDL
MODEL 5
REMARK VINA RESULT:      -0.6      1.805      6.509
REMARK  Name = 38029504
REMARK  9 active torsions:
REMARK  status: ('A' for Active; 'I' for Inactive)
REMARK    1  A    between atoms: N_4  and  C_14
REMARK    2  A    between atoms: C_7  and  C_11
REMARK    3  A    between atoms: C_8  and  C_14
REMARK    4  A    between atoms: C_10  and  C_15
REMARK    5  A    between atoms: C_11  and  C_16
REMARK    6  A    between atoms: C_11  and  C_17
REMARK    7  A    between atoms: C_12  and  C_18
REMARK    8  A    between atoms: C_15  and  C_19
REMARK    9  A    between atoms: C_20  and  C_21
REMARK                            x       y       z     vdW  Elec       q    Type
REMARK                         _______ _______ _______ _____ _____    ______ ____
ROOT
ATOM      7  C   UNL     1      -2.436   3.131  25.010  0.00  0.00    +0.000 C 
ATOM      8  C   UNL     1      -3.774   3.020  24.236  0.00  0.00    +0.032 C 
ATOM      9  C   UNL     1      -1.288   3.476  24.048  0.00  0.00    +0.012 C 
ATOM     10  C   UNL     1      -1.124   2.424  22.935  0.00  0.00    +0.023 C 
ATOM     12  C   UNL     1      -2.452   2.062  22.301  0.00  0.00    -0.073 C 
ATOM     13  C   UNL     1      -3.626   2.349  22.891  0.00  0.00    -0.022 C 
ATOM     18  C   UNL     1      -2.400   1.404  20.951  0.00  0.00    +0.039 C 
ENDROOT
BRANCH   7  11
ATOM     11  C   UNL     1      -2.509   4.176  26.127  0.00  0.00    -0.013 C 
ATOM     16  C   UNL     1      -2.084   5.544  25.604  0.00  0.00    +0.007 C 
ATOM     17  C   UNL     1      -3.919   4.234  26.709  0.00  0.00    +0.007 C 
ENDBRANCH   7  11
BRANCH   8  14
ATOM     14  C   UNL     1      -4.831   2.280  25.064  0.00  0.00    +0.112 C 
BRANCH  14   4
ATOM      2  O   UNL     1      -2.709   0.486  25.784  0.00  0.00    -0.267 OA
ATOM      4  N   UNL     1      -4.780   0.874  24.811  0.00  0.00    -0.308 N 
ATOM     20  C   UNL     1      -3.707   0.073  25.198  0.00  0.00    +0.279 C 
ATOM     30  H   UNL     1      -5.579   0.431  24.365  0.00  0.00    +0.149 HD
BRANCH  20  21
ATOM      3  O   UNL     1      -4.517  -1.704  23.739  0.00  0.00    -0.458 OA
ATOM     21  C   UNL     1      -3.793  -1.366  24.838  0.00  0.00    +0.189 A 
ATOM     23  C   UNL     1      -3.257  -2.487  25.427  0.00  0.00    +0.054 A 
ATOM     25  C   UNL     1      -3.677  -3.585  24.639  0.00  0.00    +0.042 A 
ATOM     26  C   UNL     1      -4.441  -3.056  23.625  0.00  0.00    +0.196 A 
ENDBRANCH  20  21
ENDBRANCH  14   4
ENDBRANCH   8  14
BRANCH  10  15
ATOM     15  C   UNL     1      -0.407   1.173  23.459  0.00  0.00    +0.104 C 
BRANCH  15  19
ATOM      1  O   UNL     1       1.644   2.436  23.434  0.00  0.00    -0.275 OA
ATOM      5  N   UNL     1       1.714   0.089  23.511  0.00  0.00    -0.270 N 
ATOM      6  N   UNL     1       3.500  -1.481  23.577  0.00  0.00    -0.240 NA
ATOM     19  C   UNL     1       1.099   1.337  23.465  0.00  0.00    +0.219 C 
ATOM     22  C   UNL     1       3.102  -0.189  23.531  0.00  0.00    +0.125 A 
ATOM     24  C   UNL     1       3.970   0.890  23.503  0.00  0.00    +0.044 A 
ATOM     27  C   UNL     1       5.336   0.627  23.522  0.00  0.00    +0.005 A 
ATOM     28  C   UNL     1       4.834  -1.697  23.594  0.00  0.00    +0.113 A 
ATOM     29  C   UNL     1       5.783  -0.688  23.568  0.00  0.00    +0.020 A 
ATOM     31  H   UNL     1       1.123  -0.739  23.534  0.00  0.00    +0.156 HD
ENDBRANCH  15  19
ENDBRANCH  10  15
TORSDOF 6
ENDMDL
