MODEL 1
REMARK VINA RESULT:       2.6      0.000      0.000
REMARK  Name = 11912820
REMARK  9 active torsions:
REMARK  status: ('A' for Active; 'I' for Inactive)
REMARK    1  A    between atoms: O_4  and  C_29
REMARK    2  A    between atoms: O_4  and  C_30
REMARK    3  A    between atoms: N_5  and  C_11
REMARK    4  A    between atoms: N_6  and  C_12
REMARK    5  A    between atoms: C_15  and  C_16
REMARK    6  A    between atoms: C_16  and  C_18
REMARK    7  A    between atoms: C_16  and  C_19
REMARK    8  A    between atoms: C_16  and  C_20
REMARK    9  A    between atoms: C_21  and  C_24
REMARK                            x       y       z     vdW  Elec       q    Type
REMARK                         _______ _______ _______ _____ _____    ______ ____
ROOT
ATOM      6  N   UNL     1      -1.014  -2.273  24.501  0.00  0.00    -0.306 N 
ATOM      7  N   UNL     1      -2.895  -0.885  24.705  0.00  0.00    -0.214 NA
ATOM      8  N   UNL     1      -3.066  -3.056  23.676  0.00  0.00    -0.223 NA
ATOM     17  C   UNL     1      -2.365  -2.065  24.288  0.00  0.00    +0.216 A 
ATOM     21  C   UNL     1      -4.215  -0.716  24.482  0.00  0.00    +0.076 A 
ATOM     22  C   UNL     1      -4.381  -2.821  23.483  0.00  0.00    +0.116 A 
ATOM     23  C   UNL     1      -5.015  -1.658  23.869  0.00  0.00    +0.048 A 
ATOM     32  H   UNL     1      -0.620  -3.134  24.139  0.00  0.00    +0.149 HD
ENDROOT
BRANCH   6  12
ATOM      1  O   UNL     1      -0.242   0.871  26.188  0.00  0.00    -0.370 OA
ATOM      2  O   UNL     1       0.768  -0.009  23.370  0.00  0.00    -0.370 OA
ATOM      9  C   UNL     1      -0.416   0.669  23.823  0.00  0.00    +0.171 C 
ATOM     10  C   UNL     1      -0.809   0.051  25.152  0.00  0.00    +0.171 C 
ATOM     11  C   UNL     1      -0.098   2.107  24.167  0.00  0.00    +0.130 C 
ATOM     12  C   UNL     1      -0.147  -1.306  25.138  0.00  0.00    +0.130 C 
ATOM     13  C   UNL     1       0.421   1.994  25.590  0.00  0.00    +0.185 C 
ATOM     14  C   UNL     1       1.087  -1.066  24.286  0.00  0.00    +0.185 C 
BRANCH  11   5
ATOM      3  O   UNL     1      -0.286   4.851  24.917  0.00  0.00    -0.275 OA
ATOM      5  N   UNL     1      -1.280   2.932  24.105  0.00  0.00    -0.307 N 
ATOM     15  C   UNL     1      -1.282   4.265  24.492  0.00  0.00    +0.219 C 
ATOM     31  H   UNL     1      -2.123   2.522  23.713  0.00  0.00    +0.149 HD
BRANCH  15  16
ATOM     16  C   UNL     1      -2.648   4.967  24.343  0.00  0.00    +0.039 C 
ATOM     18  C   UNL     1      -3.272   5.169  25.736  0.00  0.00    +0.020 C 
ATOM     19  C   UNL     1      -2.464   6.343  23.685  0.00  0.00    +0.020 C 
ATOM     20  C   UNL     1      -3.598   4.100  23.501  0.00  0.00    +0.020 C 
ENDBRANCH  15  16
ENDBRANCH  11   5
ENDBRANCH   6  12
BRANCH  21  24
ATOM     24  C   UNL     1      -4.756   0.544  24.932  0.00  0.00    +0.001 A 
ATOM     25  C   UNL     1      -3.961   1.425  25.669  0.00  0.00    +0.013 A 
ATOM     26  C   UNL     1      -6.076   0.887  24.632  0.00  0.00    +0.013 A 
ATOM     27  C   UNL     1      -4.484   2.643  26.103  0.00  0.00    +0.046 A 
ATOM     28  C   UNL     1      -6.599   2.105  25.066  0.00  0.00    +0.046 A 
ATOM     29  C   UNL     1      -5.803   2.983  25.803  0.00  0.00    +0.120 A 
BRANCH  29   4
ATOM      4  O   UNL     1      -6.314   4.170  26.227  0.00  0.00    -0.495 OA
ATOM     30  C   UNL     1      -6.343   5.241  25.285  0.00  0.00    +0.277 C 
ENDBRANCH  29   4
ENDBRANCH  21  24
TORSDOF 5
ENDMDL
MODEL 2
REMARK VINA RESULT:       2.8      2.095      5.668
REMARK  Name = 11912820
REMARK  9 active torsions:
REMARK  status: ('A' for Active; 'I' for Inactive)
REMARK    1  A    between atoms: O_4  and  C_29
REMARK    2  A    between atoms: O_4  and  C_30
REMARK    3  A    between atoms: N_5  and  C_11
REMARK    4  A    between atoms: N_6  and  C_12
REMARK    5  A    between atoms: C_15  and  C_16
REMARK    6  A    between atoms: C_16  and  C_18
REMARK    7  A    between atoms: C_16  and  C_19
REMARK    8  A    between atoms: C_16  and  C_20
REMARK    9  A    between atoms: C_21  and  C_24
REMARK                            x       y       z     vdW  Elec       q    Type
REMARK                         _______ _______ _______ _____ _____    ______ ____
ROOT
ATOM      6  N   UNL     1      -3.541   4.692  24.815  0.00  0.00    -0.306 N 
ATOM      7  N   UNL     1      -4.068   2.408  24.939  0.00  0.00    -0.214 NA
ATOM      8  N   UNL     1      -5.500   4.064  25.946  0.00  0.00    -0.223 NA
ATOM     17  C   UNL     1      -4.395   3.692  25.246  0.00  0.00    +0.216 A 
ATOM     21  C   UNL     1      -4.922   1.459  25.373  0.00  0.00    +0.076 A 
ATOM     22  C   UNL     1      -6.310   3.064  26.351  0.00  0.00    +0.116 A 
ATOM     23  C   UNL     1      -6.069   1.731  26.092  0.00  0.00    +0.048 A 
ATOM     32  H   UNL     1      -3.768   5.640  25.095  0.00  0.00    +0.149 HD
ENDROOT
BRANCH   6  12
ATOM      1  O   UNL     1      -1.068   2.602  23.130  0.00  0.00    -0.370 OA
ATOM      2  O   UNL     1      -0.589   4.342  25.676  0.00  0.00    -0.370 OA
ATOM      9  C   UNL     1      -1.059   2.998  25.476  0.00  0.00    +0.171 C 
ATOM     10  C   UNL     1      -1.913   3.000  24.223  0.00  0.00    +0.171 C 
ATOM     11  C   UNL     1       0.096   2.084  25.132  0.00  0.00    +0.130 C 
ATOM     12  C   UNL     1      -2.331   4.442  24.064  0.00  0.00    +0.130 C 
ATOM     13  C   UNL     1       0.239   2.290  23.635  0.00  0.00    +0.185 C 
ATOM     14  C   UNL     1      -1.166   5.197  24.678  0.00  0.00    +0.185 C 
BRANCH  11   5
ATOM      3  O   UNL     1       0.701  -0.193  23.527  0.00  0.00    -0.275 OA
ATOM      5  N   UNL     1      -0.215   0.710  25.444  0.00  0.00    -0.307 N 
ATOM     15  C   UNL     1       0.118  -0.341  24.601  0.00  0.00    +0.219 C 
ATOM     31  H   UNL     1      -0.649   0.516  26.342  0.00  0.00    +0.149 HD
BRANCH  15  16
ATOM     16  C   UNL     1      -0.302  -1.730  25.124  0.00  0.00    +0.039 C 
ATOM     18  C   UNL     1       0.957  -2.554  25.453  0.00  0.00    +0.020 C 
ATOM     19  C   UNL     1      -1.137  -1.581  26.405  0.00  0.00    +0.020 C 
ATOM     20  C   UNL     1      -1.109  -2.477  24.051  0.00  0.00    +0.020 C 
ENDBRANCH  15  16
ENDBRANCH  11   5
ENDBRANCH   6  12
BRANCH  21  24
ATOM     24  C   UNL     1      -4.555   0.105  25.037  0.00  0.00    +0.001 A 
ATOM     25  C   UNL     1      -4.112  -0.769  26.034  0.00  0.00    +0.013 A 
ATOM     26  C   UNL     1      -4.641  -0.338  23.716  0.00  0.00    +0.013 A 
ATOM     27  C   UNL     1      -3.758  -2.078  25.708  0.00  0.00    +0.046 A 
ATOM     28  C   UNL     1      -4.286  -1.647  23.390  0.00  0.00    +0.046 A 
ATOM     29  C   UNL     1      -3.844  -2.517  24.388  0.00  0.00    +0.120 A 
BRANCH  29   4
ATOM      4  O   UNL     1      -3.497  -3.794  24.070  0.00  0.00    -0.495 OA
ATOM     30  C   UNL     1      -3.943  -4.296  22.811  0.00  0.00    +0.277 C 
ENDBRANCH  29   4
ENDBRANCH  21  24
TORSDOF 5
ENDMDL
MODEL 3
REMARK VINA RESULT:       4.5      1.829      5.606
REMARK  Name = 11912820
REMARK  9 active torsions:
REMARK  status: ('A' for Active; 'I' for Inactive)
REMARK    1  A    between atoms: O_4  and  C_29
REMARK    2  A    between atoms: O_4  and  C_30
REMARK    3  A    between atoms: N_5  and  C_11
REMARK    4  A    between atoms: N_6  and  C_12
REMARK    5  A    between atoms: C_15  and  C_16
REMARK    6  A    between atoms: C_16  and  C_18
REMARK    7  A    between atoms: C_16  and  C_19
REMARK    8  A    between atoms: C_16  and  C_20
REMARK    9  A    between atoms: C_21  and  C_24
REMARK                            x       y       z     vdW  Elec       q    Type
REMARK                         _______ _______ _______ _____ _____    ______ ____
ROOT
ATOM      6  N   UNL     1      -5.127  -0.355  24.837  0.00  0.00    -0.306 N 
ATOM      7  N   UNL     1      -2.852  -0.660  24.346  0.00  0.00    -0.214 NA
ATOM      8  N   UNL     1      -4.034  -2.221  25.749  0.00  0.00    -0.223 NA
ATOM     17  C   UNL     1      -3.971  -1.100  24.982  0.00  0.00    +0.216 A 
ATOM     21  C   UNL     1      -1.743  -1.410  24.508  0.00  0.00    +0.076 A 
ATOM     22  C   UNL     1      -2.889  -2.923  25.870  0.00  0.00    +0.116 A 
ATOM     23  C   UNL     1      -1.702  -2.562  25.266  0.00  0.00    +0.048 A 
ATOM     32  H   UNL     1      -5.940  -0.665  25.358  0.00  0.00    +0.149 HD
ENDROOT
BRANCH   6  12
ATOM      1  O   UNL     1      -3.760   2.514  23.042  0.00  0.00    -0.370 OA
ATOM      2  O   UNL     1      -5.510   2.614  25.624  0.00  0.00    -0.370 OA
ATOM      9  C   UNL     1      -4.096   2.490  25.398  0.00  0.00    +0.171 C 
ATOM     10  C   UNL     1      -3.910   1.628  24.164  0.00  0.00    +0.171 C 
ATOM     11  C   UNL     1      -3.509   3.826  25.003  0.00  0.00    +0.130 C 
ATOM     12  C   UNL     1      -5.205   0.857  24.054  0.00  0.00    +0.130 C 
ATOM     13  C   UNL     1      -3.775   3.871  23.510  0.00  0.00    +0.185 C 
ATOM     14  C   UNL     1      -6.214   1.814  24.663  0.00  0.00    +0.185 C 
BRANCH  11   5
ATOM      3  O   UNL     1      -1.869   1.646  25.833  0.00  0.00    -0.275 OA
ATOM      5  N   UNL     1      -2.094   3.878  25.285  0.00  0.00    -0.307 N 
ATOM     15  C   UNL     1      -1.371   2.763  25.686  0.00  0.00    +0.219 C 
ATOM     31  H   UNL     1      -1.614   4.760  25.131  0.00  0.00    +0.149 HD
BRANCH  15  16
ATOM     16  C   UNL     1       0.127   3.034  25.932  0.00  0.00    +0.039 C 
ATOM     18  C   UNL     1       0.967   2.167  24.976  0.00  0.00    +0.020 C 
ATOM     19  C   UNL     1       0.447   4.512  25.660  0.00  0.00    +0.020 C 
ATOM     20  C   UNL     1       0.499   2.669  27.378  0.00  0.00    +0.020 C 
ENDBRANCH  15  16
ENDBRANCH  11   5
ENDBRANCH   6  12
BRANCH  21  24
ATOM     24  C   UNL     1      -0.569  -0.923  23.826  0.00  0.00    +0.001 A 
ATOM     25  C   UNL     1       0.700  -1.358  24.217  0.00  0.00    +0.013 A 
ATOM     26  C   UNL     1      -0.695  -0.013  22.774  0.00  0.00    +0.013 A 
ATOM     27  C   UNL     1       1.835  -0.887  23.557  0.00  0.00    +0.046 A 
ATOM     28  C   UNL     1       0.439   0.458  22.114  0.00  0.00    +0.046 A 
ATOM     29  C   UNL     1       1.705   0.021  22.507  0.00  0.00    +0.120 A 
BRANCH  29   4
ATOM      4  O   UNL     1       2.812   0.482  21.864  0.00  0.00    -0.495 OA
ATOM     30  C   UNL     1       3.941   0.819  22.669  0.00  0.00    +0.277 C 
ENDBRANCH  29   4
ENDBRANCH  21  24
TORSDOF 5
ENDMDL
MODEL 4
REMARK VINA RESULT:       5.9      2.057      4.461
REMARK  Name = 11912820
REMARK  9 active torsions:
REMARK  status: ('A' for Active; 'I' for Inactive)
REMARK    1  A    between atoms: O_4  and  C_29
REMARK    2  A    between atoms: O_4  and  C_30
REMARK    3  A    between atoms: N_5  and  C_11
REMARK    4  A    between atoms: N_6  and  C_12
REMARK    5  A    between atoms: C_15  and  C_16
REMARK    6  A    between atoms: C_16  and  C_18
REMARK    7  A    between atoms: C_16  and  C_19
REMARK    8  A    between atoms: C_16  and  C_20
REMARK    9  A    between atoms: C_21  and  C_24
REMARK                            x       y       z     vdW  Elec       q    Type
REMARK                         _______ _______ _______ _____ _____    ______ ____
ROOT
ATOM      6  N   UNL     1       0.458  -2.056  23.429  0.00  0.00    -0.306 N 
ATOM      7  N   UNL     1       0.013   0.163  24.052  0.00  0.00    -0.214 NA
ATOM      8  N   UNL     1       1.923  -0.379  22.687  0.00  0.00    -0.223 NA
ATOM     17  C   UNL     1       0.809  -0.718  23.389  0.00  0.00    +0.216 A 
ATOM     21  C   UNL     1       0.383   1.459  23.991  0.00  0.00    +0.076 A 
ATOM     22  C   UNL     1       2.236   0.934  22.668  0.00  0.00    +0.116 A 
ATOM     23  C   UNL     1       1.495   1.906  23.309  0.00  0.00    +0.048 A 
ATOM     32  H   UNL     1       1.088  -2.708  22.974  0.00  0.00    +0.149 HD
ENDROOT
BRANCH   6  12
ATOM      1  O   UNL     1      -3.095  -2.246  24.244  0.00  0.00    -0.370 OA
ATOM      2  O   UNL     1      -0.812  -1.299  26.149  0.00  0.00    -0.370 OA
ATOM      9  C   UNL     1      -1.628  -0.622  25.179  0.00  0.00    +0.171 C 
ATOM     10  C   UNL     1      -1.841  -1.578  24.021  0.00  0.00    +0.171 C 
ATOM     11  C   UNL     1      -3.019  -0.397  25.730  0.00  0.00    +0.130 C 
ATOM     12  C   UNL     1      -0.698  -2.558  24.137  0.00  0.00    +0.130 C 
ATOM     13  C   UNL     1      -3.704  -1.718  25.431  0.00  0.00    +0.185 C 
ATOM     14  C   UNL     1      -0.430  -2.582  25.631  0.00  0.00    +0.185 C 
BRANCH  11   5
ATOM      3  O   UNL     1      -5.506   0.789  26.460  0.00  0.00    -0.275 OA
ATOM      5  N   UNL     1      -3.675   0.698  25.057  0.00  0.00    -0.307 N 
ATOM     15  C   UNL     1      -4.891   1.215  25.483  0.00  0.00    +0.219 C 
ATOM     31  H   UNL     1      -3.193   1.129  24.274  0.00  0.00    +0.149 HD
BRANCH  15  16
ATOM     16  C   UNL     1      -5.418   2.385  24.626  0.00  0.00    +0.039 C 
ATOM     18  C   UNL     1      -6.819   2.035  24.090  0.00  0.00    +0.020 C 
ATOM     19  C   UNL     1      -5.525   3.657  25.480  0.00  0.00    +0.020 C 
ATOM     20  C   UNL     1      -4.483   2.627  23.431  0.00  0.00    +0.020 C 
ENDBRANCH  15  16
ENDBRANCH  11   5
ENDBRANCH   6  12
BRANCH  21  24
ATOM     24  C   UNL     1      -0.474   2.375  24.704  0.00  0.00    +0.001 A 
ATOM     25  C   UNL     1      -1.146   3.387  24.014  0.00  0.00    +0.013 A 
ATOM     26  C   UNL     1      -0.635   2.254  26.086  0.00  0.00    +0.013 A 
ATOM     27  C   UNL     1      -1.974   4.272  24.703  0.00  0.00    +0.046 A 
ATOM     28  C   UNL     1      -1.463   3.140  26.775  0.00  0.00    +0.046 A 
ATOM     29  C   UNL     1      -2.133   4.150  26.083  0.00  0.00    +0.120 A 
BRANCH  29   4
ATOM      4  O   UNL     1      -2.939   5.014  26.756  0.00  0.00    -0.495 OA
ATOM     30  C   UNL     1      -3.553   4.535  27.952  0.00  0.00    +0.277 C 
ENDBRANCH  29   4
ENDBRANCH  21  24
TORSDOF 5
ENDMDL
MODEL 5
REMARK VINA RESULT:       6.0      2.018      3.409
REMARK  Name = 11912820
REMARK  9 active torsions:
REMARK  status: ('A' for Active; 'I' for Inactive)
REMARK    1  A    between atoms: O_4  and  C_29
REMARK    2  A    between atoms: O_4  and  C_30
REMARK    3  A    between atoms: N_5  and  C_11
REMARK    4  A    between atoms: N_6  and  C_12
REMARK    5  A    between atoms: C_15  and  C_16
REMARK    6  A    between atoms: C_16  and  C_18
REMARK    7  A    between atoms: C_16  and  C_19
REMARK    8  A    between atoms: C_16  and  C_20
REMARK    9  A    between atoms: C_21  and  C_24
REMARK                            x       y       z     vdW  Elec       q    Type
REMARK                         _______ _______ _______ _____ _____    ______ ____
ROOT
ATOM      6  N   UNL     1      -0.461  -1.401  23.540  0.00  0.00    -0.306 N 
ATOM      7  N   UNL     1      -2.413  -0.399  24.375  0.00  0.00    -0.214 NA
ATOM      8  N   UNL     1      -2.076  -2.779  24.540  0.00  0.00    -0.223 NA
ATOM     17  C   UNL     1      -1.686  -1.530  24.170  0.00  0.00    +0.216 A 
ATOM     21  C   UNL     1      -3.601  -0.562  24.992  0.00  0.00    +0.076 A 
ATOM     22  C   UNL     1      -3.276  -2.870  25.151  0.00  0.00    +0.116 A 
ATOM     23  C   UNL     1      -4.089  -1.784  25.406  0.00  0.00    +0.048 A 
ATOM     32  H   UNL     1       0.047  -2.256  23.347  0.00  0.00    +0.149 HD
ENDROOT
BRANCH   6  12
ATOM      1  O   UNL     1       1.766   1.487  23.701  0.00  0.00    -0.370 OA
ATOM      2  O   UNL     1      -1.337   1.528  24.028  0.00  0.00    -0.370 OA
ATOM      9  C   UNL     1      -0.253   1.327  24.950  0.00  0.00    +0.171 C 
ATOM     10  C   UNL     1       0.819   0.539  24.222  0.00  0.00    +0.171 C 
ATOM     11  C   UNL     1       0.415   2.646  25.270  0.00  0.00    +0.130 C 
ATOM     12  C   UNL     1       0.078  -0.136  23.092  0.00  0.00    +0.130 C 
ATOM     13  C   UNL     1       1.386   2.807  24.115  0.00  0.00    +0.185 C 
ATOM     14  C   UNL     1      -1.047   0.841  22.802  0.00  0.00    +0.185 C 
BRANCH  11   5
ATOM      3  O   UNL     1      -0.768   2.805  27.859  0.00  0.00    -0.275 OA
ATOM      5  N   UNL     1       1.109   2.586  26.534  0.00  0.00    -0.307 N 
ATOM     15  C   UNL     1       0.451   2.672  27.753  0.00  0.00    +0.219 C 
ATOM     31  H   UNL     1       2.112   2.424  26.515  0.00  0.00    +0.149 HD
BRANCH  15  16
ATOM     16  C   UNL     1       1.379   2.584  28.982  0.00  0.00    +0.039 C 
ATOM     18  C   UNL     1       0.663   3.183  30.206  0.00  0.00    +0.020 C 
ATOM     19  C   UNL     1       1.716   1.115  29.284  0.00  0.00    +0.020 C 
ATOM     20  C   UNL     1       2.668   3.381  28.729  0.00  0.00    +0.020 C 
ENDBRANCH  15  16
ENDBRANCH  11   5
ENDBRANCH   6  12
BRANCH  21  24
ATOM     24  C   UNL     1      -4.356   0.651  25.198  0.00  0.00    +0.001 A 
ATOM     25  C   UNL     1      -5.745   0.646  25.046  0.00  0.00    +0.013 A 
ATOM     26  C   UNL     1      -3.701   1.833  25.548  0.00  0.00    +0.013 A 
ATOM     27  C   UNL     1      -6.474   1.819  25.245  0.00  0.00    +0.046 A 
ATOM     28  C   UNL     1      -4.430   3.006  25.747  0.00  0.00    +0.046 A 
ATOM     29  C   UNL     1      -5.817   2.998  25.595  0.00  0.00    +0.120 A 
BRANCH  29   4
ATOM      4  O   UNL     1      -6.528   4.143  25.788  0.00  0.00    -0.495 OA
ATOM     30  C   UNL     1      -5.933   5.361  25.343  0.00  0.00    +0.277 C 
ENDBRANCH  29   4
ENDBRANCH  21  24
TORSDOF 5
ENDMDL
MODEL 6
REMARK VINA RESULT:       6.2      2.076      5.611
REMARK  Name = 11912820
REMARK  9 active torsions:
REMARK  status: ('A' for Active; 'I' for Inactive)
REMARK    1  A    between atoms: O_4  and  C_29
REMARK    2  A    between atoms: O_4  and  C_30
REMARK    3  A    between atoms: N_5  and  C_11
REMARK    4  A    between atoms: N_6  and  C_12
REMARK    5  A    between atoms: C_15  and  C_16
REMARK    6  A    between atoms: C_16  and  C_18
REMARK    7  A    between atoms: C_16  and  C_19
REMARK    8  A    between atoms: C_16  and  C_20
REMARK    9  A    between atoms: C_21  and  C_24
REMARK                            x       y       z     vdW  Elec       q    Type
REMARK                         _______ _______ _______ _____ _____    ______ ____
ROOT
ATOM      6  N   UNL     1      -4.390   4.422  25.015  0.00  0.00    -0.306 N 
ATOM      7  N   UNL     1      -3.950   2.116  25.011  0.00  0.00    -0.214 NA
ATOM      8  N   UNL     1      -6.198   2.947  24.765  0.00  0.00    -0.223 NA
ATOM     17  C   UNL     1      -4.860   3.124  24.928  0.00  0.00    +0.216 A 
ATOM     21  C   UNL     1      -4.443   0.864  24.922  0.00  0.00    +0.076 A 
ATOM     22  C   UNL     1      -6.623   1.669  24.684  0.00  0.00    +0.116 A 
ATOM     23  C   UNL     1      -5.782   0.577  24.757  0.00  0.00    +0.048 A 
ATOM     32  H   UNL     1      -5.083   5.162  25.004  0.00  0.00    +0.149 HD
ENDROOT
BRANCH   6  12
ATOM      1  O   UNL     1      -0.833   4.300  24.204  0.00  0.00    -0.370 OA
ATOM      2  O   UNL     1      -2.171   3.228  26.812  0.00  0.00    -0.370 OA
ATOM      9  C   UNL     1      -1.927   2.647  25.520  0.00  0.00    +0.171 C 
ATOM     10  C   UNL     1      -2.127   3.740  24.488  0.00  0.00    +0.171 C 
ATOM     11  C   UNL     1      -0.470   2.271  25.380  0.00  0.00    +0.130 C 
ATOM     12  C   UNL     1      -2.995   4.757  25.191  0.00  0.00    +0.130 C 
ATOM     13  C   UNL     1       0.163   3.580  24.944  0.00  0.00    +0.185 C 
ATOM     14  C   UNL     1      -2.593   4.590  26.645  0.00  0.00    +0.185 C 
BRANCH  11   5
ATOM      3  O   UNL     1       1.917   1.738  23.914  0.00  0.00    -0.275 OA
ATOM      5  N   UNL     1      -0.289   1.244  24.382  0.00  0.00    -0.307 N 
ATOM     15  C   UNL     1       0.913   1.054  23.714  0.00  0.00    +0.219 C 
ATOM     31  H   UNL     1      -1.065   0.612  24.209  0.00  0.00    +0.149 HD
BRANCH  15  16
ATOM     16  C   UNL     1       0.894  -0.099  22.690  0.00  0.00    +0.039 C 
ATOM     18  C   UNL     1       0.972  -1.444  23.434  0.00  0.00    +0.020 C 
ATOM     19  C   UNL     1      -0.412  -0.063  21.880  0.00  0.00    +0.020 C 
ATOM     20  C   UNL     1       2.103   0.012  21.748  0.00  0.00    +0.020 C 
ENDBRANCH  15  16
ENDBRANCH  11   5
ENDBRANCH   6  12
BRANCH  21  24
ATOM     24  C   UNL     1      -3.460  -0.189  25.015  0.00  0.00    +0.001 A 
ATOM     25  C   UNL     1      -3.444  -1.217  24.069  0.00  0.00    +0.013 A 
ATOM     26  C   UNL     1      -2.523  -0.184  26.050  0.00  0.00    +0.013 A 
ATOM     27  C   UNL     1      -2.494  -2.235  24.160  0.00  0.00    +0.046 A 
ATOM     28  C   UNL     1      -1.573  -1.201  26.140  0.00  0.00    +0.046 A 
ATOM     29  C   UNL     1      -1.559  -2.227  25.194  0.00  0.00    +0.120 A 
BRANCH  29   4
ATOM      4  O   UNL     1      -0.633  -3.220  25.283  0.00  0.00    -0.495 OA
ATOM     30  C   UNL     1       0.643  -2.874  25.820  0.00  0.00    +0.277 C 
ENDBRANCH  29   4
ENDBRANCH  21  24
TORSDOF 5
ENDMDL
