MODEL 1
REMARK VINA RESULT:       9.3      0.000      0.000
REMARK  Name = 40777718
REMARK  13 active torsions:
REMARK  status: ('A' for Active; 'I' for Inactive)
REMARK    1  A    between atoms: O_2  and  C_30
REMARK    2  A    between atoms: N_4  and  C_9
REMARK    3  A    between atoms: N_5  and  C_16
REMARK    4  A    between atoms: C_7  and  C_10
REMARK    5  A    between atoms: C_13  and  C_17
REMARK    6  A    between atoms: C_14  and  C_19
REMARK    7  A    between atoms: C_15  and  C_18
REMARK    8  A    between atoms: C_15  and  C_25
REMARK    9  A    between atoms: C_15  and  C_26
REMARK   10  A    between atoms: C_15  and  C_27
REMARK   11  A    between atoms: C_20  and  C_28
REMARK   12  A    between atoms: C_28  and  C_29
REMARK   13  A    between atoms: C_29  and  C_30
REMARK                            x       y       z     vdW  Elec       q    Type
REMARK                         _______ _______ _______ _____ _____    ______ ____
ROOT
ATOM      5  N   UNL     1       0.898  -0.324  23.729  0.00  0.00    -0.236 N 
ATOM      6  N   UNL     1       0.212  -1.475  23.824  0.00  0.00    -0.171 NA
ATOM     10  C   UNL     1      -1.183   0.334  23.803  0.00  0.00    +0.003 A 
ATOM     13  C   UNL     1       0.110   0.788  23.713  0.00  0.00    +0.046 A 
ATOM     14  C   UNL     1      -1.059  -1.067  23.870  0.00  0.00    +0.064 A 
ATOM     17  C   UNL     1       0.647   2.161  23.614  0.00  0.00    +0.066 C 
ATOM     19  C   UNL     1      -2.138  -2.065  23.980  0.00  0.00    +0.068 C 
ENDROOT
BRANCH   5  16
ATOM     16  C   UNL     1       2.292  -0.354  23.657  0.00  0.00    +0.066 A 
ATOM     18  C   UNL     1       5.077  -0.409  23.520  0.00  0.00    -0.042 A 
ATOM     21  C   UNL     1       2.986  -1.506  24.026  0.00  0.00    +0.028 A 
ATOM     22  C   UNL     1       2.990   0.772  23.220  0.00  0.00    +0.028 A 
ATOM     23  C   UNL     1       4.378  -1.533  23.957  0.00  0.00    +0.006 A 
ATOM     24  C   UNL     1       4.383   0.744  23.152  0.00  0.00    +0.006 A 
BRANCH  18  15
ATOM     15  C   UNL     1       6.567  -0.438  23.448  0.00  0.00    -0.013 C 
ATOM     25  C   UNL     1       7.173  -1.297  24.601  0.00  0.00    +0.015 C 
ATOM     26  C   UNL     1       7.167   0.998  23.567  0.00  0.00    +0.015 C 
ATOM     27  C   UNL     1       7.164  -1.031  22.129  0.00  0.00    +0.015 C 
ENDBRANCH  18  15
ENDBRANCH   5  16
BRANCH  10   7
ATOM      7  C   UNL     1      -2.450   1.156  23.829  0.00  0.00    +0.047 C 
ATOM      8  C   UNL     1      -2.282   2.516  24.538  0.00  0.00    +0.039 C 
ATOM      9  C   UNL     1      -3.194   3.495  23.787  0.00  0.00    +0.097 C 
ATOM     11  C   UNL     1      -2.965   1.559  22.476  0.00  0.00    -0.021 C 
ATOM     12  C   UNL     1      -3.370   2.832  22.461  0.00  0.00    -0.009 C 
BRANCH   9   4
ATOM      1  O   UNL     1      -3.718   4.211  26.537  0.00  0.00    -0.276 OA
ATOM      4  N   UNL     1      -4.479   3.651  24.413  0.00  0.00    -0.309 N 
ATOM     20  C   UNL     1      -4.634   3.999  25.747  0.00  0.00    +0.214 C 
ATOM     31  H   UNL     1      -5.311   3.461  23.861  0.00  0.00    +0.149 HD
BRANCH  20  28
ATOM     28  C   UNL     1      -6.100   4.089  26.133  0.00  0.00    +0.107 C 
BRANCH  28  29
ATOM     29  C   UNL     1      -6.693   2.731  26.495  0.00  0.00    +0.129 C 
BRANCH  29  30
ATOM      3  O   UNL     1      -5.341   0.889  25.659  0.00  0.00    -0.251 OA
ATOM     30  C   UNL     1      -6.282   1.656  25.516  0.00  0.00    +0.305 C 
BRANCH  30   2
ATOM      2  O   UNL     1      -7.099   1.636  24.430  0.00  0.00    -0.481 OA
ATOM     32  H   UNL     1      -6.703   2.108  23.667  0.00  0.00    +0.295 HD
ENDBRANCH  30   2
ENDBRANCH  29  30
ENDBRANCH  28  29
ENDBRANCH  20  28
ENDBRANCH   9   4
ENDBRANCH  10   7
TORSDOF 8
ENDMDL
MODEL 2
REMARK VINA RESULT:       9.7      1.135      2.037
REMARK  Name = 40777718
REMARK  13 active torsions:
REMARK  status: ('A' for Active; 'I' for Inactive)
REMARK    1  A    between atoms: O_2  and  C_30
REMARK    2  A    between atoms: N_4  and  C_9
REMARK    3  A    between atoms: N_5  and  C_16
REMARK    4  A    between atoms: C_7  and  C_10
REMARK    5  A    between atoms: C_13  and  C_17
REMARK    6  A    between atoms: C_14  and  C_19
REMARK    7  A    between atoms: C_15  and  C_18
REMARK    8  A    between atoms: C_15  and  C_25
REMARK    9  A    between atoms: C_15  and  C_26
REMARK   10  A    between atoms: C_15  and  C_27
REMARK   11  A    between atoms: C_20  and  C_28
REMARK   12  A    between atoms: C_28  and  C_29
REMARK   13  A    between atoms: C_29  and  C_30
REMARK                            x       y       z     vdW  Elec       q    Type
REMARK                         _______ _______ _______ _____ _____    ______ ____
ROOT
ATOM      5  N   UNL     1       0.524  -0.536  24.029  0.00  0.00    -0.236 N 
ATOM      6  N   UNL     1      -0.134  -1.693  23.844  0.00  0.00    -0.171 NA
ATOM     10  C   UNL     1      -1.552  -0.008  24.452  0.00  0.00    +0.003 A 
ATOM     13  C   UNL     1      -0.279   0.503  24.394  0.00  0.00    +0.046 A 
ATOM     14  C   UNL     1      -1.403  -1.364  24.104  0.00  0.00    +0.064 A 
ATOM     17  C   UNL     1       0.227   1.867  24.652  0.00  0.00    +0.066 C 
ATOM     19  C   UNL     1      -2.453  -2.393  24.008  0.00  0.00    +0.068 C 
ENDROOT
BRANCH   5  16
ATOM     16  C   UNL     1       1.907  -0.490  23.842  0.00  0.00    +0.066 A 
ATOM     18  C   UNL     1       4.670  -0.393  23.477  0.00  0.00    -0.042 A 
ATOM     21  C   UNL     1       2.693  -1.591  24.178  0.00  0.00    +0.028 A 
ATOM     22  C   UNL     1       2.501   0.660  23.325  0.00  0.00    +0.028 A 
ATOM     23  C   UNL     1       4.075  -1.543  23.995  0.00  0.00    +0.006 A 
ATOM     24  C   UNL     1       3.883   0.709  23.142  0.00  0.00    +0.006 A 
BRANCH  18  15
ATOM     15  C   UNL     1       6.148  -0.341  23.282  0.00  0.00    -0.013 C 
ATOM     25  C   UNL     1       6.880  -1.333  24.239  0.00  0.00    +0.015 C 
ATOM     26  C   UNL     1       6.707   1.087  23.569  0.00  0.00    +0.015 C 
ATOM     27  C   UNL     1       6.650  -0.703  21.845  0.00  0.00    +0.015 C 
ENDBRANCH  18  15
ENDBRANCH   5  16
BRANCH  10   7
ATOM      7  C   UNL     1      -2.825   0.723  24.811  0.00  0.00    +0.047 C 
ATOM      8  C   UNL     1      -3.714   1.038  23.590  0.00  0.00    +0.039 C 
ATOM      9  C   UNL     1      -5.161   0.928  24.086  0.00  0.00    +0.097 C 
ATOM     11  C   UNL     1      -3.760  -0.045  25.701  0.00  0.00    -0.021 C 
ATOM     12  C   UNL     1      -5.031   0.073  25.303  0.00  0.00    -0.009 C 
BRANCH   9   4
ATOM      1  O   UNL     1      -6.126   1.714  26.694  0.00  0.00    -0.276 OA
ATOM      4  N   UNL     1      -5.719   2.201  24.459  0.00  0.00    -0.309 N 
ATOM     20  C   UNL     1      -6.157   2.489  25.743  0.00  0.00    +0.214 C 
ATOM     31  H   UNL     1      -5.830   2.909  23.737  0.00  0.00    +0.149 HD
BRANCH  20  28
ATOM     28  C   UNL     1      -6.697   3.905  25.843  0.00  0.00    +0.107 C 
BRANCH  28  29
ATOM     29  C   UNL     1      -5.644   4.956  25.509  0.00  0.00    +0.129 C 
BRANCH  29  30
ATOM      3  O   UNL     1      -3.573   3.944  26.289  0.00  0.00    -0.251 OA
ATOM     30  C   UNL     1      -4.267   4.351  25.368  0.00  0.00    +0.305 C 
BRANCH  30   2
ATOM      2  O   UNL     1      -3.874   4.310  24.067  0.00  0.00    -0.481 OA
ATOM     32  H   UNL     1      -2.923   4.086  23.980  0.00  0.00    +0.295 HD
ENDBRANCH  30   2
ENDBRANCH  29  30
ENDBRANCH  28  29
ENDBRANCH  20  28
ENDBRANCH   9   4
ENDBRANCH  10   7
TORSDOF 8
ENDMDL
MODEL 3
REMARK VINA RESULT:      11.3      4.483     10.029
REMARK  Name = 40777718
REMARK  13 active torsions:
REMARK  status: ('A' for Active; 'I' for Inactive)
REMARK    1  A    between atoms: O_2  and  C_30
REMARK    2  A    between atoms: N_4  and  C_9
REMARK    3  A    between atoms: N_5  and  C_16
REMARK    4  A    between atoms: C_7  and  C_10
REMARK    5  A    between atoms: C_13  and  C_17
REMARK    6  A    between atoms: C_14  and  C_19
REMARK    7  A    between atoms: C_15  and  C_18
REMARK    8  A    between atoms: C_15  and  C_25
REMARK    9  A    between atoms: C_15  and  C_26
REMARK   10  A    between atoms: C_15  and  C_27
REMARK   11  A    between atoms: C_20  and  C_28
REMARK   12  A    between atoms: C_28  and  C_29
REMARK   13  A    between atoms: C_29  and  C_30
REMARK                            x       y       z     vdW  Elec       q    Type
REMARK                         _______ _______ _______ _____ _____    ______ ____
ROOT
ATOM      5  N   UNL     1      -1.126   0.831  23.609  0.00  0.00    -0.236 N 
ATOM      6  N   UNL     1      -1.036  -0.009  22.563  0.00  0.00    -0.171 NA
ATOM     10  C   UNL     1       1.028   0.620  23.313  0.00  0.00    +0.003 A 
ATOM     13  C   UNL     1       0.082   1.237  24.094  0.00  0.00    +0.046 A 
ATOM     14  C   UNL     1       0.282  -0.134  22.387  0.00  0.00    +0.064 A 
ATOM     17  C   UNL     1       0.226   2.161  25.238  0.00  0.00    +0.066 C 
ATOM     19  C   UNL     1       0.790  -0.997  21.306  0.00  0.00    +0.068 C 
ENDROOT
BRANCH   5  16
ATOM     16  C   UNL     1      -2.382   1.203  24.091  0.00  0.00    +0.066 A 
ATOM     18  C   UNL     1      -4.888   1.948  25.063  0.00  0.00    -0.042 A 
ATOM     21  C   UNL     1      -2.879   2.479  23.831  0.00  0.00    +0.028 A 
ATOM     22  C   UNL     1      -3.135   0.299  24.839  0.00  0.00    +0.028 A 
ATOM     23  C   UNL     1      -4.133   2.851  24.317  0.00  0.00    +0.006 A 
ATOM     24  C   UNL     1      -4.389   0.671  25.325  0.00  0.00    +0.006 A 
BRANCH  18  15
ATOM     15  C   UNL     1      -6.227   2.347  25.584  0.00  0.00    -0.013 C 
ATOM     25  C   UNL     1      -7.357   1.990  24.568  0.00  0.00    +0.015 C 
ATOM     26  C   UNL     1      -6.299   3.884  25.844  0.00  0.00    +0.015 C 
ATOM     27  C   UNL     1      -6.652   1.675  26.931  0.00  0.00    +0.015 C 
ENDBRANCH  18  15
ENDBRANCH   5  16
BRANCH  10   7
ATOM      7  C   UNL     1       2.531   0.729  23.423  0.00  0.00    +0.047 C 
ATOM      8  C   UNL     1       3.283  -0.296  22.551  0.00  0.00    +0.039 C 
ATOM      9  C   UNL     1       4.558   0.414  22.076  0.00  0.00    +0.097 C 
ATOM     11  C   UNL     1       3.101   2.035  22.951  0.00  0.00    -0.021 C 
ATOM     12  C   UNL     1       4.206   1.857  22.220  0.00  0.00    -0.009 C 
BRANCH   9   4
ATOM      1  O   UNL     1       4.771  -1.652  24.086  0.00  0.00    -0.276 OA
ATOM      4  N   UNL     1       5.698   0.119  22.901  0.00  0.00    -0.309 N 
ATOM     20  C   UNL     1       5.709  -0.898  23.844  0.00  0.00    +0.214 C 
ATOM     31  H   UNL     1       6.523   0.709  22.813  0.00  0.00    +0.149 HD
BRANCH  20  28
ATOM     28  C   UNL     1       7.043  -0.976  24.566  0.00  0.00    +0.107 C 
BRANCH  28  29
ATOM     29  C   UNL     1       7.996   0.142  24.153  0.00  0.00    +0.129 C 
BRANCH  29  30
ATOM      3  O   UNL     1      10.079   0.063  22.899  0.00  0.00    -0.251 OA
ATOM     30  C   UNL     1       8.915  -0.284  23.032  0.00  0.00    +0.305 C 
BRANCH  30   2
ATOM      2  O   UNL     1       8.285  -1.120  22.165  0.00  0.00    -0.481 OA
ATOM     32  H   UNL     1       7.349  -1.271  22.418  0.00  0.00    +0.295 HD
ENDBRANCH  30   2
ENDBRANCH  29  30
ENDBRANCH  28  29
ENDBRANCH  20  28
ENDBRANCH   9   4
ENDBRANCH  10   7
TORSDOF 8
ENDMDL
