MODEL 1
REMARK VINA RESULT:       4.1      0.000      0.000
REMARK  Name = 26762201
REMARK  5 active torsions:
REMARK  status: ('A' for Active; 'I' for Inactive)
REMARK    1  A    between atoms: N_7  and  C_12
REMARK    2  A    between atoms: N_9  and  C_27
REMARK    3  A    between atoms: C_11  and  C_16
REMARK    4  A    between atoms: C_16  and  C_18
REMARK    5  A    between atoms: C_18  and  C_19
REMARK                            x       y       z     vdW  Elec       q    Type
REMARK                         _______ _______ _______ _____ _____    ______ ____
ROOT
ATOM      2  O   UNL     1      -0.308   5.698  24.576  0.00  0.00    -0.274 OA
ATOM      5  N   UNL     1      -2.681   3.321  25.295  0.00  0.00    -0.285 NA
ATOM      6  N   UNL     1      -2.571   5.740  24.107  0.00  0.00    -0.313 N 
ATOM     10  C   UNL     1      -1.801   4.320  25.899  0.00  0.00    +0.145 C 
ATOM     11  C   UNL     1      -3.992   3.851  24.908  0.00  0.00    +0.075 C 
ATOM     12  C   UNL     1      -1.231   2.074  26.614  0.00  0.00    +0.090 C 
ATOM     13  C   UNL     1      -0.647   3.483  26.437  0.00  0.00    +0.052 C 
ATOM     14  C   UNL     1      -2.705   2.200  26.229  0.00  0.00    +0.107 C 
ATOM     15  C   UNL     1      -3.904   5.345  24.523  0.00  0.00    +0.123 C 
ATOM     17  C   UNL     1      -1.448   5.304  24.799  0.00  0.00    +0.230 C 
ATOM     33  H   UNL     1      -2.460   6.427  23.368  0.00  0.00    +0.149 HD
ENDROOT
BRANCH  12   7
ATOM      4  O   UNL     1       0.778   2.634  24.648  0.00  0.00    -0.253 OA
ATOM      7  N   UNL     1      -0.545   1.113  25.781  0.00  0.00    -0.295 N 
ATOM      9  N   UNL     1       0.914   0.336  24.185  0.00  0.00    -0.269 N 
ATOM     20  C   UNL     1       0.427   1.472  24.840  0.00  0.00    +0.304 C 
ATOM     34  H   UNL     1      -0.712   0.125  25.943  0.00  0.00    +0.151 HD
ATOM     35  H   UNL     1       0.524  -0.562  24.456  0.00  0.00    +0.156 HD
BRANCH   9  27
ATOM      1  S   UNL     1       4.145   0.513  21.947  0.00  0.00    -0.103 S 
ATOM     27  C   UNL     1       1.900   0.274  23.173  0.00  0.00    +0.042 A 
ATOM     30  C   UNL     1       1.696  -0.259  21.868  0.00  0.00    +0.031 A 
ATOM     31  C   UNL     1       3.188   0.728  23.352  0.00  0.00    +0.068 A 
ATOM     32  C   UNL     1       2.835  -0.190  21.097  0.00  0.00    +0.047 A 
ENDBRANCH   9  27
ENDBRANCH  12   7
BRANCH  11  16
ATOM     16  C   UNL     1      -4.521   3.030  23.728  0.00  0.00    +0.029 C 
BRANCH  16  18
ATOM     18  C   UNL     1      -3.467   2.811  22.654  0.00  0.00    +0.098 C 
BRANCH  18  19
ATOM      3  O   UNL     1      -1.491   1.505  22.565  0.00  0.00    -0.275 OA
ATOM      8  N   UNL     1      -3.369   0.549  23.570  0.00  0.00    -0.271 N 
ATOM     19  C   UNL     1      -2.668   1.558  22.922  0.00  0.00    +0.220 C 
ATOM     21  C   UNL     1      -4.782   0.614  23.997  0.00  0.00    +0.118 C 
ATOM     22  C   UNL     1      -2.854  -0.714  23.932  0.00  0.00    +0.039 A 
ATOM     23  C   UNL     1      -5.128  -0.717  24.673  0.00  0.00    +0.056 C 
ATOM     24  C   UNL     1      -3.842  -1.468  24.569  0.00  0.00    -0.024 A 
ATOM     25  C   UNL     1      -1.583  -1.235  23.738  0.00  0.00    +0.024 A 
ATOM     26  C   UNL     1      -3.586  -2.752  25.024  0.00  0.00    +0.005 A 
ATOM     28  C   UNL     1      -1.317  -2.530  24.194  0.00  0.00    +0.002 A 
ATOM     29  C   UNL     1      -2.311  -3.284  24.834  0.00  0.00    +0.000 A 
ENDBRANCH  18  19
ENDBRANCH  16  18
ENDBRANCH  11  16
TORSDOF 5
ENDMDL
MODEL 2
REMARK VINA RESULT:       4.9      1.729      2.226
REMARK  Name = 26762201
REMARK  5 active torsions:
REMARK  status: ('A' for Active; 'I' for Inactive)
REMARK    1  A    between atoms: N_7  and  C_12
REMARK    2  A    between atoms: N_9  and  C_27
REMARK    3  A    between atoms: C_11  and  C_16
REMARK    4  A    between atoms: C_16  and  C_18
REMARK    5  A    between atoms: C_18  and  C_19
REMARK                            x       y       z     vdW  Elec       q    Type
REMARK                         _______ _______ _______ _____ _____    ______ ____
ROOT
ATOM      2  O   UNL     1      -3.591   4.560  22.440  0.00  0.00    -0.274 OA
ATOM      5  N   UNL     1      -3.693   3.726  25.771  0.00  0.00    -0.285 NA
ATOM      6  N   UNL     1      -5.437   4.078  23.744  0.00  0.00    -0.313 N 
ATOM     10  C   UNL     1      -3.425   4.825  24.845  0.00  0.00    +0.145 C 
ATOM     11  C   UNL     1      -5.098   3.629  26.176  0.00  0.00    +0.075 C 
ATOM     12  C   UNL     1      -1.444   4.209  26.102  0.00  0.00    +0.090 C 
ATOM     13  C   UNL     1      -1.902   4.869  24.794  0.00  0.00    +0.052 C 
ATOM     14  C   UNL     1      -2.732   3.884  26.858  0.00  0.00    +0.107 C 
ATOM     15  C   UNL     1      -6.041   4.138  25.063  0.00  0.00    +0.123 C 
ATOM     17  C   UNL     1      -4.120   4.470  23.543  0.00  0.00    +0.230 C 
ATOM     33  H   UNL     1      -6.013   3.847  22.941  0.00  0.00    +0.149 HD
ENDROOT
BRANCH  12   7
ATOM      4  O   UNL     1      -0.187   3.484  23.631  0.00  0.00    -0.253 OA
ATOM      7  N   UNL     1      -0.664   3.021  25.845  0.00  0.00    -0.295 N 
ATOM      9  N   UNL     1       0.609   1.526  24.652  0.00  0.00    -0.269 N 
ATOM     20  C   UNL     1      -0.082   2.740  24.603  0.00  0.00    +0.304 C 
ATOM     34  H   UNL     1      -0.456   2.402  26.622  0.00  0.00    +0.151 HD
ATOM     35  H   UNL     1       0.605   1.021  25.535  0.00  0.00    +0.156 HD
BRANCH   9  27
ATOM      1  S   UNL     1       3.264   0.175  22.082  0.00  0.00    -0.103 S 
ATOM     27  C   UNL     1       1.329   0.894  23.612  0.00  0.00    +0.042 A 
ATOM     30  C   UNL     1       0.764   0.007  22.651  0.00  0.00    +0.031 A 
ATOM     31  C   UNL     1       2.681   1.073  23.420  0.00  0.00    +0.068 A 
ATOM     32  C   UNL     1       1.705  -0.456  21.759  0.00  0.00    +0.047 A 
ENDBRANCH   9  27
ENDBRANCH  12   7
BRANCH  11  16
ATOM     16  C   UNL     1      -5.411   2.168  26.509  0.00  0.00    +0.029 C 
BRANCH  16  18
ATOM     18  C   UNL     1      -5.113   1.231  25.347  0.00  0.00    +0.098 C 
BRANCH  18  19
ATOM      3  O   UNL     1      -2.854   1.248  26.064  0.00  0.00    -0.275 OA
ATOM      8  N   UNL     1      -3.600  -0.635  24.905  0.00  0.00    -0.271 N 
ATOM     19  C   UNL     1      -3.738   0.621  25.479  0.00  0.00    +0.220 C 
ATOM     21  C   UNL     1      -4.663  -1.386  24.203  0.00  0.00    +0.118 C 
ATOM     22  C   UNL     1      -2.424  -1.414  24.891  0.00  0.00    +0.039 A 
ATOM     23  C   UNL     1      -4.066  -2.720  23.743  0.00  0.00    +0.056 C 
ATOM     24  C   UNL     1      -2.658  -2.621  24.229  0.00  0.00    -0.024 A 
ATOM     25  C   UNL     1      -1.173  -1.129  25.420  0.00  0.00    +0.024 A 
ATOM     26  C   UNL     1      -1.654  -3.566  24.079  0.00  0.00    +0.005 A 
ATOM     28  C   UNL     1      -0.156  -2.077  25.272  0.00  0.00    +0.002 A 
ATOM     29  C   UNL     1      -0.394  -3.288  24.607  0.00  0.00    +0.000 A 
ENDBRANCH  18  19
ENDBRANCH  16  18
ENDBRANCH  11  16
TORSDOF 5
ENDMDL
MODEL 3
REMARK VINA RESULT:       5.4      1.219      1.723
REMARK  Name = 26762201
REMARK  5 active torsions:
REMARK  status: ('A' for Active; 'I' for Inactive)
REMARK    1  A    between atoms: N_7  and  C_12
REMARK    2  A    between atoms: N_9  and  C_27
REMARK    3  A    between atoms: C_11  and  C_16
REMARK    4  A    between atoms: C_16  and  C_18
REMARK    5  A    between atoms: C_18  and  C_19
REMARK                            x       y       z     vdW  Elec       q    Type
REMARK                         _______ _______ _______ _____ _____    ______ ____
ROOT
ATOM      2  O   UNL     1      -0.212   5.839  24.210  0.00  0.00    -0.274 OA
ATOM      5  N   UNL     1      -2.619   3.654  25.320  0.00  0.00    -0.285 NA
ATOM      6  N   UNL     1      -2.500   5.945  23.903  0.00  0.00    -0.313 N 
ATOM     10  C   UNL     1      -1.656   4.661  25.762  0.00  0.00    +0.145 C 
ATOM     11  C   UNL     1      -3.933   4.207  24.978  0.00  0.00    +0.075 C 
ATOM     12  C   UNL     1      -1.125   2.465  26.645  0.00  0.00    +0.090 C 
ATOM     13  C   UNL     1      -0.500   3.822  26.293  0.00  0.00    +0.052 C 
ATOM     14  C   UNL     1      -2.618   2.626  26.356  0.00  0.00    +0.107 C 
ATOM     15  C   UNL     1      -3.814   5.653  24.448  0.00  0.00    +0.123 C 
ATOM     17  C   UNL     1      -1.347   5.521  24.551  0.00  0.00    +0.230 C 
ATOM     33  H   UNL     1      -2.419   6.555  23.095  0.00  0.00    +0.149 HD
ENDROOT
BRANCH  12   7
ATOM      4  O   UNL     1       0.705   2.750  24.458  0.00  0.00    -0.253 OA
ATOM      7  N   UNL     1      -0.544   1.401  25.860  0.00  0.00    -0.295 N 
ATOM      9  N   UNL     1       0.741   0.413  24.231  0.00  0.00    -0.269 N 
ATOM     20  C   UNL     1       0.346   1.627  24.803  0.00  0.00    +0.304 C 
ATOM     34  H   UNL     1      -0.719   0.441  26.140  0.00  0.00    +0.151 HD
ATOM     35  H   UNL     1       0.356  -0.439  24.630  0.00  0.00    +0.156 HD
BRANCH   9  27
ATOM      1  S   UNL     1       3.761   0.222  21.716  0.00  0.00    -0.103 S 
ATOM     27  C   UNL     1       1.627   0.213  23.147  0.00  0.00    +0.042 A 
ATOM     30  C   UNL     1       1.279  -0.411  21.914  0.00  0.00    +0.031 A 
ATOM     31  C   UNL     1       2.947   0.604  23.174  0.00  0.00    +0.068 A 
ATOM     32  C   UNL     1       2.345  -0.470  21.045  0.00  0.00    +0.047 A 
ENDBRANCH   9  27
ENDBRANCH  12   7
BRANCH  11  16
ATOM     16  C   UNL     1      -4.582   3.307  23.923  0.00  0.00    +0.029 C 
BRANCH  16  18
ATOM     18  C   UNL     1      -5.740   2.496  24.485  0.00  0.00    +0.098 C 
BRANCH  18  19
ATOM      3  O   UNL     1      -5.819   0.746  26.081  0.00  0.00    -0.275 OA
ATOM      8  N   UNL     1      -4.176   0.620  24.429  0.00  0.00    -0.271 N 
ATOM     19  C   UNL     1      -5.254   1.198  25.085  0.00  0.00    +0.220 C 
ATOM     21  C   UNL     1      -3.498   1.165  23.233  0.00  0.00    +0.118 C 
ATOM     22  C   UNL     1      -3.538  -0.585  24.789  0.00  0.00    +0.039 A 
ATOM     23  C   UNL     1      -2.373   0.197  22.852  0.00  0.00    +0.056 C 
ATOM     24  C   UNL     1      -2.495  -0.858  23.901  0.00  0.00    -0.024 A 
ATOM     25  C   UNL     1      -3.816  -1.449  25.838  0.00  0.00    +0.024 A 
ATOM     26  C   UNL     1      -1.710  -1.993  24.040  0.00  0.00    +0.005 A 
ATOM     28  C   UNL     1      -3.028  -2.595  25.985  0.00  0.00    +0.002 A 
ATOM     29  C   UNL     1      -1.982  -2.866  25.092  0.00  0.00    +0.000 A 
ENDBRANCH  18  19
ENDBRANCH  16  18
ENDBRANCH  11  16
TORSDOF 5
ENDMDL
MODEL 4
REMARK VINA RESULT:       5.4      2.241      4.998
REMARK  Name = 26762201
REMARK  5 active torsions:
REMARK  status: ('A' for Active; 'I' for Inactive)
REMARK    1  A    between atoms: N_7  and  C_12
REMARK    2  A    between atoms: N_9  and  C_27
REMARK    3  A    between atoms: C_11  and  C_16
REMARK    4  A    between atoms: C_16  and  C_18
REMARK    5  A    between atoms: C_18  and  C_19
REMARK                            x       y       z     vdW  Elec       q    Type
REMARK                         _______ _______ _______ _____ _____    ______ ____
ROOT
ATOM      2  O   UNL     1      -3.810  -1.052  25.987  0.00  0.00    -0.274 OA
ATOM      5  N   UNL     1      -3.601   1.692  23.931  0.00  0.00    -0.285 NA
ATOM      6  N   UNL     1      -5.156   0.827  25.958  0.00  0.00    -0.313 N 
ATOM     10  C   UNL     1      -3.930   0.268  23.957  0.00  0.00    +0.145 C 
ATOM     11  C   UNL     1      -4.745   2.565  24.214  0.00  0.00    +0.075 C 
ATOM     12  C   UNL     1      -1.997   0.716  22.562  0.00  0.00    +0.090 C 
ATOM     13  C   UNL     1      -2.677  -0.386  23.387  0.00  0.00    +0.052 C 
ATOM     14  C   UNL     1      -2.935   1.920  22.653  0.00  0.00    +0.107 C 
ATOM     15  C   UNL     1      -5.758   1.877  25.156  0.00  0.00    +0.123 C 
ATOM     17  C   UNL     1      -4.257  -0.073  25.399  0.00  0.00    +0.230 C 
ATOM     33  H   UNL     1      -5.474   0.681  26.911  0.00  0.00    +0.149 HD
ENDROOT
BRANCH  12   7
ATOM      4  O   UNL     1       0.433  -0.714  22.045  0.00  0.00    -0.253 OA
ATOM      7  N   UNL     1      -0.685   1.025  23.081  0.00  0.00    -0.295 N 
ATOM      9  N   UNL     1       1.577   0.805  23.421  0.00  0.00    -0.269 N 
ATOM     20  C   UNL     1       0.456   0.271  22.778  0.00  0.00    +0.304 C 
ATOM     34  H   UNL     1      -0.566   1.876  23.621  0.00  0.00    +0.151 HD
ATOM     35  H   UNL     1       1.436   1.630  23.998  0.00  0.00    +0.156 HD
BRANCH   9  27
ATOM      1  S   UNL     1       4.958  -1.201  23.571  0.00  0.00    -0.103 S 
ATOM     27  C   UNL     1       2.911   0.338  23.370  0.00  0.00    +0.042 A 
ATOM     30  C   UNL     1       4.027   1.105  22.927  0.00  0.00    +0.031 A 
ATOM     31  C   UNL     1       3.275  -0.935  23.748  0.00  0.00    +0.068 A 
ATOM     32  C   UNL     1       5.202   0.390  22.986  0.00  0.00    +0.047 A 
ENDBRANCH   9  27
ENDBRANCH  12   7
BRANCH  11  16
ATOM     16  C   UNL     1      -4.227   3.859  24.847  0.00  0.00    +0.029 C 
BRANCH  16  18
ATOM     18  C   UNL     1      -2.708   3.896  24.934  0.00  0.00    +0.098 C 
BRANCH  18  19
ATOM      3  O   UNL     1      -3.018   3.939  27.283  0.00  0.00    -0.275 OA
ATOM      8  N   UNL     1      -0.926   3.279  26.486  0.00  0.00    -0.271 N 
ATOM     19  C   UNL     1      -2.240   3.709  26.357  0.00  0.00    +0.220 C 
ATOM     21  C   UNL     1       0.007   3.003  25.372  0.00  0.00    +0.118 C 
ATOM     22  C   UNL     1      -0.252   3.032  27.700  0.00  0.00    +0.039 A 
ATOM     23  C   UNL     1       1.339   2.549  25.979  0.00  0.00    +0.056 C 
ATOM     24  C   UNL     1       1.055   2.610  27.444  0.00  0.00    -0.024 A 
ATOM     25  C   UNL     1      -0.713   3.152  29.003  0.00  0.00    +0.024 A 
ATOM     26  C   UNL     1       1.927   2.301  28.477  0.00  0.00    +0.005 A 
ATOM     28  C   UNL     1       0.162   2.844  30.050  0.00  0.00    +0.002 A 
ATOM     29  C   UNL     1       1.472   2.420  29.790  0.00  0.00    +0.000 A 
ENDBRANCH  18  19
ENDBRANCH  16  18
ENDBRANCH  11  16
TORSDOF 5
ENDMDL
MODEL 5
REMARK VINA RESULT:       5.6      2.689      5.920
REMARK  Name = 26762201
REMARK  5 active torsions:
REMARK  status: ('A' for Active; 'I' for Inactive)
REMARK    1  A    between atoms: N_7  and  C_12
REMARK    2  A    between atoms: N_9  and  C_27
REMARK    3  A    between atoms: C_11  and  C_16
REMARK    4  A    between atoms: C_16  and  C_18
REMARK    5  A    between atoms: C_18  and  C_19
REMARK                            x       y       z     vdW  Elec       q    Type
REMARK                         _______ _______ _______ _____ _____    ______ ____
ROOT
ATOM      2  O   UNL     1      -0.387  -2.577  25.014  0.00  0.00    -0.274 OA
ATOM      5  N   UNL     1      -2.585  -0.006  24.416  0.00  0.00    -0.285 NA
ATOM      6  N   UNL     1      -2.679  -2.546  25.317  0.00  0.00    -0.313 N 
ATOM     10  C   UNL     1      -1.711  -0.977  23.761  0.00  0.00    +0.145 C 
ATOM     11  C   UNL     1      -3.945  -0.502  24.647  0.00  0.00    +0.075 C 
ATOM     12  C   UNL     1      -0.983   1.301  23.355  0.00  0.00    +0.090 C 
ATOM     13  C   UNL     1      -0.481  -0.149  23.406  0.00  0.00    +0.052 C 
ATOM     14  C   UNL     1      -2.486   1.213  23.620  0.00  0.00    +0.107 C 
ATOM     15  C   UNL     1      -3.957  -2.032  24.859  0.00  0.00    +0.123 C 
ATOM     17  C   UNL     1      -1.488  -2.097  24.760  0.00  0.00    +0.230 C 
ATOM     33  H   UNL     1      -2.657  -3.317  25.977  0.00  0.00    +0.149 HD
ENDROOT
BRANCH  12   7
ATOM      4  O   UNL     1      -0.303   0.549  26.036  0.00  0.00    -0.253 OA
ATOM      7  N   UNL     1      -0.317   2.121  24.341  0.00  0.00    -0.295 N 
ATOM      9  N   UNL     1       0.622   2.682  26.361  0.00  0.00    -0.269 N 
ATOM     20  C   UNL     1      -0.021   1.675  25.635  0.00  0.00    +0.304 C 
ATOM     34  H   UNL     1       0.030   3.032  24.058  0.00  0.00    +0.151 HD
ATOM     35  H   UNL     1       0.788   3.566  25.889  0.00  0.00    +0.156 HD
BRANCH   9  27
ATOM      1  S   UNL     1       1.112   2.352  30.251  0.00  0.00    -0.103 S 
ATOM     27  C   UNL     1       1.084   2.628  27.697  0.00  0.00    +0.042 A 
ATOM     30  C   UNL     1       2.431   2.848  28.103  0.00  0.00    +0.031 A 
ATOM     31  C   UNL     1       0.260   2.347  28.765  0.00  0.00    +0.068 A 
ATOM     32  C   UNL     1       2.587   2.729  29.466  0.00  0.00    +0.047 A 
ENDBRANCH   9  27
ENDBRANCH  12   7
BRANCH  11  16
ATOM     16  C   UNL     1      -4.522   0.207  25.875  0.00  0.00    +0.029 C 
BRANCH  16  18
ATOM     18  C   UNL     1      -5.705   1.098  25.528  0.00  0.00    +0.098 C 
BRANCH  18  19
ATOM      3  O   UNL     1      -5.833   2.550  23.659  0.00  0.00    -0.275 OA
ATOM      8  N   UNL     1      -4.225   3.026  25.283  0.00  0.00    -0.271 N 
ATOM     19  C   UNL     1      -5.266   2.298  24.723  0.00  0.00    +0.220 C 
ATOM     21  C   UNL     1      -3.545   2.721  26.560  0.00  0.00    +0.118 C 
ATOM     22  C   UNL     1      -3.634   4.182  24.731  0.00  0.00    +0.039 A 
ATOM     23  C   UNL     1      -2.470   3.789  26.783  0.00  0.00    +0.056 C 
ATOM     24  C   UNL     1      -2.619   4.647  25.570  0.00  0.00    -0.024 A 
ATOM     25  C   UNL     1      -3.932   4.844  23.549  0.00  0.00    +0.024 A 
ATOM     26  C   UNL     1      -1.882   5.777  25.251  0.00  0.00    +0.005 A 
ATOM     28  C   UNL     1      -3.192   5.984  23.219  0.00  0.00    +0.002 A 
ATOM     29  C   UNL     1      -2.174   6.448  24.064  0.00  0.00    +0.000 A 
ENDBRANCH  18  19
ENDBRANCH  16  18
ENDBRANCH  11  16
TORSDOF 5
ENDMDL
MODEL 6
REMARK VINA RESULT:       6.4      2.311      5.076
REMARK  Name = 26762201
REMARK  5 active torsions:
REMARK  status: ('A' for Active; 'I' for Inactive)
REMARK    1  A    between atoms: N_7  and  C_12
REMARK    2  A    between atoms: N_9  and  C_27
REMARK    3  A    between atoms: C_11  and  C_16
REMARK    4  A    between atoms: C_16  and  C_18
REMARK    5  A    between atoms: C_18  and  C_19
REMARK                            x       y       z     vdW  Elec       q    Type
REMARK                         _______ _______ _______ _____ _____    ______ ____
ROOT
ATOM      2  O   UNL     1      -3.547   4.130  27.968  0.00  0.00    -0.274 OA
ATOM      5  N   UNL     1      -4.086   3.343  24.668  0.00  0.00    -0.285 NA
ATOM      6  N   UNL     1      -2.499   4.991  26.097  0.00  0.00    -0.313 N 
ATOM     10  C   UNL     1      -4.682   4.000  25.829  0.00  0.00    +0.145 C 
ATOM     11  C   UNL     1      -3.265   4.236  23.844  0.00  0.00    +0.075 C 
ATOM     12  C   UNL     1      -5.968   2.063  25.138  0.00  0.00    +0.090 C 
ATOM     13  C   UNL     1      -5.666   2.958  26.348  0.00  0.00    +0.052 C 
ATOM     14  C   UNL     1      -5.189   2.684  23.977  0.00  0.00    +0.107 C 
ATOM     15  C   UNL     1      -2.619   5.352  24.696  0.00  0.00    +0.123 C 
ATOM     17  C   UNL     1      -3.538   4.351  26.762  0.00  0.00    +0.230 C 
ATOM     33  H   UNL     1      -1.691   5.302  26.626  0.00  0.00    +0.149 HD
ENDROOT
BRANCH  12   7
ATOM      4  O   UNL     1      -3.865   0.639  23.809  0.00  0.00    -0.253 OA
ATOM      7  N   UNL     1      -5.561   0.699  25.380  0.00  0.00    -0.295 N 
ATOM      9  N   UNL     1      -4.353  -1.240  25.130  0.00  0.00    -0.269 N 
ATOM     20  C   UNL     1      -4.519   0.075  24.683  0.00  0.00    +0.304 C 
ATOM     34  H   UNL     1      -5.991   0.195  26.149  0.00  0.00    +0.151 HD
ATOM     35  H   UNL     1      -4.974  -1.565  25.866  0.00  0.00    +0.156 HD
BRANCH   9  27
ATOM      1  S   UNL     1      -2.339  -4.117  23.358  0.00  0.00    -0.103 S 
ATOM     27  C   UNL     1      -3.412  -2.196  24.683  0.00  0.00    +0.042 A 
ATOM     30  C   UNL     1      -2.095  -2.350  25.206  0.00  0.00    +0.031 A 
ATOM     31  C   UNL     1      -3.675  -3.093  23.671  0.00  0.00    +0.068 A 
ATOM     32  C   UNL     1      -1.404  -3.360  24.576  0.00  0.00    +0.047 A 
ENDBRANCH   9  27
ENDBRANCH  12   7
BRANCH  11  16
ATOM     16  C   UNL     1      -2.183   3.404  23.152  0.00  0.00    +0.029 C 
BRANCH  16  18
ATOM     18  C   UNL     1      -1.421   2.516  24.125  0.00  0.00    +0.098 C 
BRANCH  18  19
ATOM      3  O   UNL     1       0.662   3.569  23.719  0.00  0.00    -0.275 OA
ATOM      8  N   UNL     1       0.603   1.237  23.641  0.00  0.00    -0.271 N 
ATOM     19  C   UNL     1       0.055   2.502  23.808  0.00  0.00    +0.220 C 
ATOM     21  C   UNL     1      -0.128  -0.043  23.748  0.00  0.00    +0.118 C 
ATOM     22  C   UNL     1       1.952   0.954  23.340  0.00  0.00    +0.039 A 
ATOM     23  C   UNL     1       0.873  -1.176  23.497  0.00  0.00    +0.056 C 
ATOM     24  C   UNL     1       2.141  -0.427  23.250  0.00  0.00    -0.024 A 
ATOM     25  C   UNL     1       3.012   1.826  23.144  0.00  0.00    +0.024 A 
ATOM     26  C   UNL     1       3.386  -0.965  22.962  0.00  0.00    +0.005 A 
ATOM     28  C   UNL     1       4.271   1.291  22.852  0.00  0.00    +0.002 A 
ATOM     29  C   UNL     1       4.458  -0.096  22.763  0.00  0.00    +0.000 A 
ENDBRANCH  18  19
ENDBRANCH  16  18
ENDBRANCH  11  16
TORSDOF 5
ENDMDL
MODEL 7
REMARK VINA RESULT:       6.4      2.590      5.846
REMARK  Name = 26762201
REMARK  5 active torsions:
REMARK  status: ('A' for Active; 'I' for Inactive)
REMARK    1  A    between atoms: N_7  and  C_12
REMARK    2  A    between atoms: N_9  and  C_27
REMARK    3  A    between atoms: C_11  and  C_16
REMARK    4  A    between atoms: C_16  and  C_18
REMARK    5  A    between atoms: C_18  and  C_19
REMARK                            x       y       z     vdW  Elec       q    Type
REMARK                         _______ _______ _______ _____ _____    ______ ____
ROOT
ATOM      2  O   UNL     1      -2.093  -1.365  27.642  0.00  0.00    -0.274 OA
ATOM      5  N   UNL     1      -1.806  -2.024  24.283  0.00  0.00    -0.285 NA
ATOM      6  N   UNL     1      -3.586  -2.464  26.262  0.00  0.00    -0.313 N 
ATOM     10  C   UNL     1      -1.269  -2.374  25.597  0.00  0.00    +0.145 C 
ATOM     11  C   UNL     1      -2.950  -2.847  23.878  0.00  0.00    +0.075 C 
ATOM     12  C   UNL     1       0.407  -1.321  24.194  0.00  0.00    +0.090 C 
ATOM     13  C   UNL     1       0.031  -1.580  25.659  0.00  0.00    +0.052 C 
ATOM     14  C   UNL     1      -0.665  -2.039  23.373  0.00  0.00    +0.107 C 
ATOM     15  C   UNL     1      -3.764  -3.321  25.103  0.00  0.00    +0.123 C 
ATOM     17  C   UNL     1      -2.328  -1.988  26.612  0.00  0.00    +0.230 C 
ATOM     33  H   UNL     1      -4.370  -2.295  26.883  0.00  0.00    +0.149 HD
ENDROOT
BRANCH  12   7
ATOM      4  O   UNL     1      -1.049   0.743  25.547  0.00  0.00    -0.253 OA
ATOM      7  N   UNL     1       0.440   0.093  23.902  0.00  0.00    -0.295 N 
ATOM      9  N   UNL     1      -0.074   2.323  24.111  0.00  0.00    -0.269 N 
ATOM     20  C   UNL     1      -0.306   1.039  24.615  0.00  0.00    +0.304 C 
ATOM     34  H   UNL     1       1.098   0.429  23.207  0.00  0.00    +0.151 HD
ATOM     35  H   UNL     1       0.573   2.409  23.331  0.00  0.00    +0.156 HD
BRANCH   9  27
ATOM      1  S   UNL     1      -1.206   6.043  24.705  0.00  0.00    -0.103 S 
ATOM     27  C   UNL     1      -0.632   3.544  24.555  0.00  0.00    +0.042 A 
ATOM     30  C   UNL     1      -1.505   3.682  25.672  0.00  0.00    +0.031 A 
ATOM     31  C   UNL     1      -0.387   4.750  23.937  0.00  0.00    +0.068 A 
ATOM     32  C   UNL     1      -1.892   4.990  25.867  0.00  0.00    +0.047 A 
ENDBRANCH   9  27
ENDBRANCH  12   7
BRANCH  11  16
ATOM     16  C   UNL     1      -3.836  -2.025  22.940  0.00  0.00    +0.029 C 
BRANCH  16  18
ATOM     18  C   UNL     1      -3.450  -0.553  22.918  0.00  0.00    +0.098 C 
BRANCH  18  19
ATOM      3  O   UNL     1      -4.829  -0.375  24.838  0.00  0.00    -0.275 OA
ATOM      8  N   UNL     1      -4.204   1.607  23.774  0.00  0.00    -0.271 N 
ATOM     19  C   UNL     1      -4.233   0.229  23.945  0.00  0.00    +0.220 C 
ATOM     21  C   UNL     1      -3.489   2.330  22.701  0.00  0.00    +0.118 C 
ATOM     22  C   UNL     1      -4.852   2.556  24.593  0.00  0.00    +0.039 A 
ATOM     23  C   UNL     1      -3.729   3.830  22.908  0.00  0.00    +0.056 C 
ATOM     24  C   UNL     1      -4.599   3.846  24.122  0.00  0.00    -0.024 A 
ATOM     25  C   UNL     1      -5.641   2.357  25.717  0.00  0.00    +0.024 A 
ATOM     26  C   UNL     1      -5.125   4.960  24.757  0.00  0.00    +0.005 A 
ATOM     28  C   UNL     1      -6.176   3.476  26.362  0.00  0.00    +0.002 A 
ATOM     29  C   UNL     1      -5.920   4.770  25.886  0.00  0.00    +0.000 A 
ENDBRANCH  18  19
ENDBRANCH  16  18
ENDBRANCH  11  16
TORSDOF 5
ENDMDL
MODEL 8
REMARK VINA RESULT:       6.8      2.349      5.282
REMARK  Name = 26762201
REMARK  5 active torsions:
REMARK  status: ('A' for Active; 'I' for Inactive)
REMARK    1  A    between atoms: N_7  and  C_12
REMARK    2  A    between atoms: N_9  and  C_27
REMARK    3  A    between atoms: C_11  and  C_16
REMARK    4  A    between atoms: C_16  and  C_18
REMARK    5  A    between atoms: C_18  and  C_19
REMARK                            x       y       z     vdW  Elec       q    Type
REMARK                         _______ _______ _______ _____ _____    ______ ____
ROOT
ATOM      2  O   UNL     1      -6.250   3.264  25.604  0.00  0.00    -0.274 OA
ATOM      5  N   UNL     1      -2.911   3.603  24.873  0.00  0.00    -0.285 NA
ATOM      6  N   UNL     1      -4.566   4.110  26.942  0.00  0.00    -0.313 N 
ATOM     10  C   UNL     1      -4.240   4.120  24.552  0.00  0.00    +0.145 C 
ATOM     11  C   UNL     1      -2.266   4.298  25.991  0.00  0.00    +0.075 C 
ATOM     12  C   UNL     1      -3.204   3.056  22.634  0.00  0.00    +0.090 C 
ATOM     13  C   UNL     1      -4.568   3.432  23.232  0.00  0.00    +0.052 C 
ATOM     14  C   UNL     1      -2.171   3.609  23.616  0.00  0.00    +0.107 C 
ATOM     15  C   UNL     1      -3.308   4.832  27.000  0.00  0.00    +0.123 C 
ATOM     17  C   UNL     1      -5.136   3.763  25.724  0.00  0.00    +0.230 C 
ATOM     33  H   UNL     1      -5.089   3.948  27.797  0.00  0.00    +0.149 HD
ENDROOT
BRANCH  12   7
ATOM      4  O   UNL     1      -3.912   1.051  24.557  0.00  0.00    -0.253 OA
ATOM      7  N   UNL     1      -3.076   1.625  22.479  0.00  0.00    -0.295 N 
ATOM      9  N   UNL     1      -3.210  -0.598  23.042  0.00  0.00    -0.269 N 
ATOM     20  C   UNL     1      -3.447   0.711  23.473  0.00  0.00    +0.304 C 
ATOM     34  H   UNL     1      -2.786   1.260  21.578  0.00  0.00    +0.151 HD
ATOM     35  H   UNL     1      -2.819  -0.721  22.111  0.00  0.00    +0.156 HD
BRANCH   9  27
ATOM      1  S   UNL     1      -3.283  -3.658  25.514  0.00  0.00    -0.103 S 
ATOM     27  C   UNL     1      -3.450  -1.800  23.747  0.00  0.00    +0.042 A 
ATOM     30  C   UNL     1      -4.410  -2.785  23.377  0.00  0.00    +0.031 A 
ATOM     31  C   UNL     1      -2.767  -2.148  24.892  0.00  0.00    +0.068 A 
ATOM     32  C   UNL     1      -4.424  -3.849  24.251  0.00  0.00    +0.047 A 
ENDBRANCH   9  27
ENDBRANCH  12   7
BRANCH  11  16
ATOM     16  C   UNL     1      -1.309   3.324  26.684  0.00  0.00    +0.029 C 
BRANCH  16  18
ATOM     18  C   UNL     1      -1.058   2.071  25.860  0.00  0.00    +0.098 C 
BRANCH  18  19
ATOM      3  O   UNL     1       1.113   2.970  25.558  0.00  0.00    -0.275 OA
ATOM      8  N   UNL     1       0.514   1.142  24.237  0.00  0.00    -0.271 N 
ATOM     19  C   UNL     1       0.303   2.112  25.207  0.00  0.00    +0.220 C 
ATOM     21  C   UNL     1      -0.461   0.113  23.817  0.00  0.00    +0.118 C 
ATOM     22  C   UNL     1       1.694   0.968  23.483  0.00  0.00    +0.039 A 
ATOM     23  C   UNL     1       0.201  -0.743  22.731  0.00  0.00    +0.056 C 
ATOM     24  C   UNL     1       1.547  -0.108  22.606  0.00  0.00    -0.024 A 
ATOM     25  C   UNL     1       2.878   1.691  23.522  0.00  0.00    +0.024 A 
ATOM     26  C   UNL     1       2.571  -0.486  21.752  0.00  0.00    +0.005 A 
ATOM     28  C   UNL     1       3.915   1.317  22.662  0.00  0.00    +0.002 A 
ATOM     29  C   UNL     1       3.764   0.235  21.783  0.00  0.00    +0.000 A 
ENDBRANCH  18  19
ENDBRANCH  16  18
ENDBRANCH  11  16
TORSDOF 5
ENDMDL
MODEL 9
REMARK VINA RESULT:       7.1      1.764      3.081
REMARK  Name = 26762201
REMARK  5 active torsions:
REMARK  status: ('A' for Active; 'I' for Inactive)
REMARK    1  A    between atoms: N_7  and  C_12
REMARK    2  A    between atoms: N_9  and  C_27
REMARK    3  A    between atoms: C_11  and  C_16
REMARK    4  A    between atoms: C_16  and  C_18
REMARK    5  A    between atoms: C_18  and  C_19
REMARK                            x       y       z     vdW  Elec       q    Type
REMARK                         _______ _______ _______ _____ _____    ______ ____
ROOT
ATOM      2  O   UNL     1      -4.796   0.839  24.151  0.00  0.00    -0.274 OA
ATOM      5  N   UNL     1      -2.090   2.950  24.292  0.00  0.00    -0.285 NA
ATOM      6  N   UNL     1      -4.345   2.495  25.699  0.00  0.00    -0.313 N 
ATOM     10  C   UNL     1      -3.299   2.643  23.530  0.00  0.00    +0.145 C 
ATOM     11  C   UNL     1      -2.309   3.904  25.383  0.00  0.00    +0.075 C 
ATOM     12  C   UNL     1      -1.295   2.294  22.209  0.00  0.00    +0.090 C 
ATOM     13  C   UNL     1      -2.765   1.867  22.333  0.00  0.00    +0.052 C 
ATOM     14  C   UNL     1      -1.090   3.342  23.304  0.00  0.00    +0.107 C 
ATOM     15  C   UNL     1      -3.742   3.792  25.950  0.00  0.00    +0.123 C 
ATOM     17  C   UNL     1      -4.212   1.871  24.465  0.00  0.00    +0.230 C 
ATOM     33  H   UNL     1      -4.958   2.086  26.397  0.00  0.00    +0.149 HD
ENDROOT
BRANCH  12   7
ATOM      4  O   UNL     1       1.466   2.390  22.971  0.00  0.00    -0.253 OA
ATOM      7  N   UNL     1      -0.406   1.169  22.377  0.00  0.00    -0.295 N 
ATOM      9  N   UNL     1       1.546   0.047  22.836  0.00  0.00    -0.269 N 
ATOM     20  C   UNL     1       0.936   1.303  22.753  0.00  0.00    +0.304 C 
ATOM     34  H   UNL     1      -0.791   0.233  22.304  0.00  0.00    +0.151 HD
ATOM     35  H   UNL     1       0.973  -0.765  22.626  0.00  0.00    +0.156 HD
BRANCH   9  27
ATOM      1  S   UNL     1       5.417   0.008  23.540  0.00  0.00    -0.103 S 
ATOM     27  C   UNL     1       2.885  -0.245  23.185  0.00  0.00    +0.042 A 
ATOM     30  C   UNL     1       3.332  -1.480  23.737  0.00  0.00    +0.031 A 
ATOM     31  C   UNL     1       3.916   0.654  23.026  0.00  0.00    +0.068 A 
ATOM     32  C   UNL     1       4.688  -1.478  23.977  0.00  0.00    +0.047 A 
ENDBRANCH   9  27
ENDBRANCH  12   7
BRANCH  11  16
ATOM     16  C   UNL     1      -1.281   3.630  26.485  0.00  0.00    +0.029 C 
BRANCH  16  18
ATOM     18  C   UNL     1      -1.430   2.240  27.085  0.00  0.00    +0.098 C 
BRANCH  18  19
ATOM      3  O   UNL     1       0.091   1.308  25.525  0.00  0.00    -0.275 OA
ATOM      8  N   UNL     1      -1.865   0.113  25.965  0.00  0.00    -0.271 N 
ATOM     19  C   UNL     1      -0.984   1.176  26.111  0.00  0.00    +0.220 C 
ATOM     21  C   UNL     1      -3.155  -0.043  26.669  0.00  0.00    +0.118 C 
ATOM     22  C   UNL     1      -1.683  -1.002  25.120  0.00  0.00    +0.039 A 
ATOM     23  C   UNL     1      -3.783  -1.362  26.207  0.00  0.00    +0.056 C 
ATOM     24  C   UNL     1      -2.770  -1.871  25.235  0.00  0.00    -0.024 A 
ATOM     25  C   UNL     1      -0.630  -1.298  24.266  0.00  0.00    +0.024 A 
ATOM     26  C   UNL     1      -2.832  -3.048  24.504  0.00  0.00    +0.005 A 
ATOM     28  C   UNL     1      -0.686  -2.482  23.525  0.00  0.00    +0.002 A 
ATOM     29  C   UNL     1      -1.778  -3.352  23.643  0.00  0.00    +0.000 A 
ENDBRANCH  18  19
ENDBRANCH  16  18
ENDBRANCH  11  16
TORSDOF 5
ENDMDL
