MODEL 1
REMARK VINA RESULT:       0.5      0.000      0.000
REMARK  Name = 40776929
REMARK  8 active torsions:
REMARK  status: ('A' for Active; 'I' for Inactive)
REMARK    1  A    between atoms: S_1  and  N_6
REMARK    2  A    between atoms: S_1  and  C_21
REMARK    3  A    between atoms: N_6  and  C_16
REMARK    4  A    between atoms: C_10  and  C_17
REMARK    5  A    between atoms: C_11  and  C_16
REMARK    6  A    between atoms: C_19  and  C_22
REMARK    7  A    between atoms: C_20  and  C_23
REMARK    8  A    between atoms: C_21  and  C_24
REMARK                            x       y       z     vdW  Elec       q    Type
REMARK                         _______ _______ _______ _____ _____    ______ ____
ROOT
ATOM      5  N   UNL     1      -3.519  -1.785  26.236  0.00  0.00    -0.297 NA
ATOM      9  C   UNL     1      -2.827  -2.139  23.750  0.00  0.00    +0.002 C 
ATOM     10  C   UNL     1      -1.604  -1.691  24.596  0.00  0.00    +0.055 C 
ATOM     11  C   UNL     1      -4.459  -1.063  25.339  0.00  0.00    +0.072 C 
ATOM     12  C   UNL     1      -3.950  -1.088  23.881  0.00  0.00    +0.024 C 
ATOM     13  C   UNL     1      -3.352  -3.446  24.383  0.00  0.00    +0.019 C 
ATOM     14  C   UNL     1      -2.132  -1.307  26.008  0.00  0.00    +0.094 C 
ATOM     15  C   UNL     1      -3.575  -3.226  25.889  0.00  0.00    +0.085 C 
ENDROOT
BRANCH  10  17
ATOM      7  N   UNL     1      -1.262   0.497  23.558  0.00  0.00    -0.237 NA
ATOM      8  N   UNL     1       0.928   1.310  22.966  0.00  0.00    -0.232 NA
ATOM     17  C   UNL     1      -0.679  -0.630  24.018  0.00  0.00    +0.050 A 
ATOM     18  C   UNL     1       0.682  -0.856  23.986  0.00  0.00    +0.052 A 
ATOM     19  C   UNL     1       1.444   0.158  23.444  0.00  0.00    +0.075 A 
ATOM     20  C   UNL     1      -0.412   1.412  23.053  0.00  0.00    +0.127 A 
ATOM     23  C   UNL     1      -1.020   2.670  22.533  0.00  0.00    +0.088 C 
BRANCH  19  22
ATOM      2  F   UNL     1       6.987  -0.282  23.089  0.00  0.00    -0.205 F 
ATOM     22  C   UNL     1       2.879   0.045  23.351  0.00  0.00    +0.001 A 
ATOM     25  C   UNL     1       3.633   1.106  22.849  0.00  0.00    +0.013 A 
ATOM     26  C   UNL     1       3.514  -1.127  23.765  0.00  0.00    +0.013 A 
ATOM     29  C   UNL     1       5.021   0.996  22.760  0.00  0.00    +0.039 A 
ATOM     30  C   UNL     1       4.902  -1.237  23.677  0.00  0.00    +0.039 A 
ATOM     33  C   UNL     1       5.655  -0.176  23.174  0.00  0.00    +0.123 A 
ENDBRANCH  19  22
ENDBRANCH  10  17
BRANCH  11  16
ATOM     16  C   UNL     1      -4.744   0.362  25.818  0.00  0.00    +0.124 C 
BRANCH  16   6
ATOM      6  N   UNL     1      -4.058   1.316  24.932  0.00  0.00    -0.193 NA
ATOM     35  H   UNL     1      -3.611   0.874  24.118  0.00  0.00    +0.148 HD
BRANCH   6   1
ATOM      1  S   UNL     1      -4.750   2.856  24.668  0.00  0.00    +0.034 S 
ATOM      3  O   UNL     1      -6.186   2.788  24.864  0.00  0.00    -0.158 OA
ATOM      4  O   UNL     1      -4.193   3.410  23.448  0.00  0.00    -0.158 OA
BRANCH   1  21
ATOM     21  C   UNL     1      -4.054   3.763  26.030  0.00  0.00    +0.220 C 
BRANCH  21  24
ATOM     24  C   UNL     1      -2.576   3.859  25.805  0.00  0.00    -0.025 A 
ATOM     27  C   UNL     1      -2.039   4.976  25.164  0.00  0.00    +0.005 A 
ATOM     28  C   UNL     1      -1.736   2.832  26.236  0.00  0.00    +0.005 A 
ATOM     31  C   UNL     1      -0.663   5.066  24.954  0.00  0.00    +0.000 A 
ATOM     32  C   UNL     1      -0.360   2.923  26.027  0.00  0.00    +0.000 A 
ATOM     34  C   UNL     1       0.176   4.039  25.385  0.00  0.00    +0.000 A 
ENDBRANCH  21  24
ENDBRANCH   1  21
ENDBRANCH   6   1
ENDBRANCH  16   6
ENDBRANCH  11  16
TORSDOF 7
ENDMDL
MODEL 2
REMARK VINA RESULT:       0.8      1.371      4.584
REMARK  Name = 40776929
REMARK  8 active torsions:
REMARK  status: ('A' for Active; 'I' for Inactive)
REMARK    1  A    between atoms: S_1  and  N_6
REMARK    2  A    between atoms: S_1  and  C_21
REMARK    3  A    between atoms: N_6  and  C_16
REMARK    4  A    between atoms: C_10  and  C_17
REMARK    5  A    between atoms: C_11  and  C_16
REMARK    6  A    between atoms: C_19  and  C_22
REMARK    7  A    between atoms: C_20  and  C_23
REMARK    8  A    between atoms: C_21  and  C_24
REMARK                            x       y       z     vdW  Elec       q    Type
REMARK                         _______ _______ _______ _____ _____    ______ ____
ROOT
ATOM      5  N   UNL     1      -2.956   4.223  24.547  0.00  0.00    -0.297 NA
ATOM      9  C   UNL     1      -0.409   4.106  25.076  0.00  0.00    +0.002 C 
ATOM     10  C   UNL     1      -0.746   3.235  23.834  0.00  0.00    +0.055 C 
ATOM     11  C   UNL     1      -2.750   3.913  25.986  0.00  0.00    +0.072 C 
ATOM     12  C   UNL     1      -1.258   3.636  26.275  0.00  0.00    +0.024 C 
ATOM     13  C   UNL     1      -0.851   5.547  24.742  0.00  0.00    +0.019 C 
ATOM     14  C   UNL     1      -2.296   3.193  23.705  0.00  0.00    +0.094 C 
ATOM     15  C   UNL     1      -2.314   5.530  24.266  0.00  0.00    +0.085 C 
ENDROOT
BRANCH  10  17
ATOM      7  N   UNL     1      -0.967   0.800  23.771  0.00  0.00    -0.237 NA
ATOM      8  N   UNL     1       0.941  -0.657  23.563  0.00  0.00    -0.232 NA
ATOM     17  C   UNL     1      -0.122   1.851  23.735  0.00  0.00    +0.050 A 
ATOM     18  C   UNL     1       1.248   1.729  23.616  0.00  0.00    +0.052 A 
ATOM     19  C   UNL     1       1.728   0.438  23.533  0.00  0.00    +0.075 A 
ATOM     20  C   UNL     1      -0.377  -0.408  23.682  0.00  0.00    +0.127 A 
ATOM     23  C   UNL     1      -1.280  -1.594  23.722  0.00  0.00    +0.088 C 
BRANCH  19  22
ATOM      2  F   UNL     1       7.185  -0.578  23.046  0.00  0.00    -0.205 F 
ATOM     22  C   UNL     1       3.141   0.175  23.407  0.00  0.00    +0.001 A 
ATOM     25  C   UNL     1       3.987   1.147  22.871  0.00  0.00    +0.013 A 
ATOM     26  C   UNL     1       3.662  -1.051  23.821  0.00  0.00    +0.013 A 
ATOM     29  C   UNL     1       5.352   0.892  22.749  0.00  0.00    +0.039 A 
ATOM     30  C   UNL     1       5.028  -1.305  23.700  0.00  0.00    +0.039 A 
ATOM     33  C   UNL     1       5.873  -0.334  23.163  0.00  0.00    +0.123 A 
ENDBRANCH  19  22
ENDBRANCH  10  17
BRANCH  11  16
ATOM     16  C   UNL     1      -3.646   2.772  26.471  0.00  0.00    +0.124 C 
BRANCH  16   6
ATOM      6  N   UNL     1      -5.007   2.970  25.947  0.00  0.00    -0.193 NA
ATOM     35  H   UNL     1      -5.144   3.883  25.491  0.00  0.00    +0.148 HD
BRANCH   6   1
ATOM      1  S   UNL     1      -5.834   1.648  25.249  0.00  0.00    +0.034 S 
ATOM      3  O   UNL     1      -6.954   2.129  24.462  0.00  0.00    -0.158 OA
ATOM      4  O   UNL     1      -6.025   0.633  26.268  0.00  0.00    -0.158 OA
BRANCH   1  21
ATOM     21  C   UNL     1      -4.594   1.046  24.125  0.00  0.00    +0.220 C 
BRANCH  21  24
ATOM     24  C   UNL     1      -4.235  -0.346  24.547  0.00  0.00    -0.025 A 
ATOM     27  C   UNL     1      -3.602  -0.562  25.770  0.00  0.00    +0.005 A 
ATOM     28  C   UNL     1      -4.534  -1.426  23.715  0.00  0.00    +0.005 A 
ATOM     31  C   UNL     1      -3.267  -1.858  26.163  0.00  0.00    +0.000 A 
ATOM     32  C   UNL     1      -4.200  -2.721  24.108  0.00  0.00    +0.000 A 
ATOM     34  C   UNL     1      -3.566  -2.938  25.332  0.00  0.00    +0.000 A 
ENDBRANCH  21  24
ENDBRANCH   1  21
ENDBRANCH   6   1
ENDBRANCH  16   6
ENDBRANCH  11  16
TORSDOF 7
ENDMDL
MODEL 3
REMARK VINA RESULT:       0.8      2.767      6.153
REMARK  Name = 40776929
REMARK  8 active torsions:
REMARK  status: ('A' for Active; 'I' for Inactive)
REMARK    1  A    between atoms: S_1  and  N_6
REMARK    2  A    between atoms: S_1  and  C_21
REMARK    3  A    between atoms: N_6  and  C_16
REMARK    4  A    between atoms: C_10  and  C_17
REMARK    5  A    between atoms: C_11  and  C_16
REMARK    6  A    between atoms: C_19  and  C_22
REMARK    7  A    between atoms: C_20  and  C_23
REMARK    8  A    between atoms: C_21  and  C_24
REMARK                            x       y       z     vdW  Elec       q    Type
REMARK                         _______ _______ _______ _____ _____    ______ ____
ROOT
ATOM      5  N   UNL     1      -1.886  -2.424  23.877  0.00  0.00    -0.297 NA
ATOM      9  C   UNL     1      -3.741  -2.011  25.659  0.00  0.00    +0.002 C 
ATOM     10  C   UNL     1      -3.878  -1.000  24.487  0.00  0.00    +0.055 C 
ATOM     11  C   UNL     1      -1.280  -2.341  25.232  0.00  0.00    +0.072 C 
ATOM     12  C   UNL     1      -2.330  -1.892  26.273  0.00  0.00    +0.024 C 
ATOM     13  C   UNL     1      -3.852  -3.423  25.044  0.00  0.00    +0.019 C 
ATOM     14  C   UNL     1      -2.630  -1.175  23.575  0.00  0.00    +0.094 C 
ATOM     15  C   UNL     1      -2.853  -3.548  23.880  0.00  0.00    +0.085 C 
ENDROOT
BRANCH  10  17
ATOM      7  N   UNL     1      -5.403   0.772  25.206  0.00  0.00    -0.237 NA
ATOM      8  N   UNL     1      -4.690   3.063  25.440  0.00  0.00    -0.232 NA
ATOM     17  C   UNL     1      -4.147   0.459  24.824  0.00  0.00    +0.050 A 
ATOM     18  C   UNL     1      -3.124   1.380  24.729  0.00  0.00    +0.052 A 
ATOM     19  C   UNL     1      -3.457   2.680  25.052  0.00  0.00    +0.075 A 
ATOM     20  C   UNL     1      -5.603   2.072  25.495  0.00  0.00    +0.127 A 
ATOM     23  C   UNL     1      -6.980   2.457  25.918  0.00  0.00    +0.088 C 
BRANCH  19  22
ATOM      2  F   UNL     1       0.327   6.763  24.818  0.00  0.00    -0.205 F 
ATOM     22  C   UNL     1      -2.477   3.737  24.991  0.00  0.00    +0.001 A 
ATOM     25  C   UNL     1      -2.879   5.069  25.100  0.00  0.00    +0.013 A 
ATOM     26  C   UNL     1      -1.127   3.428  24.825  0.00  0.00    +0.013 A 
ATOM     29  C   UNL     1      -1.932   6.091  25.042  0.00  0.00    +0.039 A 
ATOM     30  C   UNL     1      -0.179   4.451  24.767  0.00  0.00    +0.039 A 
ATOM     33  C   UNL     1      -0.582   5.782  24.875  0.00  0.00    +0.123 A 
ENDBRANCH  19  22
ENDBRANCH  10  17
BRANCH  11  16
ATOM     16  C   UNL     1      -0.035  -1.452  25.260  0.00  0.00    +0.124 C 
BRANCH  16   6
ATOM      6  N   UNL     1       0.432  -1.231  23.881  0.00  0.00    -0.193 NA
ATOM     35  H   UNL     1       0.031  -1.890  23.201  0.00  0.00    +0.148 HD
BRANCH   6   1
ATOM      1  S   UNL     1       0.676   0.368  23.330  0.00  0.00    +0.034 S 
ATOM      3  O   UNL     1       1.269   1.166  24.386  0.00  0.00    -0.158 OA
ATOM      4  O   UNL     1      -0.528   0.811  22.652  0.00  0.00    -0.158 OA
BRANCH   1  21
ATOM     21  C   UNL     1       1.917   0.097  22.086  0.00  0.00    +0.220 C 
BRANCH  21  24
ATOM     24  C   UNL     1       3.231  -0.076  22.785  0.00  0.00    -0.025 A 
ATOM     27  C   UNL     1       4.131   0.987  22.851  0.00  0.00    +0.005 A 
ATOM     28  C   UNL     1       3.554  -1.301  23.370  0.00  0.00    +0.005 A 
ATOM     31  C   UNL     1       5.355   0.826  23.501  0.00  0.00    +0.000 A 
ATOM     32  C   UNL     1       4.777  -1.461  24.021  0.00  0.00    +0.000 A 
ATOM     34  C   UNL     1       5.678  -0.398  24.086  0.00  0.00    +0.000 A 
ENDBRANCH  21  24
ENDBRANCH   1  21
ENDBRANCH   6   1
ENDBRANCH  16   6
ENDBRANCH  11  16
TORSDOF 7
ENDMDL
MODEL 4
REMARK VINA RESULT:       1.4      2.884      7.164
REMARK  Name = 40776929
REMARK  8 active torsions:
REMARK  status: ('A' for Active; 'I' for Inactive)
REMARK    1  A    between atoms: S_1  and  N_6
REMARK    2  A    between atoms: S_1  and  C_21
REMARK    3  A    between atoms: N_6  and  C_16
REMARK    4  A    between atoms: C_10  and  C_17
REMARK    5  A    between atoms: C_11  and  C_16
REMARK    6  A    between atoms: C_19  and  C_22
REMARK    7  A    between atoms: C_20  and  C_23
REMARK    8  A    between atoms: C_21  and  C_24
REMARK                            x       y       z     vdW  Elec       q    Type
REMARK                         _______ _______ _______ _____ _____    ______ ____
ROOT
ATOM      5  N   UNL     1      -0.693   4.592  25.593  0.00  0.00    -0.297 NA
ATOM      9  C   UNL     1      -2.530   4.238  23.781  0.00  0.00    +0.002 C 
ATOM     10  C   UNL     1      -3.092   3.919  25.194  0.00  0.00    +0.055 C 
ATOM     11  C   UNL     1      -0.163   3.748  24.490  0.00  0.00    +0.072 C 
ATOM     12  C   UNL     1      -1.293   3.356  23.512  0.00  0.00    +0.024 C 
ATOM     13  C   UNL     1      -2.045   5.703  23.816  0.00  0.00    +0.019 C 
ATOM     14  C   UNL     1      -1.895   3.955  26.188  0.00  0.00    +0.094 C 
ATOM     15  C   UNL     1      -1.099   5.895  25.013  0.00  0.00    +0.085 C 
ENDROOT
BRANCH  10  17
ATOM      7  N   UNL     1      -5.138   2.829  25.974  0.00  0.00    -0.237 NA
ATOM      8  N   UNL     1      -5.519   0.465  25.699  0.00  0.00    -0.232 NA
ATOM     17  C   UNL     1      -3.944   2.670  25.364  0.00  0.00    +0.050 A 
ATOM     18  C   UNL     1      -3.477   1.457  24.900  0.00  0.00    +0.052 A 
ATOM     19  C   UNL     1      -4.314   0.379  25.098  0.00  0.00    +0.075 A 
ATOM     20  C   UNL     1      -5.863   1.702  26.107  0.00  0.00    +0.127 A 
ATOM     23  C   UNL     1      -7.187   1.838  26.779  0.00  0.00    +0.088 C 
BRANCH  19  22
ATOM      2  F   UNL     1      -2.871  -4.731  23.407  0.00  0.00    -0.205 F 
ATOM     22  C   UNL     1      -3.941  -0.944  24.660  0.00  0.00    +0.001 A 
ATOM     25  C   UNL     1      -4.790  -1.668  23.822  0.00  0.00    +0.013 A 
ATOM     26  C   UNL     1      -2.730  -1.500  25.073  0.00  0.00    +0.013 A 
ATOM     29  C   UNL     1      -4.429  -2.947  23.399  0.00  0.00    +0.039 A 
ATOM     30  C   UNL     1      -2.369  -2.779  24.649  0.00  0.00    +0.039 A 
ATOM     33  C   UNL     1      -3.218  -3.502  23.813  0.00  0.00    +0.123 A 
ENDBRANCH  19  22
ENDBRANCH  10  17
BRANCH  11  16
ATOM     16  C   UNL     1       0.594   2.523  25.005  0.00  0.00    +0.124 C 
BRANCH  16   6
ATOM      6  N   UNL     1       1.156   1.785  23.862  0.00  0.00    -0.193 NA
ATOM     35  H   UNL     1       2.181   1.848  23.795  0.00  0.00    +0.148 HD
BRANCH   6   1
ATOM      1  S   UNL     1       0.461   0.291  23.410  0.00  0.00    +0.034 S 
ATOM      3  O   UNL     1      -0.820   0.520  22.770  0.00  0.00    -0.158 OA
ATOM      4  O   UNL     1       0.579  -0.629  24.525  0.00  0.00    -0.158 OA
BRANCH   1  21
ATOM     21  C   UNL     1       1.610  -0.238  22.161  0.00  0.00    +0.220 C 
BRANCH  21  24
ATOM     24  C   UNL     1       2.979  -0.232  22.770  0.00  0.00    -0.025 A 
ATOM     27  C   UNL     1       3.785   0.901  22.664  0.00  0.00    +0.005 A 
ATOM     28  C   UNL     1       3.447  -1.360  23.444  0.00  0.00    +0.005 A 
ATOM     31  C   UNL     1       5.059   0.908  23.231  0.00  0.00    +0.000 A 
ATOM     32  C   UNL     1       4.721  -1.354  24.012  0.00  0.00    +0.000 A 
ATOM     34  C   UNL     1       5.528  -0.220  23.905  0.00  0.00    +0.000 A 
ENDBRANCH  21  24
ENDBRANCH   1  21
ENDBRANCH   6   1
ENDBRANCH  16   6
ENDBRANCH  11  16
TORSDOF 7
ENDMDL
MODEL 5
REMARK VINA RESULT:       3.3      2.486      4.348
REMARK  Name = 40776929
REMARK  8 active torsions:
REMARK  status: ('A' for Active; 'I' for Inactive)
REMARK    1  A    between atoms: S_1  and  N_6
REMARK    2  A    between atoms: S_1  and  C_21
REMARK    3  A    between atoms: N_6  and  C_16
REMARK    4  A    between atoms: C_10  and  C_17
REMARK    5  A    between atoms: C_11  and  C_16
REMARK    6  A    between atoms: C_19  and  C_22
REMARK    7  A    between atoms: C_20  and  C_23
REMARK    8  A    between atoms: C_21  and  C_24
REMARK                            x       y       z     vdW  Elec       q    Type
REMARK                         _______ _______ _______ _____ _____    ______ ____
ROOT
ATOM      5  N   UNL     1      -3.155  -2.437  26.088  0.00  0.00    -0.297 NA
ATOM      9  C   UNL     1      -2.366  -2.207  23.616  0.00  0.00    +0.002 C 
ATOM     10  C   UNL     1      -1.221  -1.815  24.590  0.00  0.00    +0.055 C 
ATOM     11  C   UNL     1      -4.147  -1.651  25.309  0.00  0.00    +0.072 C 
ATOM     12  C   UNL     1      -3.602  -1.328  23.900  0.00  0.00    +0.024 C 
ATOM     13  C   UNL     1      -2.757  -3.663  23.952  0.00  0.00    +0.019 C 
ATOM     14  C   UNL     1      -1.824  -1.782  26.025  0.00  0.00    +0.094 C 
ATOM     15  C   UNL     1      -3.041  -3.776  25.460  0.00  0.00    +0.085 C 
ENDROOT
BRANCH  10  17
ATOM      7  N   UNL     1       0.796  -0.760  23.695  0.00  0.00    -0.237 NA
ATOM      8  N   UNL     1       1.102   1.630  23.694  0.00  0.00    -0.232 NA
ATOM     17  C   UNL     1      -0.407  -0.569  24.278  0.00  0.00    +0.050 A 
ATOM     18  C   UNL     1      -0.915   0.675  24.594  0.00  0.00    +0.052 A 
ATOM     19  C   UNL     1      -0.109   1.749  24.276  0.00  0.00    +0.075 A 
ATOM     20  C   UNL     1       1.487   0.366  23.435  0.00  0.00    +0.127 A 
ATOM     23  C   UNL     1       2.823   0.194  22.793  0.00  0.00    +0.088 C 
BRANCH  19  22
ATOM      2  F   UNL     1      -1.717   6.972  25.360  0.00  0.00    -0.205 F 
ATOM     22  C   UNL     1      -0.525   3.101  24.557  0.00  0.00    +0.001 A 
ATOM     25  C   UNL     1      -0.130   4.142  23.715  0.00  0.00    +0.013 A 
ATOM     26  C   UNL     1      -1.323   3.369  25.669  0.00  0.00    +0.013 A 
ATOM     29  C   UNL     1      -0.532   5.450  23.987  0.00  0.00    +0.039 A 
ATOM     30  C   UNL     1      -1.727   4.677  25.940  0.00  0.00    +0.039 A 
ATOM     33  C   UNL     1      -1.331   5.717  25.099  0.00  0.00    +0.123 A 
ENDBRANCH  19  22
ENDBRANCH  10  17
BRANCH  11  16
ATOM     16  C   UNL     1      -4.601  -0.390  26.047  0.00  0.00    +0.124 C 
BRANCH  16   6
ATOM      6  N   UNL     1      -4.866   0.676  25.066  0.00  0.00    -0.193 NA
ATOM     35  H   UNL     1      -4.916   0.338  24.096  0.00  0.00    +0.148 HD
BRANCH   6   1
ATOM      1  S   UNL     1      -5.933   1.944  25.480  0.00  0.00    +0.034 S 
ATOM      3  O   UNL     1      -6.178   1.932  26.910  0.00  0.00    -0.158 OA
ATOM      4  O   UNL     1      -7.037   1.944  24.539  0.00  0.00    -0.158 OA
BRANCH   1  21
ATOM     21  C   UNL     1      -4.919   3.356  25.110  0.00  0.00    +0.220 C 
BRANCH  21  24
ATOM     24  C   UNL     1      -4.219   3.087  23.814  0.00  0.00    -0.025 A 
ATOM     27  C   UNL     1      -3.565   1.871  23.614  0.00  0.00    +0.005 A 
ATOM     28  C   UNL     1      -4.221   4.051  22.806  0.00  0.00    +0.005 A 
ATOM     31  C   UNL     1      -2.912   1.619  22.407  0.00  0.00    +0.000 A 
ATOM     32  C   UNL     1      -3.570   3.799  21.599  0.00  0.00    +0.000 A 
ATOM     34  C   UNL     1      -2.915   2.584  21.399  0.00  0.00    +0.000 A 
ENDBRANCH  21  24
ENDBRANCH   1  21
ENDBRANCH   6   1
ENDBRANCH  16   6
ENDBRANCH  11  16
TORSDOF 7
ENDMDL
