MODEL 1
REMARK VINA RESULT:       4.4      0.000      0.000
REMARK  Name = 7051432
REMARK  7 active torsions:
REMARK  status: ('A' for Active; 'I' for Inactive)
REMARK    1  A    between atoms: S_1  and  N_9
REMARK    2  A    between atoms: S_1  and  C_24
REMARK    3  A    between atoms: O_4  and  C_23
REMARK    4  A    between atoms: O_4  and  C_25
REMARK    5  A    between atoms: N_9  and  C_21
REMARK    6  A    between atoms: C_20  and  C_23
REMARK    7  A    between atoms: C_26  and  C_35
REMARK                            x       y       z     vdW  Elec       q    Type
REMARK                         _______ _______ _______ _____ _____    ______ ____
ROOT
ATOM      2  O   UNL     1      -0.046   2.393  26.208  0.00  0.00    -0.266 OA
ATOM      3  O   UNL     1      -4.968   0.322  26.654  0.00  0.00    -0.272 OA
ATOM      7  N   UNL     1      -4.934   2.030  25.078  0.00  0.00    -0.298 N 
ATOM      8  N   UNL     1      -1.890   2.988  24.891  0.00  0.00    -0.310 N 
ATOM     11  C   UNL     1      -3.941   4.197  25.825  0.00  0.00    +0.027 C 
ATOM     12  C   UNL     1      -3.869   3.578  23.446  0.00  0.00    +0.054 C 
ATOM     13  C   UNL     1      -4.092   4.742  24.410  0.00  0.00    +0.018 C 
ATOM     14  C   UNL     1      -4.975   3.087  26.089  0.00  0.00    +0.113 C 
ATOM     15  C   UNL     1      -2.503   3.703  26.017  0.00  0.00    +0.130 C 
ATOM     16  C   UNL     1      -4.942   2.497  23.684  0.00  0.00    +0.117 C 
ATOM     17  C   UNL     1      -2.487   2.978  23.623  0.00  0.00    +0.027 A 
ATOM     18  C   UNL     1      -1.854   2.417  22.576  0.00  0.00    +0.024 A 
ATOM     19  C   UNL     1      -0.627   2.403  25.124  0.00  0.00    +0.274 A 
ATOM     20  C   UNL     1      -4.976   0.694  25.477  0.00  0.00    +0.253 C 
ATOM     21  C   UNL     1       0.010   1.780  23.937  0.00  0.00    +0.112 A 
ATOM     22  C   UNL     1      -0.567   1.797  22.734  0.00  0.00    +0.031 A 
ENDROOT
BRANCH  21   9
ATOM      9  N   UNL     1       1.266   1.158  24.051  0.00  0.00    -0.211 N 
ATOM     37  H   UNL     1       2.040   1.836  24.083  0.00  0.00    +0.174 HD
BRANCH   9   1
ATOM      1  S   UNL     1       1.545  -0.196  23.074  0.00  0.00    +0.074 S 
ATOM      5  O   UNL     1       0.827  -1.339  23.608  0.00  0.00    -0.150 OA
ATOM      6  O   UNL     1       1.401   0.170  21.679  0.00  0.00    -0.150 OA
BRANCH   1  24
ATOM     24  C   UNL     1       3.267  -0.468  23.375  0.00  0.00    +0.126 A 
ATOM     26  C   UNL     1       4.206   0.521  23.127  0.00  0.00    +0.078 A 
ATOM     27  C   UNL     1       3.644  -1.709  23.866  0.00  0.00    +0.030 A 
ATOM     30  C   UNL     1       5.555   0.265  23.376  0.00  0.00    +0.021 A 
ATOM     31  C   UNL     1       4.993  -1.965  24.115  0.00  0.00    +0.002 A 
ATOM     32  C   UNL     1       5.948  -0.979  23.871  0.00  0.00    +0.001 A 
BRANCH  26  35
ATOM     10  N   UNL     1       3.540   2.849  22.205  0.00  0.00    -0.191 NA
ATOM     35  C   UNL     1       3.839   1.808  22.617  0.00  0.00    +0.101 C 
ENDBRANCH  26  35
ENDBRANCH   1  24
ENDBRANCH   9   1
ENDBRANCH  21   9
BRANCH  20  23
ATOM     23  C   UNL     1      -5.025  -0.338  24.379  0.00  0.00    +0.324 C 
BRANCH  23   4
ATOM      4  O   UNL     1      -3.747  -0.362  23.790  0.00  0.00    -0.483 OA
BRANCH   4  25
ATOM     25  C   UNL     1      -2.759  -1.058  24.450  0.00  0.00    +0.121 A 
ATOM     28  C   UNL     1      -1.990  -0.409  25.405  0.00  0.00    +0.045 A 
ATOM     29  C   UNL     1      -2.550  -2.395  24.148  0.00  0.00    +0.045 A 
ATOM     33  C   UNL     1      -0.988  -1.113  26.072  0.00  0.00    +0.004 A 
ATOM     34  C   UNL     1      -1.547  -3.099  24.816  0.00  0.00    +0.004 A 
ATOM     36  C   UNL     1      -0.767  -2.459  25.779  0.00  0.00    +0.000 A 
ENDBRANCH   4  25
ENDBRANCH  23   4
ENDBRANCH  20  23
TORSDOF 7
ENDMDL
MODEL 2
REMARK VINA RESULT:       5.6      1.569      2.012
REMARK  Name = 7051432
REMARK  7 active torsions:
REMARK  status: ('A' for Active; 'I' for Inactive)
REMARK    1  A    between atoms: S_1  and  N_9
REMARK    2  A    between atoms: S_1  and  C_24
REMARK    3  A    between atoms: O_4  and  C_23
REMARK    4  A    between atoms: O_4  and  C_25
REMARK    5  A    between atoms: N_9  and  C_21
REMARK    6  A    between atoms: C_20  and  C_23
REMARK    7  A    between atoms: C_26  and  C_35
REMARK                            x       y       z     vdW  Elec       q    Type
REMARK                         _______ _______ _______ _____ _____    ______ ____
ROOT
ATOM      2  O   UNL     1      -0.582   2.425  26.766  0.00  0.00    -0.266 OA
ATOM      3  O   UNL     1      -5.923   2.074  27.020  0.00  0.00    -0.272 OA
ATOM      7  N   UNL     1      -5.263   3.205  25.099  0.00  0.00    -0.298 N 
ATOM      8  N   UNL     1      -2.067   3.149  25.105  0.00  0.00    -0.310 N 
ATOM     11  C   UNL     1      -3.680   5.108  25.431  0.00  0.00    +0.027 C 
ATOM     12  C   UNL     1      -3.675   3.873  23.304  0.00  0.00    +0.054 C 
ATOM     13  C   UNL     1      -3.572   5.268  23.920  0.00  0.00    +0.018 C 
ATOM     14  C   UNL     1      -5.024   4.461  25.811  0.00  0.00    +0.113 C 
ATOM     15  C   UNL     1      -2.485   4.289  25.931  0.00  0.00    +0.130 C 
ATOM     16  C   UNL     1      -5.047   3.258  23.646  0.00  0.00    +0.117 C 
ATOM     17  C   UNL     1      -2.565   2.970  23.807  0.00  0.00    +0.027 A 
ATOM     18  C   UNL     1      -2.085   1.988  23.023  0.00  0.00    +0.024 A 
ATOM     19  C   UNL     1      -1.069   2.310  25.642  0.00  0.00    +0.274 A 
ATOM     20  C   UNL     1      -5.748   2.098  25.798  0.00  0.00    +0.253 C 
ATOM     21  C   UNL     1      -0.597   1.231  24.739  0.00  0.00    +0.112 A 
ATOM     22  C   UNL     1      -1.071   1.088  23.500  0.00  0.00    +0.031 A 
ENDROOT
BRANCH  21   9
ATOM      9  N   UNL     1       0.390   0.327  25.169  0.00  0.00    -0.211 N 
ATOM     37  H   UNL     1       1.213   0.800  25.566  0.00  0.00    +0.174 HD
BRANCH   9   1
ATOM      1  S   UNL     1       0.742  -0.973  24.143  0.00  0.00    +0.074 S 
ATOM      5  O   UNL     1       1.066  -2.146  24.935  0.00  0.00    -0.150 OA
ATOM      6  O   UNL     1      -0.255  -1.052  23.094  0.00  0.00    -0.150 OA
BRANCH   1  24
ATOM     24  C   UNL     1       2.246  -0.407  23.401  0.00  0.00    +0.126 A 
ATOM     26  C   UNL     1       2.337  -0.192  22.035  0.00  0.00    +0.078 A 
ATOM     27  C   UNL     1       3.331  -0.189  24.237  0.00  0.00    +0.030 A 
ATOM     30  C   UNL     1       3.542   0.253  21.490  0.00  0.00    +0.021 A 
ATOM     31  C   UNL     1       4.536   0.256  23.692  0.00  0.00    +0.002 A 
ATOM     32  C   UNL     1       4.641   0.477  22.320  0.00  0.00    +0.001 A 
BRANCH  26  35
ATOM     10  N   UNL     1       0.334  -0.591  20.442  0.00  0.00    -0.191 NA
ATOM     35  C   UNL     1       1.231  -0.413  21.154  0.00  0.00    +0.101 C 
ENDBRANCH  26  35
ENDBRANCH   1  24
ENDBRANCH   9   1
ENDBRANCH  21   9
BRANCH  20  23
ATOM     23  C   UNL     1      -6.059   0.868  24.985  0.00  0.00    +0.324 C 
BRANCH  23   4
ATOM      4  O   UNL     1      -4.903   0.573  24.240  0.00  0.00    -0.483 OA
BRANCH   4  25
ATOM     25  C   UNL     1      -4.215  -0.574  24.567  0.00  0.00    +0.121 A 
ATOM     28  C   UNL     1      -4.355  -1.702  23.771  0.00  0.00    +0.045 A 
ATOM     29  C   UNL     1      -3.397  -0.583  25.686  0.00  0.00    +0.045 A 
ATOM     33  C   UNL     1      -3.660  -2.865  24.103  0.00  0.00    +0.004 A 
ATOM     34  C   UNL     1      -2.702  -1.747  26.017  0.00  0.00    +0.004 A 
ATOM     36  C   UNL     1      -2.833  -2.888  25.225  0.00  0.00    +0.000 A 
ENDBRANCH   4  25
ENDBRANCH  23   4
ENDBRANCH  20  23
TORSDOF 7
ENDMDL
MODEL 3
REMARK VINA RESULT:       6.5      2.909      5.198
REMARK  Name = 7051432
REMARK  7 active torsions:
REMARK  status: ('A' for Active; 'I' for Inactive)
REMARK    1  A    between atoms: S_1  and  N_9
REMARK    2  A    between atoms: S_1  and  C_24
REMARK    3  A    between atoms: O_4  and  C_23
REMARK    4  A    between atoms: O_4  and  C_25
REMARK    5  A    between atoms: N_9  and  C_21
REMARK    6  A    between atoms: C_20  and  C_23
REMARK    7  A    between atoms: C_26  and  C_35
REMARK                            x       y       z     vdW  Elec       q    Type
REMARK                         _______ _______ _______ _____ _____    ______ ____
ROOT
ATOM      2  O   UNL     1      -3.249   0.494  22.049  0.00  0.00    -0.266 OA
ATOM      3  O   UNL     1      -0.219   4.014  24.722  0.00  0.00    -0.272 OA
ATOM      7  N   UNL     1      -2.421   4.096  25.461  0.00  0.00    -0.298 N 
ATOM      8  N   UNL     1      -3.975   1.823  23.836  0.00  0.00    -0.310 N 
ATOM     11  C   UNL     1      -4.166   4.370  23.695  0.00  0.00    +0.027 C 
ATOM     12  C   UNL     1      -4.726   3.220  25.795  0.00  0.00    +0.054 C 
ATOM     13  C   UNL     1      -5.248   4.209  24.755  0.00  0.00    +0.018 C 
ATOM     14  C   UNL     1      -2.868   4.905  24.327  0.00  0.00    +0.113 C 
ATOM     15  C   UNL     1      -3.953   3.025  22.993  0.00  0.00    +0.130 C 
ATOM     16  C   UNL     1      -3.457   3.790  26.459  0.00  0.00    +0.117 C 
ATOM     17  C   UNL     1      -4.418   1.875  25.165  0.00  0.00    +0.027 A 
ATOM     18  C   UNL     1      -4.541   0.746  25.887  0.00  0.00    +0.024 A 
ATOM     19  C   UNL     1      -3.628   0.605  23.214  0.00  0.00    +0.274 A 
ATOM     20  C   UNL     1      -1.074   3.748  25.572  0.00  0.00    +0.253 C 
ATOM     21  C   UNL     1      -3.762  -0.601  24.067  0.00  0.00    +0.112 A 
ATOM     22  C   UNL     1      -4.202  -0.533  25.324  0.00  0.00    +0.031 A 
ENDROOT
BRANCH  21   9
ATOM      9  N   UNL     1      -3.436  -1.870  23.557  0.00  0.00    -0.211 N 
ATOM     37  H   UNL     1      -4.250  -2.499  23.513  0.00  0.00    +0.174 HD
BRANCH   9   1
ATOM      1  S   UNL     1      -2.012  -2.586  24.128  0.00  0.00    +0.074 S 
ATOM      5  O   UNL     1      -2.114  -2.802  25.559  0.00  0.00    -0.150 OA
ATOM      6  O   UNL     1      -1.626  -3.674  23.250  0.00  0.00    -0.150 OA
BRANCH   1  24
ATOM     24  C   UNL     1      -0.858  -1.269  23.875  0.00  0.00    +0.126 A 
ATOM     26  C   UNL     1      -0.507  -0.412  24.907  0.00  0.00    +0.078 A 
ATOM     27  C   UNL     1      -0.319  -1.123  22.606  0.00  0.00    +0.030 A 
ATOM     30  C   UNL     1       0.405   0.616  24.665  0.00  0.00    +0.021 A 
ATOM     31  C   UNL     1       0.594  -0.095  22.364  0.00  0.00    +0.002 A 
ATOM     32  C   UNL     1       0.956   0.773  23.392  0.00  0.00    +0.001 A 
BRANCH  26  35
ATOM     10  N   UNL     1      -1.496  -0.648  27.290  0.00  0.00    -0.191 NA
ATOM     35  C   UNL     1      -1.053  -0.543  26.224  0.00  0.00    +0.101 C 
ENDBRANCH  26  35
ENDBRANCH   1  24
ENDBRANCH   9   1
ENDBRANCH  21   9
BRANCH  20  23
ATOM     23  C   UNL     1      -0.670   2.994  26.813  0.00  0.00    +0.324 C 
BRANCH  23   4
ATOM      4  O   UNL     1       0.733   3.061  26.887  0.00  0.00    -0.483 OA
BRANCH   4  25
ATOM     25  C   UNL     1       1.320   2.743  28.091  0.00  0.00    +0.121 A 
ATOM     28  C   UNL     1       2.703   2.689  28.182  0.00  0.00    +0.045 A 
ATOM     29  C   UNL     1       0.518   2.481  29.191  0.00  0.00    +0.045 A 
ATOM     33  C   UNL     1       3.298   2.366  29.401  0.00  0.00    +0.004 A 
ATOM     34  C   UNL     1       1.114   2.158  30.411  0.00  0.00    +0.004 A 
ATOM     36  C   UNL     1       2.503   2.101  30.516  0.00  0.00    +0.000 A 
ENDBRANCH   4  25
ENDBRANCH  23   4
ENDBRANCH  20  23
TORSDOF 7
ENDMDL
MODEL 4
REMARK VINA RESULT:       6.9      2.457      6.086
REMARK  Name = 7051432
REMARK  7 active torsions:
REMARK  status: ('A' for Active; 'I' for Inactive)
REMARK    1  A    between atoms: S_1  and  N_9
REMARK    2  A    between atoms: S_1  and  C_24
REMARK    3  A    between atoms: O_4  and  C_23
REMARK    4  A    between atoms: O_4  and  C_25
REMARK    5  A    between atoms: N_9  and  C_21
REMARK    6  A    between atoms: C_20  and  C_23
REMARK    7  A    between atoms: C_26  and  C_35
REMARK                            x       y       z     vdW  Elec       q    Type
REMARK                         _______ _______ _______ _____ _____    ______ ____
ROOT
ATOM      2  O   UNL     1      -4.767   1.638  26.754  0.00  0.00    -0.266 OA
ATOM      3  O   UNL     1      -0.196  -1.114  26.260  0.00  0.00    -0.272 OA
ATOM      7  N   UNL     1      -1.586  -1.495  24.437  0.00  0.00    -0.298 N 
ATOM      8  N   UNL     1      -4.152   0.355  24.892  0.00  0.00    -0.310 N 
ATOM     11  C   UNL     1      -3.926  -2.192  24.964  0.00  0.00    +0.027 C 
ATOM     12  C   UNL     1      -3.453  -0.984  22.874  0.00  0.00    +0.054 C 
ATOM     13  C   UNL     1      -4.268  -2.125  23.481  0.00  0.00    +0.018 C 
ATOM     14  C   UNL     1      -2.422  -2.455  25.159  0.00  0.00    +0.113 C 
ATOM     15  C   UNL     1      -4.376  -0.891  25.637  0.00  0.00    +0.130 C 
ATOM     16  C   UNL     1      -1.949  -1.285  23.028  0.00  0.00    +0.117 C 
ATOM     17  C   UNL     1      -3.785   0.338  23.539  0.00  0.00    +0.027 A 
ATOM     18  C   UNL     1      -3.699   1.486  22.843  0.00  0.00    +0.024 A 
ATOM     19  C   UNL     1      -4.426   1.559  25.575  0.00  0.00    +0.274 A 
ATOM     20  C   UNL     1      -0.484  -0.925  25.075  0.00  0.00    +0.253 C 
ATOM     21  C   UNL     1      -4.290   2.792  24.760  0.00  0.00    +0.112 A 
ATOM     22  C   UNL     1      -3.957   2.754  23.469  0.00  0.00    +0.031 A 
ENDROOT
BRANCH  21   9
ATOM      9  N   UNL     1      -4.529   4.052  25.336  0.00  0.00    -0.211 N 
ATOM     37  H   UNL     1      -4.772   4.767  24.637  0.00  0.00    +0.174 HD
BRANCH   9   1
ATOM      1  S   UNL     1      -3.449   4.567  26.534  0.00  0.00    +0.074 S 
ATOM      5  O   UNL     1      -3.399   6.017  26.556  0.00  0.00    -0.150 OA
ATOM      6  O   UNL     1      -3.686   3.826  27.757  0.00  0.00    -0.150 OA
BRANCH   1  24
ATOM     24  C   UNL     1      -1.915   3.997  25.860  0.00  0.00    +0.126 A 
ATOM     26  C   UNL     1      -1.332   4.624  24.769  0.00  0.00    +0.078 A 
ATOM     27  C   UNL     1      -1.319   2.899  26.461  0.00  0.00    +0.030 A 
ATOM     30  C   UNL     1      -0.123   4.141  24.267  0.00  0.00    +0.021 A 
ATOM     31  C   UNL     1      -0.110   2.417  25.959  0.00  0.00    +0.002 A 
ATOM     32  C   UNL     1       0.488   3.037  24.863  0.00  0.00    +0.001 A 
BRANCH  26  35
ATOM     10  N   UNL     1      -2.418   6.675  23.617  0.00  0.00    -0.191 NA
ATOM     35  C   UNL     1      -1.931   5.757  24.132  0.00  0.00    +0.101 C 
ENDBRANCH  26  35
ENDBRANCH   1  24
ENDBRANCH   9   1
ENDBRANCH  21   9
BRANCH  20  23
ATOM     23  C   UNL     1       0.386  -0.018  24.241  0.00  0.00    +0.324 C 
BRANCH  23   4
ATOM      4  O   UNL     1       1.229  -0.851  23.485  0.00  0.00    -0.483 OA
BRANCH   4  25
ATOM     25  C   UNL     1       2.553  -0.487  23.383  0.00  0.00    +0.121 A 
ATOM     28  C   UNL     1       3.536  -1.358  23.831  0.00  0.00    +0.045 A 
ATOM     29  C   UNL     1       2.881   0.745  22.838  0.00  0.00    +0.045 A 
ATOM     33  C   UNL     1       4.877  -0.989  23.729  0.00  0.00    +0.004 A 
ATOM     34  C   UNL     1       4.223   1.113  22.736  0.00  0.00    +0.004 A 
ATOM     36  C   UNL     1       5.221   0.247  23.182  0.00  0.00    +0.000 A 
ENDBRANCH   4  25
ENDBRANCH  23   4
ENDBRANCH  20  23
TORSDOF 7
ENDMDL
MODEL 5
REMARK VINA RESULT:       7.4      2.255      6.298
REMARK  Name = 7051432
REMARK  7 active torsions:
REMARK  status: ('A' for Active; 'I' for Inactive)
REMARK    1  A    between atoms: S_1  and  N_9
REMARK    2  A    between atoms: S_1  and  C_24
REMARK    3  A    between atoms: O_4  and  C_23
REMARK    4  A    between atoms: O_4  and  C_25
REMARK    5  A    between atoms: N_9  and  C_21
REMARK    6  A    between atoms: C_20  and  C_23
REMARK    7  A    between atoms: C_26  and  C_35
REMARK                            x       y       z     vdW  Elec       q    Type
REMARK                         _______ _______ _______ _____ _____    ______ ____
ROOT
ATOM      2  O   UNL     1      -4.322   1.028  26.803  0.00  0.00    -0.266 OA
ATOM      3  O   UNL     1       0.611  -0.657  25.564  0.00  0.00    -0.272 OA
ATOM      7  N   UNL     1      -0.994  -2.002  24.557  0.00  0.00    -0.298 N 
ATOM      8  N   UNL     1      -3.819  -0.712  25.318  0.00  0.00    -0.310 N 
ATOM     11  C   UNL     1      -2.763  -2.921  26.062  0.00  0.00    +0.027 C 
ATOM     12  C   UNL     1      -3.260  -2.547  23.683  0.00  0.00    +0.054 C 
ATOM     13  C   UNL     1      -3.474  -3.509  24.850  0.00  0.00    +0.018 C 
ATOM     14  C   UNL     1      -1.258  -2.761  25.780  0.00  0.00    +0.113 C 
ATOM     15  C   UNL     1      -3.425  -1.589  26.429  0.00  0.00    +0.130 C 
ATOM     16  C   UNL     1      -1.753  -2.437  23.374  0.00  0.00    +0.117 C 
ATOM     17  C   UNL     1      -3.824  -1.174  23.995  0.00  0.00    +0.027 A 
ATOM     18  C   UNL     1      -4.297  -0.396  23.004  0.00  0.00    +0.024 A 
ATOM     19  C   UNL     1      -4.287   0.573  25.661  0.00  0.00    +0.274 A 
ATOM     20  C   UNL     1      -0.015  -1.008  24.560  0.00  0.00    +0.253 C 
ATOM     21  C   UNL     1      -4.773   1.393  24.523  0.00  0.00    +0.112 A 
ATOM     22  C   UNL     1      -4.787   0.929  23.272  0.00  0.00    +0.031 A 
ENDROOT
BRANCH  21   9
ATOM      9  N   UNL     1      -5.255   2.695  24.742  0.00  0.00    -0.211 N 
ATOM     37  H   UNL     1      -6.261   2.783  24.542  0.00  0.00    +0.174 HD
BRANCH   9   1
ATOM      1  S   UNL     1      -4.302   3.973  24.173  0.00  0.00    +0.074 S 
ATOM      5  O   UNL     1      -4.261   3.944  22.723  0.00  0.00    -0.150 OA
ATOM      6  O   UNL     1      -4.656   5.195  24.869  0.00  0.00    -0.150 OA
BRANCH   1  24
ATOM     24  C   UNL     1      -2.706   3.477  24.755  0.00  0.00    +0.126 A 
ATOM     26  C   UNL     1      -1.817   2.803  23.932  0.00  0.00    +0.078 A 
ATOM     27  C   UNL     1      -2.377   3.785  26.067  0.00  0.00    +0.030 A 
ATOM     30  C   UNL     1      -0.569   2.428  24.431  0.00  0.00    +0.021 A 
ATOM     31  C   UNL     1      -1.130   3.410  26.566  0.00  0.00    +0.002 A 
ATOM     32  C   UNL     1      -0.226   2.732  25.749  0.00  0.00    +0.001 A 
BRANCH  26  35
ATOM     10  N   UNL     1      -2.396   2.204  21.479  0.00  0.00    -0.191 NA
ATOM     35  C   UNL     1      -2.137   2.473  22.576  0.00  0.00    +0.101 C 
ENDBRANCH  26  35
ENDBRANCH   1  24
ENDBRANCH   9   1
ENDBRANCH  21   9
BRANCH  20  23
ATOM     23  C   UNL     1       0.268  -0.333  23.242  0.00  0.00    +0.324 C 
BRANCH  23   4
ATOM      4  O   UNL     1       1.356  -1.013  22.665  0.00  0.00    -0.483 OA
BRANCH   4  25
ATOM     25  C   UNL     1       2.618  -0.543  22.949  0.00  0.00    +0.121 A 
ATOM     28  C   UNL     1       2.964   0.749  22.578  0.00  0.00    +0.045 A 
ATOM     29  C   UNL     1       3.523  -1.369  23.598  0.00  0.00    +0.045 A 
ATOM     33  C   UNL     1       4.243   1.224  22.863  0.00  0.00    +0.004 A 
ATOM     34  C   UNL     1       4.803  -0.892  23.883  0.00  0.00    +0.004 A 
ATOM     36  C   UNL     1       5.163   0.405  23.517  0.00  0.00    +0.000 A 
ENDBRANCH   4  25
ENDBRANCH  23   4
ENDBRANCH  20  23
TORSDOF 7
ENDMDL
