MODEL 1
REMARK VINA RESULT:       7.6      0.000      0.000
REMARK  Name = 40777636
REMARK  9 active torsions:
REMARK  status: ('A' for Active; 'I' for Inactive)
REMARK    1  A    between atoms: O_2  and  C_29
REMARK    2  A    between atoms: O_2  and  C_30
REMARK    3  A    between atoms: N_3  and  C_8
REMARK    4  A    between atoms: N_4  and  C_15
REMARK    5  A    between atoms: C_6  and  C_9
REMARK    6  A    between atoms: C_12  and  C_14
REMARK    7  A    between atoms: C_13  and  C_16
REMARK    8  A    between atoms: C_15  and  C_18
REMARK    9  A    between atoms: C_17  and  C_19
REMARK                            x       y       z     vdW  Elec       q    Type
REMARK                         _______ _______ _______ _____ _____    ______ ____
ROOT
ATOM      6  C   UNL     1      -0.693   0.272  24.744  0.00  0.00    +0.047 C 
ATOM      7  C   UNL     1      -0.178   0.845  23.408  0.00  0.00    +0.039 C 
ATOM      8  C   UNL     1       0.809   1.958  23.781  0.00  0.00    +0.097 C 
ATOM     10  C   UNL     1      -0.419   1.395  25.702  0.00  0.00    -0.021 C 
ATOM     11  C   UNL     1       0.402   2.309  25.174  0.00  0.00    -0.009 C 
ENDROOT
BRANCH   6   9
ATOM      4  N   UNL     1      -4.318  -0.237  24.633  0.00  0.00    -0.264 N 
ATOM      5  N   UNL     1      -3.968  -1.532  24.575  0.00  0.00    -0.176 NA
ATOM      9  C   UNL     1      -2.136  -0.173  24.688  0.00  0.00    +0.003 A 
ATOM     12  C   UNL     1      -3.258   0.619  24.701  0.00  0.00    +0.041 A 
ATOM     13  C   UNL     1      -2.633  -1.487  24.608  0.00  0.00    +0.064 A 
ATOM     14  C   UNL     1      -3.416   2.084  24.772  0.00  0.00    +0.065 C 
ATOM     16  C   UNL     1      -1.864  -2.743  24.563  0.00  0.00    +0.068 C 
BRANCH   4  15
ATOM     15  C   UNL     1      -5.719   0.116  24.617  0.00  0.00    +0.178 C 
BRANCH  15  18
ATOM     18  C   UNL     1      -5.995   1.494  25.167  0.00  0.00    -0.026 A 
ATOM     20  C   UNL     1      -5.864   2.612  24.343  0.00  0.00    +0.005 A 
ATOM     21  C   UNL     1      -6.379   1.650  26.499  0.00  0.00    +0.005 A 
ATOM     24  C   UNL     1      -6.119   3.886  24.851  0.00  0.00    +0.000 A 
ATOM     25  C   UNL     1      -6.633   2.923  27.007  0.00  0.00    +0.000 A 
ATOM     26  C   UNL     1      -6.503   4.042  26.183  0.00  0.00    +0.000 A 
ENDBRANCH  15  18
ENDBRANCH   4  15
ENDBRANCH   6   9
BRANCH   8   3
ATOM      1  O   UNL     1       1.856  -0.376  22.475  0.00  0.00    -0.270 OA
ATOM      3  N   UNL     1       2.176   1.510  23.786  0.00  0.00    -0.305 N 
ATOM     17  C   UNL     1       2.594   0.363  23.122  0.00  0.00    +0.245 C 
ATOM     31  H   UNL     1       2.828   2.016  24.378  0.00  0.00    +0.150 HD
BRANCH  17  19
ATOM     19  C   UNL     1       4.034   0.022  23.246  0.00  0.00    +0.037 A 
ATOM     22  C   UNL     1       4.419  -1.282  23.551  0.00  0.00    +0.016 A 
ATOM     23  C   UNL     1       5.002   1.009  23.061  0.00  0.00    +0.016 A 
ATOM     27  C   UNL     1       5.771  -1.602  23.670  0.00  0.00    +0.046 A 
ATOM     28  C   UNL     1       6.355   0.691  23.179  0.00  0.00    +0.046 A 
ATOM     29  C   UNL     1       6.740  -0.615  23.483  0.00  0.00    +0.120 A 
BRANCH  29   2
ATOM      2  O   UNL     1       8.060  -0.926  23.600  0.00  0.00    -0.495 OA
ATOM     30  C   UNL     1       8.997   0.015  23.079  0.00  0.00    +0.277 C 
ENDBRANCH  29   2
ENDBRANCH  17  19
ENDBRANCH   8   3
TORSDOF 6
ENDMDL
MODEL 2
REMARK VINA RESULT:       8.4      1.632      2.412
REMARK  Name = 40777636
REMARK  9 active torsions:
REMARK  status: ('A' for Active; 'I' for Inactive)
REMARK    1  A    between atoms: O_2  and  C_29
REMARK    2  A    between atoms: O_2  and  C_30
REMARK    3  A    between atoms: N_3  and  C_8
REMARK    4  A    between atoms: N_4  and  C_15
REMARK    5  A    between atoms: C_6  and  C_9
REMARK    6  A    between atoms: C_12  and  C_14
REMARK    7  A    between atoms: C_13  and  C_16
REMARK    8  A    between atoms: C_15  and  C_18
REMARK    9  A    between atoms: C_17  and  C_19
REMARK                            x       y       z     vdW  Elec       q    Type
REMARK                         _______ _______ _______ _____ _____    ______ ____
ROOT
ATOM      6  C   UNL     1      -1.760  -1.095  24.297  0.00  0.00    +0.047 C 
ATOM      7  C   UNL     1      -0.940  -1.032  25.602  0.00  0.00    +0.039 C 
ATOM      8  C   UNL     1       0.040  -2.209  25.538  0.00  0.00    +0.097 C 
ATOM     10  C   UNL     1      -1.595  -2.528  23.882  0.00  0.00    -0.021 C 
ATOM     11  C   UNL     1      -0.610  -3.129  24.558  0.00  0.00    -0.009 C 
ENDROOT
BRANCH   6   9
ATOM      4  N   UNL     1      -5.008   0.467  24.953  0.00  0.00    -0.264 N 
ATOM      5  N   UNL     1      -5.477  -0.665  24.401  0.00  0.00    -0.176 NA
ATOM      9  C   UNL     1      -3.194  -0.650  24.471  0.00  0.00    +0.003 A 
ATOM     12  C   UNL     1      -3.647   0.526  25.018  0.00  0.00    +0.041 A 
ATOM     13  C   UNL     1      -4.364  -1.344  24.108  0.00  0.00    +0.064 A 
ATOM     14  C   UNL     1      -2.923   1.678  25.586  0.00  0.00    +0.065 C 
ATOM     16  C   UNL     1      -4.469  -2.670  23.475  0.00  0.00    +0.068 C 
BRANCH   4  15
ATOM     15  C   UNL     1      -5.944   1.471  25.405  0.00  0.00    +0.178 C 
BRANCH  15  18
ATOM     18  C   UNL     1      -5.521   2.878  25.063  0.00  0.00    -0.026 A 
ATOM     20  C   UNL     1      -4.609   3.102  24.032  0.00  0.00    +0.005 A 
ATOM     21  C   UNL     1      -6.042   3.956  25.780  0.00  0.00    +0.005 A 
ATOM     24  C   UNL     1      -4.218   4.403  23.717  0.00  0.00    +0.000 A 
ATOM     25  C   UNL     1      -5.651   5.257  25.464  0.00  0.00    +0.000 A 
ATOM     26  C   UNL     1      -4.739   5.481  24.433  0.00  0.00    +0.000 A 
ENDBRANCH  15  18
ENDBRANCH   4  15
ENDBRANCH   6   9
BRANCH   8   3
ATOM      1  O   UNL     1       0.592  -0.301  23.464  0.00  0.00    -0.270 OA
ATOM      3  N   UNL     1       1.336  -1.829  25.042  0.00  0.00    -0.305 N 
ATOM     17  C   UNL     1       1.508  -0.891  24.031  0.00  0.00    +0.245 C 
ATOM     31  H   UNL     1       2.137  -2.344  25.394  0.00  0.00    +0.150 HD
BRANCH  17  19
ATOM     19  C   UNL     1       2.909  -0.629  23.612  0.00  0.00    +0.037 A 
ATOM     22  C   UNL     1       3.928  -1.494  24.007  0.00  0.00    +0.016 A 
ATOM     23  C   UNL     1       3.204   0.485  22.827  0.00  0.00    +0.016 A 
ATOM     27  C   UNL     1       5.244  -1.246  23.616  0.00  0.00    +0.046 A 
ATOM     28  C   UNL     1       4.519   0.734  22.435  0.00  0.00    +0.046 A 
ATOM     29  C   UNL     1       5.540  -0.132  22.829  0.00  0.00    +0.120 A 
BRANCH  29   2
ATOM      2  O   UNL     1       6.824   0.110  22.447  0.00  0.00    -0.495 OA
ATOM     30  C   UNL     1       7.850  -0.606  23.132  0.00  0.00    +0.277 C 
ENDBRANCH  29   2
ENDBRANCH  17  19
ENDBRANCH   8   3
TORSDOF 6
ENDMDL
