MODEL 1
REMARK VINA RESULT:       0.1      0.000      0.000
REMARK  Name = 40779317
REMARK  5 active torsions:
REMARK  status: ('A' for Active; 'I' for Inactive)
REMARK    1  A    between atoms: N_5  and  C_20
REMARK    2  A    between atoms: N_6  and  C_16
REMARK    3  A    between atoms: C_10  and  C_17
REMARK    4  A    between atoms: C_11  and  C_16
REMARK    5  A    between atoms: C_19  and  C_22
REMARK                            x       y       z     vdW  Elec       q    Type
REMARK                         _______ _______ _______ _____ _____    ______ ____
ROOT
ATOM      4  N   UNL     1      -5.022   3.616  24.376  0.00  0.00    -0.297 NA
ATOM      9  C   UNL     1      -3.235   4.043  26.222  0.00  0.00    +0.002 C 
ATOM     10  C   UNL     1      -2.559   3.920  24.829  0.00  0.00    +0.055 C 
ATOM     11  C   UNL     1      -5.219   2.668  25.503  0.00  0.00    +0.074 C 
ATOM     12  C   UNL     1      -4.051   2.764  26.508  0.00  0.00    +0.024 C 
ATOM     13  C   UNL     1      -4.240   5.211  26.128  0.00  0.00    +0.019 C 
ATOM     14  C   UNL     1      -3.654   3.468  23.821  0.00  0.00    +0.094 C 
ATOM     15  C   UNL     1      -5.158   4.993  24.912  0.00  0.00    +0.085 C 
ENDROOT
BRANCH  10  17
ATOM      5  N   UNL     1      -0.518   2.759  25.793  0.00  0.00    -0.270 N 
ATOM      7  N   UNL     1       0.559   2.016  25.483  0.00  0.00    -0.168 NA
ATOM     17  C   UNL     1      -1.291   3.084  24.717  0.00  0.00    +0.044 A 
ATOM     18  C   UNL     1      -0.677   2.516  23.628  0.00  0.00    +0.056 A 
ATOM     19  C   UNL     1       0.455   1.871  24.159  0.00  0.00    +0.128 A 
ATOM     20  C   UNL     1      -0.748   3.127  27.171  0.00  0.00    +0.172 C 
BRANCH  19  22
ATOM      2  O   UNL     1       2.762   1.439  23.282  0.00  0.00    -0.461 OA
ATOM     22  C   UNL     1       1.448   1.106  23.384  0.00  0.00    +0.155 A 
ATOM     27  C   UNL     1       1.183  -0.037  22.666  0.00  0.00    +0.051 A 
ATOM     28  C   UNL     1       2.412  -0.431  22.085  0.00  0.00    +0.042 A 
ATOM     29  C   UNL     1       3.341   0.499  22.490  0.00  0.00    +0.196 A 
ENDBRANCH  19  22
ENDBRANCH  10  17
BRANCH  11  16
ATOM     16  C   UNL     1      -5.441   1.231  25.024  0.00  0.00    +0.124 C 
BRANCH  16   6
ATOM      1  O   UNL     1      -4.905  -1.275  23.861  0.00  0.00    -0.253 OA
ATOM      3  O   UNL     1      -0.320  -2.637  25.127  0.00  0.00    -0.377 OA
ATOM      6  N   UNL     1      -4.272   0.417  25.275  0.00  0.00    -0.298 N 
ATOM      8  N   UNL     1      -2.899  -1.489  25.007  0.00  0.00    -0.281 N 
ATOM     21  C   UNL     1      -4.081  -0.813  24.657  0.00  0.00    +0.302 C 
ATOM     23  C   UNL     1      -2.621  -2.797  24.409  0.00  0.00    +0.137 C 
ATOM     24  C   UNL     1      -1.948  -1.086  26.052  0.00  0.00    +0.137 C 
ATOM     25  C   UNL     1      -1.160  -2.911  24.005  0.00  0.00    +0.179 C 
ATOM     26  C   UNL     1      -0.511  -1.298  25.588  0.00  0.00    +0.179 C 
ATOM     30  H   UNL     1      -3.599   0.796  25.925  0.00  0.00    +0.150 HD
ENDBRANCH  16   6
ENDBRANCH  11  16
TORSDOF 4
ENDMDL
MODEL 2
REMARK VINA RESULT:       0.4      1.750      3.192
REMARK  Name = 40779317
REMARK  5 active torsions:
REMARK  status: ('A' for Active; 'I' for Inactive)
REMARK    1  A    between atoms: N_5  and  C_20
REMARK    2  A    between atoms: N_6  and  C_16
REMARK    3  A    between atoms: C_10  and  C_17
REMARK    4  A    between atoms: C_11  and  C_16
REMARK    5  A    between atoms: C_19  and  C_22
REMARK                            x       y       z     vdW  Elec       q    Type
REMARK                         _______ _______ _______ _____ _____    ______ ____
ROOT
ATOM      4  N   UNL     1      -4.396   2.433  23.457  0.00  0.00    -0.297 NA
ATOM      9  C   UNL     1      -3.080   4.398  24.550  0.00  0.00    +0.002 C 
ATOM     10  C   UNL     1      -2.106   3.272  24.106  0.00  0.00    +0.055 C 
ATOM     11  C   UNL     1      -5.012   2.795  24.760  0.00  0.00    +0.074 C 
ATOM     12  C   UNL     1      -4.131   3.812  25.517  0.00  0.00    +0.024 C 
ATOM     13  C   UNL     1      -3.836   4.859  23.285  0.00  0.00    +0.019 C 
ATOM     14  C   UNL     1      -2.972   2.062  23.654  0.00  0.00    +0.094 C 
ATOM     15  C   UNL     1      -4.444   3.631  22.583  0.00  0.00    +0.085 C 
ENDROOT
BRANCH  10  17
ATOM      5  N   UNL     1       0.025   2.031  24.708  0.00  0.00    -0.270 N 
ATOM      7  N   UNL     1       0.900   1.792  25.699  0.00  0.00    -0.168 NA
ATOM     17  C   UNL     1      -0.997   2.863  25.065  0.00  0.00    +0.044 A 
ATOM     18  C   UNL     1      -0.773   3.190  26.380  0.00  0.00    +0.056 A 
ATOM     19  C   UNL     1       0.408   2.502  26.717  0.00  0.00    +0.128 A 
ATOM     20  C   UNL     1       0.234   1.416  23.419  0.00  0.00    +0.172 C 
BRANCH  19  22
ATOM      2  O   UNL     1       2.382   2.825  28.226  0.00  0.00    -0.461 OA
ATOM     22  C   UNL     1       1.069   2.531  28.034  0.00  0.00    +0.155 A 
ATOM     27  C   UNL     1       0.453   2.267  29.235  0.00  0.00    +0.051 A 
ATOM     28  C   UNL     1       1.452   2.407  30.229  0.00  0.00    +0.042 A 
ATOM     29  C   UNL     1       2.607   2.747  29.564  0.00  0.00    +0.196 A 
ENDBRANCH  19  22
ENDBRANCH  10  17
BRANCH  11  16
ATOM     16  C   UNL     1      -5.329   1.567  25.616  0.00  0.00    +0.124 C 
BRANCH  16   6
ATOM      1  O   UNL     1      -5.103  -0.930  24.337  0.00  0.00    -0.253 OA
ATOM      3  O   UNL     1      -0.481  -2.586  24.945  0.00  0.00    -0.377 OA
ATOM      6  N   UNL     1      -4.188   0.681  25.690  0.00  0.00    -0.298 N 
ATOM      8  N   UNL     1      -2.980  -1.291  25.198  0.00  0.00    -0.281 N 
ATOM     21  C   UNL     1      -4.155  -0.539  25.025  0.00  0.00    +0.302 C 
ATOM     23  C   UNL     1      -2.863  -2.594  24.539  0.00  0.00    +0.137 C 
ATOM     24  C   UNL     1      -1.875  -0.973  26.114  0.00  0.00    +0.137 C 
ATOM     25  C   UNL     1      -1.478  -2.779  23.940  0.00  0.00    +0.179 C 
ATOM     26  C   UNL     1      -0.528  -1.253  25.456  0.00  0.00    +0.179 C 
ATOM     30  H   UNL     1      -3.413   1.001  26.251  0.00  0.00    +0.150 HD
ENDBRANCH  16   6
ENDBRANCH  11  16
TORSDOF 4
ENDMDL
MODEL 3
REMARK VINA RESULT:       2.7      1.743      5.171
REMARK  Name = 40779317
REMARK  5 active torsions:
REMARK  status: ('A' for Active; 'I' for Inactive)
REMARK    1  A    between atoms: N_5  and  C_20
REMARK    2  A    between atoms: N_6  and  C_16
REMARK    3  A    between atoms: C_10  and  C_17
REMARK    4  A    between atoms: C_11  and  C_16
REMARK    5  A    between atoms: C_19  and  C_22
REMARK                            x       y       z     vdW  Elec       q    Type
REMARK                         _______ _______ _______ _____ _____    ______ ____
ROOT
ATOM      4  N   UNL     1      -1.813   4.753  26.055  0.00  0.00    -0.297 NA
ATOM      9  C   UNL     1      -2.780   4.035  23.745  0.00  0.00    +0.002 C 
ATOM     10  C   UNL     1      -3.650   3.466  24.899  0.00  0.00    +0.055 C 
ATOM     11  C   UNL     1      -0.735   4.177  25.208  0.00  0.00    +0.074 C 
ATOM     12  C   UNL     1      -1.322   3.559  23.921  0.00  0.00    +0.024 C 
ATOM     13  C   UNL     1      -2.778   5.571  23.905  0.00  0.00    +0.019 C 
ATOM     14  C   UNL     1      -2.903   3.762  26.231  0.00  0.00    +0.094 C 
ATOM     15  C   UNL     1      -2.368   5.930  25.344  0.00  0.00    +0.085 C 
ENDROOT
BRANCH  10  17
ATOM      5  N   UNL     1      -5.403   1.634  25.013  0.00  0.00    -0.270 N 
ATOM      7  N   UNL     1      -5.603   0.311  24.884  0.00  0.00    -0.168 NA
ATOM     17  C   UNL     1      -4.110   2.018  24.804  0.00  0.00    +0.044 A 
ATOM     18  C   UNL     1      -3.417   0.867  24.519  0.00  0.00    +0.056 A 
ATOM     19  C   UNL     1      -4.387  -0.152  24.582  0.00  0.00    +0.128 A 
ATOM     20  C   UNL     1      -6.520   2.487  25.346  0.00  0.00    +0.172 C 
BRANCH  19  22
ATOM      2  O   UNL     1      -4.788  -2.333  23.416  0.00  0.00    -0.461 OA
ATOM     22  C   UNL     1      -4.139  -1.586  24.348  0.00  0.00    +0.155 A 
ATOM     27  C   UNL     1      -3.227  -2.354  25.034  0.00  0.00    +0.051 A 
ATOM     28  C   UNL     1      -3.321  -3.657  24.489  0.00  0.00    +0.042 A 
ATOM     29  C   UNL     1      -4.285  -3.592  23.509  0.00  0.00    +0.196 A 
ENDBRANCH  19  22
ENDBRANCH  10  17
BRANCH  11  16
ATOM     16  C   UNL     1       0.137   3.179  25.974  0.00  0.00    +0.124 C 
BRANCH  16   6
ATOM      1  O   UNL     1      -0.684   0.887  24.560  0.00  0.00    -0.253 OA
ATOM      3  O   UNL     1       2.902  -0.362  21.389  0.00  0.00    -0.377 OA
ATOM      6  N   UNL     1       0.958   2.408  25.065  0.00  0.00    -0.298 N 
ATOM      8  N   UNL     1       1.393   0.639  23.559  0.00  0.00    -0.281 N 
ATOM     21  C   UNL     1       0.475   1.285  24.404  0.00  0.00    +0.302 C 
ATOM     23  C   UNL     1       0.971  -0.558  22.828  0.00  0.00    +0.137 C 
ATOM     24  C   UNL     1       2.824   0.953  23.433  0.00  0.00    +0.137 C 
ATOM     25  C   UNL     1       1.484  -0.532  21.397  0.00  0.00    +0.179 C 
ATOM     26  C   UNL     1       3.266   0.889  21.975  0.00  0.00    +0.179 C 
ATOM     30  H   UNL     1       1.904   2.734  24.937  0.00  0.00    +0.150 HD
ENDBRANCH  16   6
ENDBRANCH  11  16
TORSDOF 4
ENDMDL
MODEL 4
REMARK VINA RESULT:       3.2      2.145      6.687
REMARK  Name = 40779317
REMARK  5 active torsions:
REMARK  status: ('A' for Active; 'I' for Inactive)
REMARK    1  A    between atoms: N_5  and  C_20
REMARK    2  A    between atoms: N_6  and  C_16
REMARK    3  A    between atoms: C_10  and  C_17
REMARK    4  A    between atoms: C_11  and  C_16
REMARK    5  A    between atoms: C_19  and  C_22
REMARK                            x       y       z     vdW  Elec       q    Type
REMARK                         _______ _______ _______ _____ _____    ______ ____
ROOT
ATOM      4  N   UNL     1      -1.586  -2.464  23.895  0.00  0.00    -0.297 NA
ATOM      9  C   UNL     1      -3.602  -1.762  25.389  0.00  0.00    +0.002 C 
ATOM     10  C   UNL     1      -3.629  -0.990  24.042  0.00  0.00    +0.055 C 
ATOM     11  C   UNL     1      -1.112  -2.119  25.261  0.00  0.00    +0.074 C 
ATOM     12  C   UNL     1      -2.255  -1.506  26.098  0.00  0.00    +0.024 C 
ATOM     13  C   UNL     1      -3.652  -3.266  25.041  0.00  0.00    +0.019 C 
ATOM     14  C   UNL     1      -2.300  -1.307  23.299  0.00  0.00    +0.094 C 
ATOM     15  C   UNL     1      -2.548  -3.586  24.018  0.00  0.00    +0.085 C 
ENDROOT
BRANCH  10  17
ATOM      5  N   UNL     1      -3.342   1.398  23.231  0.00  0.00    -0.270 N 
ATOM      7  N   UNL     1      -3.742   2.667  23.423  0.00  0.00    -0.168 NA
ATOM     17  C   UNL     1      -3.930   0.502  24.075  0.00  0.00    +0.044 A 
ATOM     18  C   UNL     1      -4.772   1.236  24.875  0.00  0.00    +0.056 A 
ATOM     19  C   UNL     1      -4.615   2.561  24.428  0.00  0.00    +0.128 A 
ATOM     20  C   UNL     1      -2.374   1.113  22.198  0.00  0.00    +0.172 C 
BRANCH  19  22
ATOM      2  O   UNL     1      -6.280   3.681  25.929  0.00  0.00    -0.461 OA
ATOM     22  C   UNL     1      -5.314   3.738  24.975  0.00  0.00    +0.155 A 
ATOM     27  C   UNL     1      -5.086   5.041  24.597  0.00  0.00    +0.051 A 
ATOM     28  C   UNL     1      -5.968   5.835  25.368  0.00  0.00    +0.042 A 
ATOM     29  C   UNL     1      -6.673   4.961  26.163  0.00  0.00    +0.196 A 
ENDBRANCH  19  22
ENDBRANCH  10  17
BRANCH  11  16
ATOM     16  C   UNL     1       0.125  -1.217  25.238  0.00  0.00    +0.124 C 
BRANCH  16   6
ATOM      1  O   UNL     1       0.718   1.007  23.618  0.00  0.00    -0.253 OA
ATOM      3  O   UNL     1      -1.603   4.960  25.481  0.00  0.00    -0.377 OA
ATOM      6  N   UNL     1      -0.233   0.155  25.525  0.00  0.00    -0.298 N 
ATOM      8  N   UNL     1      -0.312   2.477  25.088  0.00  0.00    -0.281 N 
ATOM     21  C   UNL     1       0.099   1.199  24.670  0.00  0.00    +0.302 C 
ATOM     23  C   UNL     1       0.002   3.637  24.251  0.00  0.00    +0.137 C 
ATOM     24  C   UNL     1      -0.913   2.812  26.387  0.00  0.00    +0.137 C 
ATOM     25  C   UNL     1      -1.183   4.585  24.168  0.00  0.00    +0.179 C 
ATOM     26  C   UNL     1      -2.046   3.819  26.216  0.00  0.00    +0.179 C 
ATOM     30  H   UNL     1      -0.739   0.311  26.384  0.00  0.00    +0.150 HD
ENDBRANCH  16   6
ENDBRANCH  11  16
TORSDOF 4
ENDMDL
MODEL 5
REMARK VINA RESULT:       3.4      2.068      4.873
REMARK  Name = 40779317
REMARK  5 active torsions:
REMARK  status: ('A' for Active; 'I' for Inactive)
REMARK    1  A    between atoms: N_5  and  C_20
REMARK    2  A    between atoms: N_6  and  C_16
REMARK    3  A    between atoms: C_10  and  C_17
REMARK    4  A    between atoms: C_11  and  C_16
REMARK    5  A    between atoms: C_19  and  C_22
REMARK                            x       y       z     vdW  Elec       q    Type
REMARK                         _______ _______ _______ _____ _____    ______ ____
ROOT
ATOM      4  N   UNL     1      -3.992  -1.626  25.813  0.00  0.00    -0.297 NA
ATOM      9  C   UNL     1      -2.819  -1.930  23.507  0.00  0.00    +0.002 C 
ATOM     10  C   UNL     1      -1.765  -1.755  24.634  0.00  0.00    +0.055 C 
ATOM     11  C   UNL     1      -4.584  -0.698  24.815  0.00  0.00    +0.074 C 
ATOM     12  C   UNL     1      -3.770  -0.715  23.503  0.00  0.00    +0.024 C 
ATOM     13  C   UNL     1      -3.667  -3.167  23.878  0.00  0.00    +0.019 C 
ATOM     14  C   UNL     1      -2.533  -1.379  25.933  0.00  0.00    +0.094 C 
ATOM     15  C   UNL     1      -4.187  -3.010  25.318  0.00  0.00    +0.085 C 
ENDROOT
BRANCH  10  17
ATOM      5  N   UNL     1      -0.381   0.329  25.063  0.00  0.00    -0.270 N 
ATOM      7  N   UNL     1       0.718   1.002  24.682  0.00  0.00    -0.168 NA
ATOM     17  C   UNL     1      -0.583  -0.831  24.374  0.00  0.00    +0.044 A 
ATOM     18  C   UNL     1       0.456  -0.923  23.480  0.00  0.00    +0.056 A 
ATOM     19  C   UNL     1       1.225   0.232  23.715  0.00  0.00    +0.128 A 
ATOM     20  C   UNL     1      -1.209   0.869  26.116  0.00  0.00    +0.172 C 
BRANCH  19  22
ATOM      2  O   UNL     1       3.190   1.716  23.254  0.00  0.00    -0.461 OA
ATOM     22  C   UNL     1       2.462   0.597  23.002  0.00  0.00    +0.155 A 
ATOM     27  C   UNL     1       3.042  -0.139  21.994  0.00  0.00    +0.051 A 
ATOM     28  C   UNL     1       4.200   0.575  21.602  0.00  0.00    +0.042 A 
ATOM     29  C   UNL     1       4.245   1.696  22.398  0.00  0.00    +0.196 A 
ENDBRANCH  19  22
ENDBRANCH  10  17
BRANCH  11  16
ATOM     16  C   UNL     1      -4.749   0.721  25.365  0.00  0.00    +0.124 C 
BRANCH  16   6
ATOM      1  O   UNL     1      -4.479   3.460  25.953  0.00  0.00    -0.253 OA
ATOM      3  O   UNL     1      -0.260   5.082  23.940  0.00  0.00    -0.377 OA
ATOM      6  N   UNL     1      -3.734   1.603  24.831  0.00  0.00    -0.298 N 
ATOM      8  N   UNL     1      -2.630   3.676  24.569  0.00  0.00    -0.281 N 
ATOM     21  C   UNL     1      -3.669   2.948  25.173  0.00  0.00    +0.302 C 
ATOM     23  C   UNL     1      -2.491   5.104  24.868  0.00  0.00    +0.137 C 
ATOM     24  C   UNL     1      -1.723   3.185  23.521  0.00  0.00    +0.137 C 
ATOM     25  C   UNL     1      -1.033   5.478  25.075  0.00  0.00    +0.179 C 
ATOM     26  C   UNL     1      -0.297   3.664  23.771  0.00  0.00    +0.179 C 
ATOM     30  H   UNL     1      -3.072   1.183  24.195  0.00  0.00    +0.150 HD
ENDBRANCH  16   6
ENDBRANCH  11  16
TORSDOF 4
ENDMDL
MODEL 6
REMARK VINA RESULT:       3.7      2.117      4.297
REMARK  Name = 40779317
REMARK  5 active torsions:
REMARK  status: ('A' for Active; 'I' for Inactive)
REMARK    1  A    between atoms: N_5  and  C_20
REMARK    2  A    between atoms: N_6  and  C_16
REMARK    3  A    between atoms: C_10  and  C_17
REMARK    4  A    between atoms: C_11  and  C_16
REMARK    5  A    between atoms: C_19  and  C_22
REMARK                            x       y       z     vdW  Elec       q    Type
REMARK                         _______ _______ _______ _____ _____    ______ ____
ROOT
ATOM      4  N   UNL     1      -4.234   2.637  25.960  0.00  0.00    -0.297 NA
ATOM      9  C   UNL     1      -4.089   1.501  23.621  0.00  0.00    +0.002 C 
ATOM     10  C   UNL     1      -3.234   0.722  24.657  0.00  0.00    +0.055 C 
ATOM     11  C   UNL     1      -3.909   3.650  24.923  0.00  0.00    +0.074 C 
ATOM     12  C   UNL     1      -3.616   2.969  23.568  0.00  0.00    +0.024 C 
ATOM     13  C   UNL     1      -5.538   1.510  24.156  0.00  0.00    +0.019 C 
ATOM     14  C   UNL     1      -3.207   1.566  25.963  0.00  0.00    +0.094 C 
ATOM     15  C   UNL     1      -5.538   2.026  25.606  0.00  0.00    +0.085 C 
ENDROOT
BRANCH  10  17
ATOM      5  N   UNL     1      -1.424  -1.033  24.358  0.00  0.00    -0.270 N 
ATOM      7  N   UNL     1      -0.164  -1.234  23.935  0.00  0.00    -0.168 NA
ATOM     17  C   UNL     1      -1.845   0.260  24.239  0.00  0.00    +0.044 A 
ATOM     18  C   UNL     1      -0.787   0.951  23.701  0.00  0.00    +0.056 A 
ATOM     19  C   UNL     1       0.219  -0.019  23.534  0.00  0.00    +0.128 A 
ATOM     20  C   UNL     1      -2.180  -2.148  24.876  0.00  0.00    +0.172 C 
BRANCH  19  22
ATOM      2  O   UNL     1       2.483   1.054  23.546  0.00  0.00    -0.461 OA
ATOM     22  C   UNL     1       1.564   0.227  22.983  0.00  0.00    +0.155 A 
ATOM     27  C   UNL     1       2.065  -0.342  21.834  0.00  0.00    +0.051 A 
ATOM     28  C   UNL     1       3.376   0.168  21.683  0.00  0.00    +0.042 A 
ATOM     29  C   UNL     1       3.583   1.013  22.748  0.00  0.00    +0.196 A 
ENDBRANCH  19  22
ENDBRANCH  10  17
BRANCH  11  16
ATOM     16  C   UNL     1      -2.771   4.579  25.351  0.00  0.00    +0.124 C 
BRANCH  16   6
ATOM      1  O   UNL     1      -0.076   3.862  24.970  0.00  0.00    -0.253 OA
ATOM      3  O   UNL     1       1.758   2.323  29.300  0.00  0.00    -0.377 OA
ATOM      6  N   UNL     1      -1.922   3.937  26.331  0.00  0.00    -0.298 N 
ATOM      8  N   UNL     1       0.097   2.989  27.113  0.00  0.00    -0.281 N 
ATOM     21  C   UNL     1      -0.597   3.615  26.063  0.00  0.00    +0.302 C 
ATOM     23  C   UNL     1       1.498   2.608  26.915  0.00  0.00    +0.137 C 
ATOM     24  C   UNL     1      -0.484   2.525  28.381  0.00  0.00    +0.137 C 
ATOM     25  C   UNL     1       2.330   2.936  28.144  0.00  0.00    +0.179 C 
ATOM     26  C   UNL     1       0.448   2.833  29.548  0.00  0.00    +0.179 C 
ATOM     30  H   UNL     1      -2.348   3.737  27.224  0.00  0.00    +0.150 HD
ENDBRANCH  16   6
ENDBRANCH  11  16
TORSDOF 4
ENDMDL
MODEL 7
REMARK VINA RESULT:       3.7      2.167      4.507
REMARK  Name = 40779317
REMARK  5 active torsions:
REMARK  status: ('A' for Active; 'I' for Inactive)
REMARK    1  A    between atoms: N_5  and  C_20
REMARK    2  A    between atoms: N_6  and  C_16
REMARK    3  A    between atoms: C_10  and  C_17
REMARK    4  A    between atoms: C_11  and  C_16
REMARK    5  A    between atoms: C_19  and  C_22
REMARK                            x       y       z     vdW  Elec       q    Type
REMARK                         _______ _______ _______ _____ _____    ______ ____
ROOT
ATOM      4  N   UNL     1      -3.829  -0.373  23.596  0.00  0.00    -0.297 NA
ATOM      9  C   UNL     1      -3.995   0.815  25.908  0.00  0.00    +0.002 C 
ATOM     10  C   UNL     1      -2.995   1.562  24.984  0.00  0.00    +0.055 C 
ATOM     11  C   UNL     1      -3.664  -1.365  24.691  0.00  0.00    +0.074 C 
ATOM     12  C   UNL     1      -3.553  -0.656  26.058  0.00  0.00    +0.024 C 
ATOM     13  C   UNL     1      -5.356   0.807  25.178  0.00  0.00    +0.019 C 
ATOM     14  C   UNL     1      -2.798   0.688  23.713  0.00  0.00    +0.094 C 
ATOM     15  C   UNL     1      -5.162   0.258  23.753  0.00  0.00    +0.085 C 
ENDROOT
BRANCH  10  17
ATOM      5  N   UNL     1      -0.747   2.735  24.876  0.00  0.00    -0.270 N 
ATOM      7  N   UNL     1       0.356   3.041  25.582  0.00  0.00    -0.168 NA
ATOM     17  C   UNL     1      -1.671   2.020  25.580  0.00  0.00    +0.044 A 
ATOM     18  C   UNL     1      -1.137   1.847  26.834  0.00  0.00    +0.056 A 
ATOM     19  C   UNL     1       0.111   2.496  26.777  0.00  0.00    +0.128 A 
ATOM     20  C   UNL     1      -0.846   3.169  23.502  0.00  0.00    +0.172 C 
BRANCH  19  22
ATOM      2  O   UNL     1       2.341   3.076  27.760  0.00  0.00    -0.461 OA
ATOM     22  C   UNL     1       1.077   2.593  27.886  0.00  0.00    +0.155 A 
ATOM     27  C   UNL     1       0.832   2.212  29.185  0.00  0.00    +0.051 A 
ATOM     28  C   UNL     1       2.022   2.478  29.903  0.00  0.00    +0.042 A 
ATOM     29  C   UNL     1       2.910   3.002  28.992  0.00  0.00    +0.196 A 
ENDBRANCH  19  22
ENDBRANCH  10  17
BRANCH  11  16
ATOM     16  C   UNL     1      -2.489  -2.315  24.444  0.00  0.00    +0.124 C 
BRANCH  16   6
ATOM      1  O   UNL     1      -0.207  -1.058  25.510  0.00  0.00    -0.253 OA
ATOM      3  O   UNL     1       2.773   0.203  21.768  0.00  0.00    -0.377 OA
ATOM      6  N   UNL     1      -1.450  -1.662  23.678  0.00  0.00    -0.298 N 
ATOM      8  N   UNL     1       0.570  -0.464  23.407  0.00  0.00    -0.281 N 
ATOM     21  C   UNL     1      -0.352  -1.063  24.283  0.00  0.00    +0.302 C 
ATOM     23  C   UNL     1       1.755   0.197  23.958  0.00  0.00    +0.137 C 
ATOM     24  C   UNL     1       0.401  -0.293  21.956  0.00  0.00    +0.137 C 
ATOM     25  C   UNL     1       2.992  -0.130  23.139  0.00  0.00    +0.179 C 
ATOM     26  C   UNL     1       1.707  -0.574  21.221  0.00  0.00    +0.179 C 
ATOM     30  H   UNL     1      -1.568  -1.667  22.676  0.00  0.00    +0.150 HD
ENDBRANCH  16   6
ENDBRANCH  11  16
TORSDOF 4
ENDMDL
MODEL 8
REMARK VINA RESULT:       3.9      1.691      4.677
REMARK  Name = 40779317
REMARK  5 active torsions:
REMARK  status: ('A' for Active; 'I' for Inactive)
REMARK    1  A    between atoms: N_5  and  C_20
REMARK    2  A    between atoms: N_6  and  C_16
REMARK    3  A    between atoms: C_10  and  C_17
REMARK    4  A    between atoms: C_11  and  C_16
REMARK    5  A    between atoms: C_19  and  C_22
REMARK                            x       y       z     vdW  Elec       q    Type
REMARK                         _______ _______ _______ _____ _____    ______ ____
ROOT
ATOM      4  N   UNL     1      -1.940   5.317  25.742  0.00  0.00    -0.297 NA
ATOM      9  C   UNL     1      -2.966   4.262  23.592  0.00  0.00    +0.002 C 
ATOM     10  C   UNL     1      -3.751   3.802  24.851  0.00  0.00    +0.055 C 
ATOM     11  C   UNL     1      -0.870   4.693  24.920  0.00  0.00    +0.074 C 
ATOM     12  C   UNL     1      -1.478   3.887  23.752  0.00  0.00    +0.024 C 
ATOM     13  C   UNL     1      -3.044   5.805  23.558  0.00  0.00    +0.019 C 
ATOM     14  C   UNL     1      -2.964   4.302  26.096  0.00  0.00    +0.094 C 
ATOM     15  C   UNL     1      -2.592   6.364  24.919  0.00  0.00    +0.085 C 
ENDROOT
BRANCH  10  17
ATOM      5  N   UNL     1      -5.256   1.903  25.606  0.00  0.00    -0.270 N 
ATOM      7  N   UNL     1      -5.411   0.567  25.593  0.00  0.00    -0.168 NA
ATOM     17  C   UNL     1      -4.133   2.332  24.961  0.00  0.00    +0.044 A 
ATOM     18  C   UNL     1      -3.511   1.200  24.493  0.00  0.00    +0.056 A 
ATOM     19  C   UNL     1      -4.343   0.144  24.911  0.00  0.00    +0.128 A 
ATOM     20  C   UNL     1      -6.243   2.721  26.271  0.00  0.00    +0.172 C 
BRANCH  19  22
ATOM      2  O   UNL     1      -3.739  -2.188  25.599  0.00  0.00    -0.461 OA
ATOM     22  C   UNL     1      -4.107  -1.287  24.650  0.00  0.00    +0.155 A 
ATOM     27  C   UNL     1      -4.226  -1.899  23.424  0.00  0.00    +0.051 A 
ATOM     28  C   UNL     1      -3.911  -3.262  23.632  0.00  0.00    +0.042 A 
ATOM     29  C   UNL     1      -3.621  -3.387  24.971  0.00  0.00    +0.196 A 
ENDBRANCH  19  22
ENDBRANCH  10  17
BRANCH  11  16
ATOM     16  C   UNL     1       0.089   3.845  25.759  0.00  0.00    +0.124 C 
BRANCH  16   6
ATOM      1  O   UNL     1       1.056   2.001  23.864  0.00  0.00    -0.253 OA
ATOM      3  O   UNL     1      -0.488  -2.519  25.154  0.00  0.00    -0.377 OA
ATOM      6  N   UNL     1      -0.264   2.444  25.688  0.00  0.00    -0.298 N 
ATOM      8  N   UNL     1      -0.184   0.265  24.775  0.00  0.00    -0.281 N 
ATOM     21  C   UNL     1       0.260   1.598  24.718  0.00  0.00    +0.302 C 
ATOM     23  C   UNL     1       0.312  -0.695  23.786  0.00  0.00    +0.137 C 
ATOM     24  C   UNL     1      -1.237  -0.261  25.655  0.00  0.00    +0.137 C 
ATOM     25  C   UNL     1       0.647  -2.026  24.439  0.00  0.00    +0.179 C 
ATOM     26  C   UNL     1      -0.848  -1.627  26.209  0.00  0.00    +0.179 C 
ATOM     30  H   UNL     1      -0.914   2.114  26.386  0.00  0.00    +0.150 HD
ENDBRANCH  16   6
ENDBRANCH  11  16
TORSDOF 4
ENDMDL
MODEL 9
REMARK VINA RESULT:       4.0      2.407      6.029
REMARK  Name = 40779317
REMARK  5 active torsions:
REMARK  status: ('A' for Active; 'I' for Inactive)
REMARK    1  A    between atoms: N_5  and  C_20
REMARK    2  A    between atoms: N_6  and  C_16
REMARK    3  A    between atoms: C_10  and  C_17
REMARK    4  A    between atoms: C_11  and  C_16
REMARK    5  A    between atoms: C_19  and  C_22
REMARK                            x       y       z     vdW  Elec       q    Type
REMARK                         _______ _______ _______ _____ _____    ______ ____
ROOT
ATOM      4  N   UNL     1      -2.783  -2.279  23.862  0.00  0.00    -0.297 NA
ATOM      9  C   UNL     1      -2.404  -1.086  26.146  0.00  0.00    +0.002 C 
ATOM     10  C   UNL     1      -3.493  -0.347  25.322  0.00  0.00    +0.055 C 
ATOM     11  C   UNL     1      -1.332  -2.045  24.079  0.00  0.00    +0.074 C 
ATOM     12  C   UNL     1      -1.101  -1.159  25.323  0.00  0.00    +0.024 C 
ATOM     13  C   UNL     1      -2.900  -2.536  26.341  0.00  0.00    +0.019 C 
ATOM     14  C   UNL     1      -3.517  -0.989  23.906  0.00  0.00    +0.094 C 
ATOM     15  C   UNL     1      -3.277  -3.129  24.972  0.00  0.00    +0.085 C 
ENDROOT
BRANCH  10  17
ATOM      5  N   UNL     1      -4.557   1.958  25.335  0.00  0.00    -0.270 N 
ATOM      7  N   UNL     1      -4.299   3.275  25.266  0.00  0.00    -0.168 NA
ATOM     17  C   UNL     1      -3.442   1.173  25.265  0.00  0.00    +0.044 A 
ATOM     18  C   UNL     1      -2.382   2.038  25.142  0.00  0.00    +0.056 A 
ATOM     19  C   UNL     1      -2.969   3.317  25.149  0.00  0.00    +0.128 A 
ATOM     20  C   UNL     1      -5.924   1.514  25.470  0.00  0.00    +0.172 C 
BRANCH  19  22
ATOM      2  O   UNL     1      -2.819   5.818  25.157  0.00  0.00    -0.461 OA
ATOM     22  C   UNL     1      -2.241   4.594  25.042  0.00  0.00    +0.155 A 
ATOM     27  C   UNL     1      -0.889   4.718  24.813  0.00  0.00    +0.051 A 
ATOM     28  C   UNL     1      -0.621   6.108  24.786  0.00  0.00    +0.042 A 
ATOM     29  C   UNL     1      -1.827   6.734  24.999  0.00  0.00    +0.196 A 
ENDBRANCH  19  22
ENDBRANCH  10  17
BRANCH  11  16
ATOM     16  C   UNL     1      -0.641  -1.474  22.837  0.00  0.00    +0.124 C 
BRANCH  16   6
ATOM      1  O   UNL     1       1.023   0.723  22.268  0.00  0.00    -0.253 OA
ATOM      3  O   UNL     1       5.576  -0.298  23.914  0.00  0.00    -0.377 OA
ATOM      6  N   UNL     1       0.793  -1.434  23.018  0.00  0.00    -0.298 N 
ATOM      8  N   UNL     1       2.928  -0.421  22.935  0.00  0.00    -0.281 N 
ATOM     21  C   UNL     1       1.545  -0.306  22.711  0.00  0.00    +0.302 C 
ATOM     23  C   UNL     1       3.798   0.718  22.632  0.00  0.00    +0.137 C 
ATOM     24  C   UNL     1       3.645  -1.648  23.313  0.00  0.00    +0.137 C 
ATOM     25  C   UNL     1       4.841   0.911  23.721  0.00  0.00    +0.179 C 
ATOM     26  C   UNL     1       4.716  -1.349  24.356  0.00  0.00    +0.179 C 
ATOM     30  H   UNL     1       1.219  -2.273  23.381  0.00  0.00    +0.150 HD
ENDBRANCH  16   6
ENDBRANCH  11  16
TORSDOF 4
ENDMDL
MODEL 10
REMARK VINA RESULT:       4.0      2.142      5.608
REMARK  Name = 40779317
REMARK  5 active torsions:
REMARK  status: ('A' for Active; 'I' for Inactive)
REMARK    1  A    between atoms: N_5  and  C_20
REMARK    2  A    between atoms: N_6  and  C_16
REMARK    3  A    between atoms: C_10  and  C_17
REMARK    4  A    between atoms: C_11  and  C_16
REMARK    5  A    between atoms: C_19  and  C_22
REMARK                            x       y       z     vdW  Elec       q    Type
REMARK                         _______ _______ _______ _____ _____    ______ ____
ROOT
ATOM      4  N   UNL     1      -2.431  -2.349  23.845  0.00  0.00    -0.297 NA
ATOM      9  C   UNL     1      -4.526  -1.181  24.861  0.00  0.00    +0.002 C 
ATOM     10  C   UNL     1      -3.839  -0.255  23.821  0.00  0.00    +0.055 C 
ATOM     11  C   UNL     1      -2.388  -2.428  25.329  0.00  0.00    +0.074 C 
ATOM     12  C   UNL     1      -3.507  -1.567  25.954  0.00  0.00    +0.024 C 
ATOM     13  C   UNL     1      -4.908  -2.480  24.119  0.00  0.00    +0.019 C 
ATOM     14  C   UNL     1      -2.498  -0.931  23.414  0.00  0.00    +0.094 C 
ATOM     15  C   UNL     1      -3.669  -3.029  23.391  0.00  0.00    +0.085 C 
ENDROOT
BRANCH  10  17
ATOM      5  N   UNL     1      -4.684   2.003  24.614  0.00  0.00    -0.270 N 
ATOM      7  N   UNL     1      -4.320   3.272  24.870  0.00  0.00    -0.168 NA
ATOM     17  C   UNL     1      -3.660   1.215  24.175  0.00  0.00    +0.044 A 
ATOM     18  C   UNL     1      -2.551   2.024  24.142  0.00  0.00    +0.056 A 
ATOM     19  C   UNL     1      -3.016   3.277  24.581  0.00  0.00    +0.128 A 
ATOM     20  C   UNL     1      -6.059   1.610  24.815  0.00  0.00    +0.172 C 
BRANCH  19  22
ATOM      2  O   UNL     1      -2.700   5.754  24.788  0.00  0.00    -0.461 OA
ATOM     22  C   UNL     1      -2.196   4.494  24.724  0.00  0.00    +0.155 A 
ATOM     27  C   UNL     1      -0.823   4.517  24.811  0.00  0.00    +0.051 A 
ATOM     28  C   UNL     1      -0.460   5.879  24.936  0.00  0.00    +0.042 A 
ATOM     29  C   UNL     1      -1.637   6.592  24.916  0.00  0.00    +0.196 A 
ENDBRANCH  19  22
ENDBRANCH  10  17
BRANCH  11  16
ATOM     16  C   UNL     1      -1.010  -2.068  25.891  0.00  0.00    +0.124 C 
BRANCH  16   6
ATOM      1  O   UNL     1      -0.308   0.632  25.519  0.00  0.00    -0.253 OA
ATOM      3  O   UNL     1       3.160   0.873  21.998  0.00  0.00    -0.377 OA
ATOM      6  N   UNL     1      -0.146  -1.557  24.851  0.00  0.00    -0.298 N 
ATOM      8  N   UNL     1       1.002   0.138  23.670  0.00  0.00    -0.281 N 
ATOM     21  C   UNL     1       0.153  -0.205  24.735  0.00  0.00    +0.302 C 
ATOM     23  C   UNL     1       1.364   1.544  23.469  0.00  0.00    +0.137 C 
ATOM     24  C   UNL     1       1.469  -0.765  22.608  0.00  0.00    +0.137 C 
ATOM     25  C   UNL     1       2.839   1.684  23.130  0.00  0.00    +0.179 C 
ATOM     26  C   UNL     1       2.938  -0.508  22.285  0.00  0.00    +0.179 C 
ATOM     30  H   UNL     1       0.232  -2.241  24.211  0.00  0.00    +0.150 HD
ENDBRANCH  16   6
ENDBRANCH  11  16
TORSDOF 4
ENDMDL
