MODEL 1
REMARK VINA RESULT:       4.3      0.000      0.000
REMARK  Name = 7673830
REMARK  4 active torsions:
REMARK  status: ('A' for Active; 'I' for Inactive)
REMARK    1  A    between atoms: S_1  and  N_5
REMARK    2  A    between atoms: S_1  and  C_19
REMARK    3  A    between atoms: C_17  and  C_20
REMARK    4  A    between atoms: C_28  and  C_31
REMARK                            x       y       z     vdW  Elec       q    Type
REMARK                         _______ _______ _______ _____ _____    ______ ____
ROOT
ATOM      4  O   UNL     1       0.319   1.805  25.966  0.00  0.00    -0.267 OA
ATOM      5  N   UNL     1      -4.548   2.596  25.258  0.00  0.00    -0.176 NA
ATOM      6  N   UNL     1      -1.428   2.900  24.875  0.00  0.00    -0.311 N 
ATOM      8  C   UNL     1      -3.078   4.428  26.102  0.00  0.00    +0.025 C 
ATOM      9  C   UNL     1      -3.314   4.071  23.683  0.00  0.00    +0.052 C 
ATOM     10  C   UNL     1      -3.193   5.144  24.762  0.00  0.00    +0.017 C 
ATOM     11  C   UNL     1      -4.325   3.569  26.365  0.00  0.00    +0.114 C 
ATOM     12  C   UNL     1      -4.594   3.248  23.915  0.00  0.00    +0.119 C 
ATOM     13  C   UNL     1      -1.785   3.603  26.115  0.00  0.00    +0.130 C 
ATOM     14  C   UNL     1      -2.097   3.163  23.677  0.00  0.00    +0.026 A 
ATOM     15  C   UNL     1      -1.680   2.598  22.533  0.00  0.00    +0.022 A 
ATOM     16  C   UNL     1      -0.316   2.036  24.936  0.00  0.00    +0.259 A 
ATOM     17  C   UNL     1       0.102   1.392  23.643  0.00  0.00    +0.047 A 
ATOM     18  C   UNL     1      -0.563   1.695  22.519  0.00  0.00    +0.015 A 
ENDROOT
BRANCH  17  20
ATOM     20  C   UNL     1       1.197   0.475  23.607  0.00  0.00    -0.011 A 
ATOM     23  C   UNL     1       2.505   0.951  23.507  0.00  0.00    +0.027 A 
ATOM     24  C   UNL     1       0.959  -0.898  23.670  0.00  0.00    +0.009 A 
ATOM     28  C   UNL     1       3.573   0.055  23.470  0.00  0.00    +0.052 A 
ATOM     29  C   UNL     1       2.027  -1.795  23.633  0.00  0.00    +0.002 A 
ATOM     30  C   UNL     1       3.335  -1.318  23.533  0.00  0.00    +0.019 A 
BRANCH  28  31
ATOM      7  N   UNL     1       6.001   0.939  23.286  0.00  0.00    -0.191 NA
ATOM     31  C   UNL     1       4.913   0.543  23.369  0.00  0.00    +0.099 C 
ENDBRANCH  28  31
ENDBRANCH  17  20
BRANCH   5   1
ATOM      1  S   UNL     1      -5.748   1.410  25.545  0.00  0.00    +0.061 S 
ATOM      2  O   UNL     1      -6.765   1.505  24.520  0.00  0.00    -0.153 OA
ATOM      3  O   UNL     1      -6.102   1.429  26.949  0.00  0.00    -0.153 OA
BRANCH   1  19
ATOM     19  C   UNL     1      -4.813  -0.057  25.243  0.00  0.00    +0.105 A 
ATOM     21  C   UNL     1      -3.907  -0.492  26.196  0.00  0.00    +0.028 A 
ATOM     22  C   UNL     1      -4.998  -0.746  24.056  0.00  0.00    +0.028 A 
ATOM     25  C   UNL     1      -3.167  -1.650  25.956  0.00  0.00    +0.002 A 
ATOM     26  C   UNL     1      -4.258  -1.903  23.815  0.00  0.00    +0.002 A 
ATOM     27  C   UNL     1      -3.343  -2.355  24.765  0.00  0.00    +0.000 A 
ENDBRANCH   1  19
ENDBRANCH   5   1
TORSDOF 4
ENDMDL
MODEL 2
REMARK VINA RESULT:       6.9      1.745      4.295
REMARK  Name = 7673830
REMARK  4 active torsions:
REMARK  status: ('A' for Active; 'I' for Inactive)
REMARK    1  A    between atoms: S_1  and  N_5
REMARK    2  A    between atoms: S_1  and  C_19
REMARK    3  A    between atoms: C_17  and  C_20
REMARK    4  A    between atoms: C_28  and  C_31
REMARK                            x       y       z     vdW  Elec       q    Type
REMARK                         _______ _______ _______ _____ _____    ______ ____
ROOT
ATOM      4  O   UNL     1      -0.502  -0.290  22.092  0.00  0.00    -0.267 OA
ATOM      5  N   UNL     1      -4.361   0.793  25.051  0.00  0.00    -0.176 NA
ATOM      6  N   UNL     1      -1.908  -0.815  23.877  0.00  0.00    -0.311 N 
ATOM      8  C   UNL     1      -4.419  -1.225  23.581  0.00  0.00    +0.025 C 
ATOM      9  C   UNL     1      -3.415  -1.374  25.818  0.00  0.00    +0.052 C 
ATOM     10  C   UNL     1      -4.274  -2.124  24.803  0.00  0.00    +0.017 C 
ATOM     11  C   UNL     1      -5.106   0.097  23.962  0.00  0.00    +0.114 C 
ATOM     12  C   UNL     1      -4.130  -0.079  26.241  0.00  0.00    +0.119 C 
ATOM     13  C   UNL     1      -3.036  -1.007  22.956  0.00  0.00    +0.130 C 
ATOM     14  C   UNL     1      -2.045  -1.057  25.247  0.00  0.00    +0.026 A 
ATOM     15  C   UNL     1      -0.974  -0.989  26.055  0.00  0.00    +0.022 A 
ATOM     16  C   UNL     1      -0.668  -0.480  23.298  0.00  0.00    +0.259 A 
ATOM     17  C   UNL     1       0.503  -0.376  24.237  0.00  0.00    +0.047 A 
ATOM     18  C   UNL     1       0.320  -0.638  25.538  0.00  0.00    +0.015 A 
ENDROOT
BRANCH  17  20
ATOM     20  C   UNL     1       1.795  -0.009  23.751  0.00  0.00    -0.011 A 
ATOM     23  C   UNL     1       2.879  -0.870  23.927  0.00  0.00    +0.027 A 
ATOM     24  C   UNL     1       1.975   1.212  23.100  0.00  0.00    +0.009 A 
ATOM     28  C   UNL     1       4.140  -0.511  23.454  0.00  0.00    +0.052 A 
ATOM     29  C   UNL     1       3.237   1.572  22.627  0.00  0.00    +0.002 A 
ATOM     30  C   UNL     1       4.320   0.710  22.804  0.00  0.00    +0.019 A 
BRANCH  28  31
ATOM      7  N   UNL     1       6.152  -2.110  23.782  0.00  0.00    -0.191 NA
ATOM     31  C   UNL     1       5.250  -1.393  23.635  0.00  0.00    +0.099 C 
ENDBRANCH  28  31
ENDBRANCH  17  20
BRANCH   5   1
ATOM      1  S   UNL     1      -4.869   2.391  25.390  0.00  0.00    +0.061 S 
ATOM      2  O   UNL     1      -5.297   2.469  26.771  0.00  0.00    -0.153 OA
ATOM      3  O   UNL     1      -5.727   2.850  24.318  0.00  0.00    -0.153 OA
BRANCH   1  19
ATOM     19  C   UNL     1      -3.329   3.242  25.253  0.00  0.00    +0.105 A 
ATOM     21  C   UNL     1      -3.276   4.597  25.532  0.00  0.00    +0.028 A 
ATOM     22  C   UNL     1      -2.199   2.540  24.867  0.00  0.00    +0.028 A 
ATOM     25  C   UNL     1      -2.059   5.270  25.422  0.00  0.00    +0.002 A 
ATOM     26  C   UNL     1      -0.982   3.212  24.757  0.00  0.00    +0.002 A 
ATOM     27  C   UNL     1      -0.911   4.577  25.034  0.00  0.00    +0.000 A 
ENDBRANCH   1  19
ENDBRANCH   5   1
TORSDOF 4
ENDMDL
MODEL 3
REMARK VINA RESULT:       8.2      3.169      4.495
REMARK  Name = 7673830
REMARK  4 active torsions:
REMARK  status: ('A' for Active; 'I' for Inactive)
REMARK    1  A    between atoms: S_1  and  N_5
REMARK    2  A    between atoms: S_1  and  C_19
REMARK    3  A    between atoms: C_17  and  C_20
REMARK    4  A    between atoms: C_28  and  C_31
REMARK                            x       y       z     vdW  Elec       q    Type
REMARK                         _______ _______ _______ _____ _____    ______ ____
ROOT
ATOM      4  O   UNL     1      -1.872   3.376  27.766  0.00  0.00    -0.267 OA
ATOM      5  N   UNL     1      -3.832   0.841  23.951  0.00  0.00    -0.176 NA
ATOM      6  N   UNL     1      -2.179   3.059  25.475  0.00  0.00    -0.311 N 
ATOM      8  C   UNL     1      -4.477   3.218  24.355  0.00  0.00    +0.025 C 
ATOM      9  C   UNL     1      -2.494   2.707  23.000  0.00  0.00    +0.052 C 
ATOM     10  C   UNL     1      -3.691   3.646  23.122  0.00  0.00    +0.017 C 
ATOM     11  C   UNL     1      -4.970   1.770  24.207  0.00  0.00    +0.114 C 
ATOM     12  C   UNL     1      -2.989   1.264  22.794  0.00  0.00    +0.119 C 
ATOM     13  C   UNL     1      -3.599   3.413  25.598  0.00  0.00    +0.130 C 
ATOM     14  C   UNL     1      -1.606   2.789  24.229  0.00  0.00    +0.026 A 
ATOM     15  C   UNL     1      -0.284   2.582  24.124  0.00  0.00    +0.022 A 
ATOM     16  C   UNL     1      -1.410   3.111  26.655  0.00  0.00    +0.259 A 
ATOM     17  C   UNL     1       0.062   2.838  26.506  0.00  0.00    +0.047 A 
ATOM     18  C   UNL     1       0.562   2.604  25.285  0.00  0.00    +0.015 A 
ENDROOT
BRANCH  17  20
ATOM     20  C   UNL     1       0.920   2.834  27.649  0.00  0.00    -0.011 A 
ATOM     23  C   UNL     1       0.392   2.605  28.920  0.00  0.00    +0.027 A 
ATOM     24  C   UNL     1       2.288   3.062  27.494  0.00  0.00    +0.009 A 
ATOM     28  C   UNL     1       1.230   2.603  30.034  0.00  0.00    +0.052 A 
ATOM     29  C   UNL     1       3.127   3.060  28.609  0.00  0.00    +0.002 A 
ATOM     30  C   UNL     1       2.598   2.831  29.879  0.00  0.00    +0.019 A 
BRANCH  28  31
ATOM      7  N   UNL     1       0.250   2.176  32.394  0.00  0.00    -0.191 NA
ATOM     31  C   UNL     1       0.689   2.368  31.336  0.00  0.00    +0.099 C 
ENDBRANCH  28  31
ENDBRANCH  17  20
BRANCH   5   1
ATOM      1  S   UNL     1      -4.208  -0.827  24.022  0.00  0.00    +0.061 S 
ATOM      2  O   UNL     1      -4.398  -1.328  22.678  0.00  0.00    -0.153 OA
ATOM      3  O   UNL     1      -5.211  -1.041  25.045  0.00  0.00    -0.153 OA
BRANCH   1  19
ATOM     19  C   UNL     1      -2.676  -1.465  24.624  0.00  0.00    +0.105 A 
ATOM     21  C   UNL     1      -1.902  -0.686  25.467  0.00  0.00    +0.028 A 
ATOM     22  C   UNL     1      -2.273  -2.734  24.242  0.00  0.00    +0.028 A 
ATOM     25  C   UNL     1      -0.691  -1.189  25.941  0.00  0.00    +0.002 A 
ATOM     26  C   UNL     1      -1.063  -3.238  24.716  0.00  0.00    +0.002 A 
ATOM     27  C   UNL     1      -0.271  -2.466  25.565  0.00  0.00    +0.000 A 
ENDBRANCH   1  19
ENDBRANCH   5   1
TORSDOF 4
ENDMDL
