MODEL 1
REMARK VINA RESULT:       0.4      0.000      0.000
REMARK  Name = 45361538
REMARK  11 active torsions:
REMARK  status: ('A' for Active; 'I' for Inactive)
REMARK    1  A    between atoms: O_1  and  C_13
REMARK    2  A    between atoms: N_5  and  C_17
REMARK    3  A    between atoms: N_6  and  C_27
REMARK    4  A    between atoms: N_8  and  C_28
REMARK    5  A    between atoms: C_10  and  C_20
REMARK    6  A    between atoms: C_12  and  C_22
REMARK    7  A    between atoms: C_16  and  C_21
REMARK    8  A    between atoms: C_21  and  C_23
REMARK    9  A    between atoms: C_21  and  C_24
REMARK   10  A    between atoms: C_25  and  C_26
REMARK   11  A    between atoms: C_27  and  C_28
REMARK                            x       y       z     vdW  Elec       q    Type
REMARK                         _______ _______ _______ _____ _____    ______ ____
ROOT
ATOM     10  C   UNL     1      -2.991  -1.345  24.853  0.00  0.00    -0.027 C 
ATOM     11  C   UNL     1      -2.629  -0.015  24.110  0.00  0.00    +0.028 C 
ATOM     12  C   UNL     1      -1.086   0.269  24.195  0.00  0.00    +0.012 C 
ATOM     13  C   UNL     1      -3.551   1.153  24.564  0.00  0.00    +0.122 C 
ATOM     14  C   UNL     1      -4.493  -1.655  24.654  0.00  0.00    +0.007 C 
ATOM     15  C   UNL     1      -2.184  -2.507  24.228  0.00  0.00    +0.009 C 
ATOM     16  C   UNL     1      -5.053   0.799  24.461  0.00  0.00    +0.029 C 
ATOM     17  C   UNL     1      -0.283  -0.937  23.633  0.00  0.00    +0.076 C 
ATOM     18  C   UNL     1      -5.400  -0.529  25.133  0.00  0.00    +0.007 C 
ATOM     19  C   UNL     1      -0.680  -2.274  24.257  0.00  0.00    +0.023 C 
ATOM     20  C   UNL     1      -2.693  -1.277  26.372  0.00  0.00    +0.011 C 
ATOM     22  C   UNL     1      -0.655   1.550  23.461  0.00  0.00    +0.010 C 
ENDROOT
BRANCH  17   5
ATOM      3  O   UNL     1       1.613  -0.249  21.589  0.00  0.00    -0.268 OA
ATOM      5  N   UNL     1       1.143  -0.758  23.802  0.00  0.00    -0.307 N 
ATOM     25  C   UNL     1       1.978  -0.425  22.749  0.00  0.00    +0.264 C 
ATOM     36  H   UNL     1       1.548  -0.940  24.716  0.00  0.00    +0.149 HD
BRANCH  25  26
ATOM      7  N   UNL     1       4.001  -1.377  23.651  0.00  0.00    -0.247 NA
ATOM      9  N   UNL     1       5.430   0.977  23.122  0.00  0.00    -0.259 NA
ATOM     26  C   UNL     1       3.420  -0.303  23.082  0.00  0.00    +0.143 A 
ATOM     29  C   UNL     1       4.122   0.854  22.822  0.00  0.00    +0.143 A 
ATOM     32  C   UNL     1       5.309  -1.254  23.951  0.00  0.00    +0.131 A 
ATOM     35  C   UNL     1       6.011  -0.098  23.692  0.00  0.00    +0.130 A 
ENDBRANCH  25  26
ENDBRANCH  17   5
BRANCH  13   1
ATOM      1  O   UNL     1      -3.338   2.284  23.718  0.00  0.00    -0.391 OA
ATOM     37  H   UNL     1      -4.174   2.778  23.660  0.00  0.00    +0.210 HD
ENDBRANCH  13   1
BRANCH  16  21
ATOM     21  C   UNL     1      -5.939   1.911  25.034  0.00  0.00    +0.077 C 
ATOM     23  C   UNL     1      -7.177   2.097  24.162  0.00  0.00    +0.017 C 
BRANCH  21  24
ATOM      2  O   UNL     1      -4.988   3.979  24.204  0.00  0.00    -0.276 OA
ATOM      6  N   UNL     1      -4.618   3.399  26.419  0.00  0.00    -0.314 N 
ATOM     24  C   UNL     1      -5.141   3.206  25.148  0.00  0.00    +0.216 C 
ATOM     38  H   UNL     1      -4.777   2.696  27.136  0.00  0.00    +0.149 HD
BRANCH   6  27
ATOM     27  C   UNL     1      -3.823   4.552  26.771  0.00  0.00    +0.119 C 
BRANCH  27  28
ATOM     28  C   UNL     1      -2.908   4.960  25.627  0.00  0.00    +0.103 C 
BRANCH  28   8
ATOM      4  O   UNL     1       0.777   2.999  26.062  0.00  0.00    -0.377 OA
ATOM      8  N   UNL     1      -1.825   3.991  25.472  0.00  0.00    -0.297 NA
ATOM     30  C   UNL     1      -0.616   4.640  24.944  0.00  0.00    +0.112 C 
ATOM     31  C   UNL     1      -1.525   3.335  26.752  0.00  0.00    +0.112 C 
ATOM     33  C   UNL     1       0.502   3.612  24.801  0.00  0.00    +0.175 C 
ATOM     34  C   UNL     1      -0.384   2.338  26.568  0.00  0.00    +0.175 C 
ENDBRANCH  28   8
ENDBRANCH  27  28
ENDBRANCH   6  27
ENDBRANCH  21  24
ENDBRANCH  16  21
TORSDOF 8
ENDMDL
