MODEL 1
REMARK VINA RESULT:      -3.6      0.000      0.000
REMARK  Name = 56774078
REMARK  9 active torsions:
REMARK  status: ('A' for Active; 'I' for Inactive)
REMARK    1  A    between atoms: O_3  and  C_20
REMARK    2  A    between atoms: O_3  and  C_24
REMARK    3  A    between atoms: N_4  and  C_8
REMARK    4  A    between atoms: C_6  and  C_11
REMARK    5  A    between atoms: C_6  and  C_12
REMARK    6  A    between atoms: C_7  and  C_10
REMARK    7  A    between atoms: C_10  and  C_13
REMARK    8  A    between atoms: C_14  and  C_16
REMARK    9  A    between atoms: C_17  and  C_20
REMARK                            x       y       z     vdW  Elec       q    Type
REMARK                         _______ _______ _______ _____ _____    ______ ____
ROOT
ATOM      6  C   UNL     1      -0.624   3.164  24.745  0.00  0.00    -0.013 C 
ATOM      7  C   UNL     1      -1.998   2.625  24.293  0.00  0.00    +0.004 C 
ATOM      8  C   UNL     1      -0.030   2.475  23.499  0.00  0.00    +0.079 C 
ATOM      9  C   UNL     1      -1.231   1.507  23.555  0.00  0.00    +0.027 C 
ATOM     11  C   UNL     1      -0.464   4.673  24.714  0.00  0.00    +0.013 C 
ATOM     12  C   UNL     1      -0.174   2.628  26.085  0.00  0.00    +0.013 C 
ENDROOT
BRANCH   8   4
ATOM      2  O   UNL     1       0.948   0.140  22.127  0.00  0.00    -0.270 OA
ATOM      4  N   UNL     1       1.274   1.812  23.696  0.00  0.00    -0.308 N 
ATOM     14  C   UNL     1       1.675   0.674  22.984  0.00  0.00    +0.244 C 
ATOM     25  H   UNL     1       1.887   2.172  24.422  0.00  0.00    +0.149 HD
BRANCH  14  16
ATOM     16  C   UNL     1       2.997   0.142  23.270  0.00  0.00    +0.037 A 
ATOM     18  C   UNL     1       3.152  -1.204  23.599  0.00  0.00    +0.013 A 
ATOM     19  C   UNL     1       4.112   0.978  23.212  0.00  0.00    +0.013 A 
ATOM     21  C   UNL     1       4.421  -1.714  23.873  0.00  0.00    +0.001 A 
ATOM     22  C   UNL     1       5.381   0.469  23.485  0.00  0.00    +0.001 A 
ATOM     23  C   UNL     1       5.536  -0.877  23.815  0.00  0.00    +0.000 A 
ENDBRANCH  14  16
ENDBRANCH   8   4
BRANCH   7  10
ATOM     10  C   UNL     1      -2.940   2.142  25.370  0.00  0.00    +0.063 C 
BRANCH  10  13
ATOM      1  O   UNL     1      -4.622  -0.853  24.263  0.00  0.00    -0.357 OA
ATOM      5  N   UNL     1      -4.492   0.530  24.338  0.00  0.00    -0.083 NA
ATOM     13  C   UNL     1      -3.398   0.733  25.077  0.00  0.00    +0.084 A 
ATOM     15  C   UNL     1      -2.802  -0.470  25.492  0.00  0.00    +0.073 A 
ATOM     17  C   UNL     1      -3.610  -1.437  24.954  0.00  0.00    +0.163 A 
BRANCH  17  20
ATOM     20  C   UNL     1      -3.595  -2.904  24.978  0.00  0.00    +0.236 C 
BRANCH  20   3
ATOM      3  O   UNL     1      -2.516  -3.402  24.182  0.00  0.00    -0.375 OA
ATOM     24  C   UNL     1      -1.390  -2.544  24.249  0.00  0.00    +0.194 C 
ENDBRANCH  20   3
ENDBRANCH  17  20
ENDBRANCH  10  13
ENDBRANCH   7  10
TORSDOF 6
ENDMDL
MODEL 2
REMARK VINA RESULT:      -3.2      1.987      3.627
REMARK  Name = 56774078
REMARK  9 active torsions:
REMARK  status: ('A' for Active; 'I' for Inactive)
REMARK    1  A    between atoms: O_3  and  C_20
REMARK    2  A    between atoms: O_3  and  C_24
REMARK    3  A    between atoms: N_4  and  C_8
REMARK    4  A    between atoms: C_6  and  C_11
REMARK    5  A    between atoms: C_6  and  C_12
REMARK    6  A    between atoms: C_7  and  C_10
REMARK    7  A    between atoms: C_10  and  C_13
REMARK    8  A    between atoms: C_14  and  C_16
REMARK    9  A    between atoms: C_17  and  C_20
REMARK                            x       y       z     vdW  Elec       q    Type
REMARK                         _______ _______ _______ _____ _____    ______ ____
ROOT
ATOM      6  C   UNL     1      -1.410   0.500  23.882  0.00  0.00    -0.013 C 
ATOM      7  C   UNL     1      -2.470  -0.585  24.164  0.00  0.00    +0.004 C 
ATOM      8  C   UNL     1      -0.533  -0.620  23.286  0.00  0.00    +0.079 C 
ATOM      9  C   UNL     1      -1.311  -1.604  24.186  0.00  0.00    +0.027 C 
ATOM     11  C   UNL     1      -1.797   1.551  22.857  0.00  0.00    +0.013 C 
ATOM     12  C   UNL     1      -0.883   1.171  25.130  0.00  0.00    +0.013 C 
ENDROOT
BRANCH   8   4
ATOM      2  O   UNL     1       1.629  -0.253  21.419  0.00  0.00    -0.270 OA
ATOM      4  N   UNL     1       0.907  -0.541  23.601  0.00  0.00    -0.308 N 
ATOM     14  C   UNL     1       1.899  -0.361  22.629  0.00  0.00    +0.244 C 
ATOM     25  H   UNL     1       1.192  -0.678  24.567  0.00  0.00    +0.149 HD
BRANCH  14  16
ATOM     16  C   UNL     1       3.276  -0.281  23.091  0.00  0.00    +0.037 A 
ATOM     18  C   UNL     1       3.996   0.903  22.938  0.00  0.00    +0.013 A 
ATOM     19  C   UNL     1       3.875  -1.390  23.690  0.00  0.00    +0.013 A 
ATOM     21  C   UNL     1       5.316   0.979  23.382  0.00  0.00    +0.001 A 
ATOM     22  C   UNL     1       5.194  -1.314  24.135  0.00  0.00    +0.001 A 
ATOM     23  C   UNL     1       5.915  -0.130  23.981  0.00  0.00    +0.000 A 
ENDBRANCH  14  16
ENDBRANCH   8   4
BRANCH   7  10
ATOM     10  C   UNL     1      -3.244  -0.478  25.456  0.00  0.00    +0.063 C 
BRANCH  10  13
ATOM      1  O   UNL     1      -6.145   1.611  24.956  0.00  0.00    -0.357 OA
ATOM      5  N   UNL     1      -5.480   0.391  24.893  0.00  0.00    -0.083 NA
ATOM     13  C   UNL     1      -4.258   0.638  25.372  0.00  0.00    +0.084 A 
ATOM     15  C   UNL     1      -4.094   1.982  25.749  0.00  0.00    +0.073 A 
ATOM     17  C   UNL     1      -5.309   2.550  25.468  0.00  0.00    +0.163 A 
BRANCH  17  20
ATOM     20  C   UNL     1      -5.853   3.906  25.605  0.00  0.00    +0.236 C 
BRANCH  20   3
ATOM      3  O   UNL     1      -4.884   4.874  25.192  0.00  0.00    -0.375 OA
ATOM     24  C   UNL     1      -3.987   4.328  24.240  0.00  0.00    +0.194 C 
ENDBRANCH  20   3
ENDBRANCH  17  20
ENDBRANCH  10  13
ENDBRANCH   7  10
TORSDOF 6
ENDMDL
MODEL 3
REMARK VINA RESULT:      -2.9     15.627     17.937
REMARK  Name = 56774078
REMARK  9 active torsions:
REMARK  status: ('A' for Active; 'I' for Inactive)
REMARK    1  A    between atoms: O_3  and  C_20
REMARK    2  A    between atoms: O_3  and  C_24
REMARK    3  A    between atoms: N_4  and  C_8
REMARK    4  A    between atoms: C_6  and  C_11
REMARK    5  A    between atoms: C_6  and  C_12
REMARK    6  A    between atoms: C_7  and  C_10
REMARK    7  A    between atoms: C_10  and  C_13
REMARK    8  A    between atoms: C_14  and  C_16
REMARK    9  A    between atoms: C_17  and  C_20
REMARK                            x       y       z     vdW  Elec       q    Type
REMARK                         _______ _______ _______ _____ _____    ______ ____
ROOT
ATOM      6  C   UNL     1      -3.911  -9.391  10.594  0.00  0.00    -0.013 C 
ATOM      7  C   UNL     1      -4.456  -9.942   9.260  0.00  0.00    +0.004 C 
ATOM      8  C   UNL     1      -4.422 -10.690  11.251  0.00  0.00    +0.079 C 
ATOM      9  C   UNL     1      -5.444 -10.781  10.098  0.00  0.00    +0.027 C 
ATOM     11  C   UNL     1      -2.403  -9.243  10.681  0.00  0.00    +0.013 C 
ATOM     12  C   UNL     1      -4.578  -8.109  11.038  0.00  0.00    +0.013 C 
ENDROOT
BRANCH   8   4
ATOM      2  O   UNL     1      -3.080 -10.707  13.798  0.00  0.00    -0.270 OA
ATOM      4  N   UNL     1      -5.043 -10.533  12.581  0.00  0.00    -0.308 N 
ATOM     14  C   UNL     1      -4.314 -10.553  13.778  0.00  0.00    +0.244 C 
ATOM     25  H   UNL     1      -6.055 -10.459  12.630  0.00  0.00    +0.149 HD
BRANCH  14  16
ATOM     16  C   UNL     1      -5.059 -10.365  15.012  0.00  0.00    +0.037 A 
ATOM     18  C   UNL     1      -6.419 -10.060  14.968  0.00  0.00    +0.013 A 
ATOM     19  C   UNL     1      -4.413 -10.492  16.242  0.00  0.00    +0.013 A 
ATOM     21  C   UNL     1      -7.133  -9.880  16.152  0.00  0.00    +0.001 A 
ATOM     22  C   UNL     1      -5.126 -10.313  17.427  0.00  0.00    +0.001 A 
ATOM     23  C   UNL     1      -6.487 -10.007  17.382  0.00  0.00    +0.000 A 
ENDBRANCH  14  16
ENDBRANCH   8   4
BRANCH   7  10
ATOM     10  C   UNL     1      -5.104  -8.956   8.316  0.00  0.00    +0.063 C 
BRANCH  10  13
ATOM      1  O   UNL     1      -8.530 -10.086   8.228  0.00  0.00    -0.357 OA
ATOM      5  N   UNL     1      -7.160 -10.300   8.123  0.00  0.00    -0.083 NA
ATOM     13  C   UNL     1      -6.606  -9.106   8.349  0.00  0.00    +0.084 A 
ATOM     15  C   UNL     1      -7.566  -8.110   8.599  0.00  0.00    +0.073 A 
ATOM     17  C   UNL     1      -8.759  -8.778   8.512  0.00  0.00    +0.163 A 
BRANCH  17  20
ATOM     20  C   UNL     1     -10.163  -8.375   8.658  0.00  0.00    +0.236 C 
BRANCH  20   3
ATOM      3  O   UNL     1     -10.292  -7.390   9.687  0.00  0.00    -0.375 OA
ATOM     24  C   UNL     1     -10.421  -6.089   9.138  0.00  0.00    +0.194 C 
ENDBRANCH  20   3
ENDBRANCH  17  20
ENDBRANCH  10  13
ENDBRANCH   7  10
TORSDOF 6
ENDMDL
MODEL 4
REMARK VINA RESULT:      -2.8      3.238      5.271
REMARK  Name = 56774078
REMARK  9 active torsions:
REMARK  status: ('A' for Active; 'I' for Inactive)
REMARK    1  A    between atoms: O_3  and  C_20
REMARK    2  A    between atoms: O_3  and  C_24
REMARK    3  A    between atoms: N_4  and  C_8
REMARK    4  A    between atoms: C_6  and  C_11
REMARK    5  A    between atoms: C_6  and  C_12
REMARK    6  A    between atoms: C_7  and  C_10
REMARK    7  A    between atoms: C_10  and  C_13
REMARK    8  A    between atoms: C_14  and  C_16
REMARK    9  A    between atoms: C_17  and  C_20
REMARK                            x       y       z     vdW  Elec       q    Type
REMARK                         _______ _______ _______ _____ _____    ______ ____
ROOT
ATOM      6  C   UNL     1      -0.198   2.812  25.935  0.00  0.00    -0.013 C 
ATOM      7  C   UNL     1      -0.201   3.996  24.946  0.00  0.00    +0.004 C 
ATOM      8  C   UNL     1       0.061   1.897  24.720  0.00  0.00    +0.079 C 
ATOM      9  C   UNL     1      -0.611   2.984  23.855  0.00  0.00    +0.027 C 
ATOM     11  C   UNL     1       0.942   2.792  26.938  0.00  0.00    +0.013 C 
ATOM     12  C   UNL     1      -1.515   2.618  26.652  0.00  0.00    +0.013 C 
ENDROOT
BRANCH   8   4
ATOM      2  O   UNL     1      -2.488   1.346  23.500  0.00  0.00    -0.270 OA
ATOM      4  N   UNL     1      -0.664   0.611  24.723  0.00  0.00    -0.308 N 
ATOM     14  C   UNL     1      -1.906   0.426  24.102  0.00  0.00    +0.244 C 
ATOM     25  H   UNL     1      -0.262  -0.162  25.247  0.00  0.00    +0.149 HD
BRANCH  14  16
ATOM     16  C   UNL     1      -2.492  -0.903  24.170  0.00  0.00    +0.037 A 
ATOM     18  C   UNL     1      -3.813  -1.105  23.771  0.00  0.00    +0.013 A 
ATOM     19  C   UNL     1      -1.731  -1.977  24.631  0.00  0.00    +0.013 A 
ATOM     21  C   UNL     1      -4.374  -2.380  23.835  0.00  0.00    +0.001 A 
ATOM     22  C   UNL     1      -2.291  -3.252  24.694  0.00  0.00    +0.001 A 
ATOM     23  C   UNL     1      -3.613  -3.454  24.297  0.00  0.00    +0.000 A 
ENDBRANCH  14  16
ENDBRANCH   8   4
BRANCH   7  10
ATOM     10  C   UNL     1      -1.200   5.102  25.192  0.00  0.00    +0.063 C 
BRANCH  10  13
ATOM      1  O   UNL     1      -4.412   3.970  23.999  0.00  0.00    -0.357 OA
ATOM      5  N   UNL     1      -3.128   4.464  23.797  0.00  0.00    -0.083 NA
ATOM     13  C   UNL     1      -2.609   4.586  25.022  0.00  0.00    +0.084 A 
ATOM     15  C   UNL     1      -3.509   4.190  26.026  0.00  0.00    +0.073 A 
ATOM     17  C   UNL     1      -4.627   3.811  25.330  0.00  0.00    +0.163 A 
BRANCH  17  20
ATOM     20  C   UNL     1      -5.943   3.295  25.725  0.00  0.00    +0.236 C 
BRANCH  20   3
ATOM      3  O   UNL     1      -6.221   2.071  25.039  0.00  0.00    -0.375 OA
ATOM     24  C   UNL     1      -5.401   1.017  25.516  0.00  0.00    +0.194 C 
ENDBRANCH  20   3
ENDBRANCH  17  20
ENDBRANCH  10  13
ENDBRANCH   7  10
TORSDOF 6
ENDMDL
MODEL 5
REMARK VINA RESULT:      -2.3      2.368      5.897
REMARK  Name = 56774078
REMARK  9 active torsions:
REMARK  status: ('A' for Active; 'I' for Inactive)
REMARK    1  A    between atoms: O_3  and  C_20
REMARK    2  A    between atoms: O_3  and  C_24
REMARK    3  A    between atoms: N_4  and  C_8
REMARK    4  A    between atoms: C_6  and  C_11
REMARK    5  A    between atoms: C_6  and  C_12
REMARK    6  A    between atoms: C_7  and  C_10
REMARK    7  A    between atoms: C_10  and  C_13
REMARK    8  A    between atoms: C_14  and  C_16
REMARK    9  A    between atoms: C_17  and  C_20
REMARK                            x       y       z     vdW  Elec       q    Type
REMARK                         _______ _______ _______ _____ _____    ______ ____
ROOT
ATOM      6  C   UNL     1      -3.649   3.819  24.396  0.00  0.00    -0.013 C 
ATOM      7  C   UNL     1      -2.841   4.530  25.502  0.00  0.00    +0.004 C 
ATOM      8  C   UNL     1      -4.197   2.890  25.500  0.00  0.00    +0.079 C 
ATOM      9  C   UNL     1      -2.915   3.209  26.298  0.00  0.00    +0.027 C 
ATOM     11  C   UNL     1      -4.734   4.649  23.735  0.00  0.00    +0.013 C 
ATOM     12  C   UNL     1      -2.786   3.168  23.339  0.00  0.00    +0.013 C 
ENDROOT
BRANCH   8   4
ATOM      2  O   UNL     1      -2.163   0.861  25.700  0.00  0.00    -0.270 OA
ATOM      4  N   UNL     1      -4.326   1.467  25.131  0.00  0.00    -0.308 N 
ATOM     14  C   UNL     1      -3.282   0.541  25.260  0.00  0.00    +0.244 C 
ATOM     25  H   UNL     1      -5.200   1.159  24.714  0.00  0.00    +0.149 HD
BRANCH  14  16
ATOM     16  C   UNL     1      -3.562  -0.833  24.876  0.00  0.00    +0.037 A 
ATOM     18  C   UNL     1      -3.011  -1.887  25.603  0.00  0.00    +0.013 A 
ATOM     19  C   UNL     1      -4.384  -1.097  23.780  0.00  0.00    +0.013 A 
ATOM     21  C   UNL     1      -3.280  -3.206  25.235  0.00  0.00    +0.001 A 
ATOM     22  C   UNL     1      -4.654  -2.415  23.412  0.00  0.00    +0.001 A 
ATOM     23  C   UNL     1      -4.102  -3.469  24.139  0.00  0.00    +0.000 A 
ENDBRANCH  14  16
ENDBRANCH   8   4
BRANCH   7  10
ATOM     10  C   UNL     1      -1.442   4.983  25.155  0.00  0.00    +0.063 C 
BRANCH  10  13
ATOM      1  O   UNL     1       0.788   2.186  25.634  0.00  0.00    -0.357 OA
ATOM      5  N   UNL     1       0.009   3.236  26.110  0.00  0.00    -0.083 NA
ATOM     13  C   UNL     1      -0.522   3.793  25.018  0.00  0.00    +0.084 A 
ATOM     15  C   UNL     1      -0.120   3.146  23.838  0.00  0.00    +0.073 A 
ATOM     17  C   UNL     1       0.702   2.143  24.280  0.00  0.00    +0.163 A 
BRANCH  17  20
ATOM     20  C   UNL     1       1.468   1.087  23.608  0.00  0.00    +0.236 C 
BRANCH  20   3
ATOM      3  O   UNL     1       0.583   0.137  23.008  0.00  0.00    -0.375 OA
ATOM     24  C   UNL     1       0.093  -0.785  23.967  0.00  0.00    +0.194 C 
ENDBRANCH  20   3
ENDBRANCH  17  20
ENDBRANCH  10  13
ENDBRANCH   7  10
TORSDOF 6
ENDMDL
MODEL 6
REMARK VINA RESULT:      -0.3     14.942     17.247
REMARK  Name = 56774078
REMARK  9 active torsions:
REMARK  status: ('A' for Active; 'I' for Inactive)
REMARK    1  A    between atoms: O_3  and  C_20
REMARK    2  A    between atoms: O_3  and  C_24
REMARK    3  A    between atoms: N_4  and  C_8
REMARK    4  A    between atoms: C_6  and  C_11
REMARK    5  A    between atoms: C_6  and  C_12
REMARK    6  A    between atoms: C_7  and  C_10
REMARK    7  A    between atoms: C_10  and  C_13
REMARK    8  A    between atoms: C_14  and  C_16
REMARK    9  A    between atoms: C_17  and  C_20
REMARK                            x       y       z     vdW  Elec       q    Type
REMARK                         _______ _______ _______ _____ _____    ______ ____
ROOT
ATOM      6  C   UNL     1      -2.088  -9.438  11.361  0.00  0.00    -0.013 C 
ATOM      7  C   UNL     1      -2.792  -9.921  10.076  0.00  0.00    +0.004 C 
ATOM      8  C   UNL     1      -2.581 -10.739  12.028  0.00  0.00    +0.079 C 
ATOM      9  C   UNL     1      -3.721 -10.751  10.987  0.00  0.00    +0.027 C 
ATOM     11  C   UNL     1      -0.575  -9.351  11.293  0.00  0.00    +0.013 C 
ATOM     12  C   UNL     1      -2.652  -8.148  11.913  0.00  0.00    +0.013 C 
ENDROOT
BRANCH   8   4
ATOM      2  O   UNL     1      -5.260 -10.140  12.897  0.00  0.00    -0.270 OA
ATOM      4  N   UNL     1      -3.052 -10.606  13.420  0.00  0.00    -0.308 N 
ATOM     14  C   UNL     1      -4.380 -10.310  13.759  0.00  0.00    +0.244 C 
ATOM     25  H   UNL     1      -2.366 -10.680  14.166  0.00  0.00    +0.149 HD
BRANCH  14  16
ATOM     16  C   UNL     1      -4.702 -10.229  15.174  0.00  0.00    +0.037 A 
ATOM     18  C   UNL     1      -3.694 -10.363  16.129  0.00  0.00    +0.013 A 
ATOM     19  C   UNL     1      -6.020 -10.015  15.578  0.00  0.00    +0.013 A 
ATOM     21  C   UNL     1      -4.004 -10.285  17.487  0.00  0.00    +0.001 A 
ATOM     22  C   UNL     1      -6.330  -9.935  16.935  0.00  0.00    +0.001 A 
ATOM     23  C   UNL     1      -5.322 -10.071  17.890  0.00  0.00    +0.000 A 
ENDBRANCH  14  16
ENDBRANCH   8   4
BRANCH   7  10
ATOM     10  C   UNL     1      -3.493  -8.878   9.237  0.00  0.00    +0.063 C 
BRANCH  10  13
ATOM      1  O   UNL     1      -6.864 -10.111   8.859  0.00  0.00    -0.357 OA
ATOM      5  N   UNL     1      -5.489 -10.207   8.671  0.00  0.00    -0.083 NA
ATOM     13  C   UNL     1      -4.985  -9.112   9.246  0.00  0.00    +0.084 A 
ATOM     15  C   UNL     1      -5.982  -8.296   9.806  0.00  0.00    +0.073 A 
ATOM     17  C   UNL     1      -7.145  -8.968   9.536  0.00  0.00    +0.163 A 
BRANCH  17  20
ATOM     20  C   UNL     1      -8.560  -8.707   9.822  0.00  0.00    +0.236 C 
BRANCH  20   3
ATOM      3  O   UNL     1      -9.085  -7.751   8.897  0.00  0.00    -0.375 OA
ATOM     24  C   UNL     1     -10.244  -7.119   9.414  0.00  0.00    +0.194 C 
ENDBRANCH  20   3
ENDBRANCH  17  20
ENDBRANCH  10  13
ENDBRANCH   7  10
TORSDOF 6
ENDMDL
MODEL 7
REMARK VINA RESULT:      -0.0      1.704      2.293
REMARK  Name = 56774078
REMARK  9 active torsions:
REMARK  status: ('A' for Active; 'I' for Inactive)
REMARK    1  A    between atoms: O_3  and  C_20
REMARK    2  A    between atoms: O_3  and  C_24
REMARK    3  A    between atoms: N_4  and  C_8
REMARK    4  A    between atoms: C_6  and  C_11
REMARK    5  A    between atoms: C_6  and  C_12
REMARK    6  A    between atoms: C_7  and  C_10
REMARK    7  A    between atoms: C_10  and  C_13
REMARK    8  A    between atoms: C_14  and  C_16
REMARK    9  A    between atoms: C_17  and  C_20
REMARK                            x       y       z     vdW  Elec       q    Type
REMARK                         _______ _______ _______ _____ _____    ______ ____
ROOT
ATOM      6  C   UNL     1      -2.580   2.878  25.001  0.00  0.00    -0.013 C 
ATOM      7  C   UNL     1      -4.017   2.925  24.441  0.00  0.00    +0.004 C 
ATOM      8  C   UNL     1      -2.091   2.971  23.540  0.00  0.00    +0.079 C 
ATOM      9  C   UNL     1      -3.443   2.352  23.128  0.00  0.00    +0.027 C 
ATOM     11  C   UNL     1      -2.158   4.071  25.838  0.00  0.00    +0.013 C 
ATOM     12  C   UNL     1      -2.257   1.596  25.735  0.00  0.00    +0.013 C 
ENDROOT
BRANCH   8   4
ATOM      2  O   UNL     1       0.525   3.073  24.740  0.00  0.00    -0.270 OA
ATOM      4  N   UNL     1      -0.927   2.129  23.201  0.00  0.00    -0.308 N 
ATOM     14  C   UNL     1       0.317   2.243  23.836  0.00  0.00    +0.244 C 
ATOM     25  H   UNL     1      -1.021   1.471  22.432  0.00  0.00    +0.149 HD
BRANCH  14  16
ATOM     16  C   UNL     1       1.367   1.331  23.411  0.00  0.00    +0.037 A 
ATOM     18  C   UNL     1       2.672   1.795  23.251  0.00  0.00    +0.013 A 
ATOM     19  C   UNL     1       1.069  -0.009  23.165  0.00  0.00    +0.013 A 
ATOM     21  C   UNL     1       3.679   0.920  22.843  0.00  0.00    +0.001 A 
ATOM     22  C   UNL     1       2.075  -0.884  22.758  0.00  0.00    +0.001 A 
ATOM     23  C   UNL     1       3.380  -0.420  22.597  0.00  0.00    +0.000 A 
ENDBRANCH  14  16
ENDBRANCH   8   4
BRANCH   7  10
ATOM     10  C   UNL     1      -5.051   2.053  25.115  0.00  0.00    +0.063 C 
BRANCH  10  13
ATOM      1  O   UNL     1      -4.014  -1.334  25.805  0.00  0.00    -0.357 OA
ATOM      5  N   UNL     1      -4.362  -0.048  26.203  0.00  0.00    -0.083 NA
ATOM     13  C   UNL     1      -4.629   0.604  25.068  0.00  0.00    +0.084 A 
ATOM     15  C   UNL     1      -4.468  -0.210  23.934  0.00  0.00    +0.073 A 
ATOM     17  C   UNL     1      -4.081  -1.418  24.452  0.00  0.00    +0.163 A 
BRANCH  17  20
ATOM     20  C   UNL     1      -3.743  -2.717  23.859  0.00  0.00    +0.236 C 
BRANCH  20   3
ATOM      3  O   UNL     1      -2.610  -3.285  24.521  0.00  0.00    -0.375 OA
ATOM     24  C   UNL     1      -1.445  -2.507  24.304  0.00  0.00    +0.194 C 
ENDBRANCH  20   3
ENDBRANCH  17  20
ENDBRANCH  10  13
ENDBRANCH   7  10
TORSDOF 6
ENDMDL
