MODEL 1
REMARK VINA RESULT:      -6.5      0.000      0.000
REMARK  Name = 75367072
REMARK  10 active torsions:
REMARK  status: ('A' for Active; 'I' for Inactive)
REMARK    1  A    between atoms: O_2  and  C_7
REMARK    2  A    between atoms: N_4  and  C_6
REMARK    3  A    between atoms: N_4  and  C_16
REMARK    4  A    between atoms: N_5  and  C_13
REMARK    5  A    between atoms: C_8  and  C_13
REMARK    6  A    between atoms: C_9  and  C_18
REMARK    7  A    between atoms: C_16  and  C_17
REMARK    8  A    between atoms: C_17  and  C_19
REMARK    9  A    between atoms: C_17  and  C_20
REMARK   10  A    between atoms: C_17  and  C_21
REMARK                            x       y       z     vdW  Elec       q    Type
REMARK                         _______ _______ _______ _____ _____    ______ ____
ROOT
ATOM      1  O   UNL     1      -0.467   1.609  26.009  0.00  0.00    -0.371 OA
ATOM      6  C   UNL     1      -0.200  -0.479  24.907  0.00  0.00    +0.111 C 
ATOM      7  C   UNL     1      -0.170   0.633  23.875  0.00  0.00    +0.164 C 
ATOM      8  C   UNL     1       0.180   1.832  24.745  0.00  0.00    +0.165 C 
ATOM     10  C   UNL     1      -0.850   0.225  26.088  0.00  0.00    +0.181 C 
ENDROOT
BRANCH   7   2
ATOM      2  O   UNL     1       0.796   0.414  22.864  0.00  0.00    -0.388 OA
ATOM     24  H   UNL     1       1.249   1.256  22.687  0.00  0.00    +0.210 HD
ENDBRANCH   7   2
BRANCH   6   4
ATOM      4  N   UNL     1      -0.935  -1.656  24.475  0.00  0.00    -0.308 NA
ATOM     22  H   UNL     1      -1.081  -2.269  25.276  0.00  0.00    +0.122 HD
BRANCH   4  16
ATOM     16  C   UNL     1      -2.226  -1.290  23.905  0.00  0.00    +0.087 C 
BRANCH  16  17
ATOM     17  C   UNL     1      -3.437  -1.969  24.593  0.00  0.00    -0.025 C 
ATOM     19  C   UNL     1      -3.680  -1.387  25.997  0.00  0.00    +0.012 C 
ATOM     20  C   UNL     1      -3.222  -3.489  24.705  0.00  0.00    +0.012 C 
ATOM     21  C   UNL     1      -4.689  -1.711  23.733  0.00  0.00    +0.012 C 
ENDBRANCH  16  17
ENDBRANCH   4  16
ENDBRANCH   6   4
BRANCH   8  13
ATOM     13  C   UNL     1      -0.281   3.155  24.159  0.00  0.00    +0.138 C 
BRANCH  13   5
ATOM      3  O   UNL     1      -2.244   4.476  25.840  0.00  0.00    -0.276 OA
ATOM      5  N   UNL     1      -1.703   3.180  23.982  0.00  0.00    -0.313 N 
ATOM     18  C   UNL     1      -2.573   3.841  24.841  0.00  0.00    +0.216 C 
ATOM     23  H   UNL     1      -2.083   2.686  23.180  0.00  0.00    +0.149 HD
BRANCH  18   9
ATOM      9  C   UNL     1      -4.004   3.729  24.412  0.00  0.00    +0.075 C 
ATOM     11  C   UNL     1      -4.933   3.841  25.625  0.00  0.00    +0.013 C 
ATOM     12  C   UNL     1      -4.275   2.358  23.790  0.00  0.00    +0.013 C 
ATOM     14  C   UNL     1      -5.788   2.578  25.614  0.00  0.00    +0.001 C 
ATOM     15  C   UNL     1      -4.922   1.551  24.906  0.00  0.00    +0.001 C 
ENDBRANCH  18   9
ENDBRANCH  13   5
ENDBRANCH   8  13
TORSDOF 7
ENDMDL
MODEL 2
REMARK VINA RESULT:      -6.4      1.490      4.905
REMARK  Name = 75367072
REMARK  10 active torsions:
REMARK  status: ('A' for Active; 'I' for Inactive)
REMARK    1  A    between atoms: O_2  and  C_7
REMARK    2  A    between atoms: N_4  and  C_6
REMARK    3  A    between atoms: N_4  and  C_16
REMARK    4  A    between atoms: N_5  and  C_13
REMARK    5  A    between atoms: C_8  and  C_13
REMARK    6  A    between atoms: C_9  and  C_18
REMARK    7  A    between atoms: C_16  and  C_17
REMARK    8  A    between atoms: C_17  and  C_19
REMARK    9  A    between atoms: C_17  and  C_20
REMARK   10  A    between atoms: C_17  and  C_21
REMARK                            x       y       z     vdW  Elec       q    Type
REMARK                         _______ _______ _______ _____ _____    ______ ____
ROOT
ATOM      1  O   UNL     1      -0.254   2.826  23.400  0.00  0.00    -0.371 OA
ATOM      6  C   UNL     1      -1.153   3.758  25.391  0.00  0.00    +0.111 C 
ATOM      7  C   UNL     1      -0.900   2.277  25.607  0.00  0.00    +0.164 C 
ATOM      8  C   UNL     1       0.114   1.989  24.509  0.00  0.00    +0.165 C 
ATOM     10  C   UNL     1      -1.153   3.844  23.874  0.00  0.00    +0.181 C 
ENDROOT
BRANCH   7   2
ATOM      2  O   UNL     1      -0.381   1.993  26.892  0.00  0.00    -0.388 OA
ATOM     24  H   UNL     1      -0.778   1.163  27.206  0.00  0.00    +0.210 HD
ENDBRANCH   7   2
BRANCH   6   4
ATOM      4  N   UNL     1      -2.393   4.230  25.985  0.00  0.00    -0.308 NA
ATOM     22  H   UNL     1      -2.805   4.936  25.376  0.00  0.00    +0.122 HD
BRANCH   4  16
ATOM     16  C   UNL     1      -3.340   3.136  26.165  0.00  0.00    +0.087 C 
BRANCH  16  17
ATOM     17  C   UNL     1      -4.604   3.241  25.275  0.00  0.00    -0.025 C 
ATOM     19  C   UNL     1      -4.282   2.912  23.806  0.00  0.00    +0.012 C 
ATOM     20  C   UNL     1      -5.216   4.651  25.356  0.00  0.00    +0.012 C 
ATOM     21  C   UNL     1      -5.642   2.224  25.788  0.00  0.00    +0.012 C 
ENDBRANCH  16  17
ENDBRANCH   4  16
ENDBRANCH   6   4
BRANCH   8  13
ATOM     13  C   UNL     1       0.128   0.535  24.071  0.00  0.00    +0.138 C 
BRANCH  13   5
ATOM      3  O   UNL     1      -0.106  -1.965  25.528  0.00  0.00    -0.276 OA
ATOM      5  N   UNL     1      -1.078  -0.139  24.456  0.00  0.00    -0.313 N 
ATOM     18  C   UNL     1      -1.096  -1.339  25.157  0.00  0.00    +0.216 C 
ATOM     23  H   UNL     1      -1.959   0.297  24.201  0.00  0.00    +0.149 HD
BRANCH  18   9
ATOM      9  C   UNL     1      -2.487  -1.812  25.454  0.00  0.00    +0.075 C 
ATOM     11  C   UNL     1      -2.962  -2.782  24.367  0.00  0.00    +0.013 C 
ATOM     12  C   UNL     1      -3.469  -0.639  25.441  0.00  0.00    +0.013 C 
ATOM     14  C   UNL     1      -4.261  -2.196  23.825  0.00  0.00    +0.001 C 
ATOM     15  C   UNL     1      -4.126  -0.704  24.070  0.00  0.00    +0.001 C 
ENDBRANCH  18   9
ENDBRANCH  13   5
ENDBRANCH   8  13
TORSDOF 7
ENDMDL
MODEL 3
REMARK VINA RESULT:      -5.8      2.280      5.816
REMARK  Name = 75367072
REMARK  10 active torsions:
REMARK  status: ('A' for Active; 'I' for Inactive)
REMARK    1  A    between atoms: O_2  and  C_7
REMARK    2  A    between atoms: N_4  and  C_6
REMARK    3  A    between atoms: N_4  and  C_16
REMARK    4  A    between atoms: N_5  and  C_13
REMARK    5  A    between atoms: C_8  and  C_13
REMARK    6  A    between atoms: C_9  and  C_18
REMARK    7  A    between atoms: C_16  and  C_17
REMARK    8  A    between atoms: C_17  and  C_19
REMARK    9  A    between atoms: C_17  and  C_20
REMARK   10  A    between atoms: C_17  and  C_21
REMARK                            x       y       z     vdW  Elec       q    Type
REMARK                         _______ _______ _______ _____ _____    ______ ____
ROOT
ATOM      1  O   UNL     1      -6.078   2.572  25.646  0.00  0.00    -0.371 OA
ATOM      6  C   UNL     1      -4.157   3.775  24.935  0.00  0.00    +0.111 C 
ATOM      7  C   UNL     1      -4.083   2.359  24.394  0.00  0.00    +0.164 C 
ATOM      8  C   UNL     1      -5.544   1.938  24.471  0.00  0.00    +0.165 C 
ATOM     10  C   UNL     1      -5.177   3.617  26.051  0.00  0.00    +0.181 C 
ENDROOT
BRANCH   7   2
ATOM      2  O   UNL     1      -3.588   2.306  23.069  0.00  0.00    -0.388 OA
ATOM     24  H   UNL     1      -4.004   3.021  22.559  0.00  0.00    +0.210 HD
ENDBRANCH   7   2
BRANCH   6   4
ATOM      4  N   UNL     1      -2.880   4.289  25.402  0.00  0.00    -0.308 NA
ATOM     22  H   UNL     1      -3.045   4.941  26.168  0.00  0.00    +0.122 HD
BRANCH   4  16
ATOM     16  C   UNL     1      -2.018   3.208  25.867  0.00  0.00    +0.087 C 
BRANCH  16  17
ATOM     17  C   UNL     1      -0.581   3.252  25.288  0.00  0.00    -0.025 C 
ATOM     19  C   UNL     1      -0.457   2.366  24.035  0.00  0.00    +0.012 C 
ATOM     20  C   UNL     1       0.447   2.795  26.337  0.00  0.00    +0.012 C 
ATOM     21  C   UNL     1      -0.265   4.707  24.890  0.00  0.00    +0.012 C 
ENDBRANCH  16  17
ENDBRANCH   4  16
ENDBRANCH   6   4
BRANCH   8  13
ATOM     13  C   UNL     1      -5.731   0.434  24.569  0.00  0.00    +0.138 C 
BRANCH  13   5
ATOM      3  O   UNL     1      -4.452  -2.007  23.658  0.00  0.00    -0.276 OA
ATOM      5  N   UNL     1      -4.571  -0.201  25.125  0.00  0.00    -0.313 N 
ATOM     18  C   UNL     1      -4.024  -1.375  24.621  0.00  0.00    +0.216 C 
ATOM     23  H   UNL     1      -4.134   0.242  25.926  0.00  0.00    +0.149 HD
BRANCH  18   9
ATOM      9  C   UNL     1      -2.801  -1.809  25.370  0.00  0.00    +0.075 C 
ATOM     11  C   UNL     1      -2.080  -0.592  25.961  0.00  0.00    +0.013 C 
ATOM     12  C   UNL     1      -1.802  -2.484  24.429  0.00  0.00    +0.013 C 
ATOM     14  C   UNL     1      -0.654  -0.653  25.425  0.00  0.00    +0.001 C 
ATOM     15  C   UNL     1      -0.783  -1.400  24.109  0.00  0.00    +0.001 C 
ENDBRANCH  18   9
ENDBRANCH  13   5
ENDBRANCH   8  13
TORSDOF 7
ENDMDL
MODEL 4
REMARK VINA RESULT:      -4.9      1.840      4.429
REMARK  Name = 75367072
REMARK  10 active torsions:
REMARK  status: ('A' for Active; 'I' for Inactive)
REMARK    1  A    between atoms: O_2  and  C_7
REMARK    2  A    between atoms: N_4  and  C_6
REMARK    3  A    between atoms: N_4  and  C_16
REMARK    4  A    between atoms: N_5  and  C_13
REMARK    5  A    between atoms: C_8  and  C_13
REMARK    6  A    between atoms: C_9  and  C_18
REMARK    7  A    between atoms: C_16  and  C_17
REMARK    8  A    between atoms: C_17  and  C_19
REMARK    9  A    between atoms: C_17  and  C_20
REMARK   10  A    between atoms: C_17  and  C_21
REMARK                            x       y       z     vdW  Elec       q    Type
REMARK                         _______ _______ _______ _____ _____    ______ ____
ROOT
ATOM      1  O   UNL     1      -0.695  -1.658  23.153  0.00  0.00    -0.371 OA
ATOM      6  C   UNL     1       0.329   0.126  24.341  0.00  0.00    +0.111 C 
ATOM      7  C   UNL     1      -0.976  -0.240  25.025  0.00  0.00    +0.164 C 
ATOM      8  C   UNL     1      -1.196  -1.652  24.500  0.00  0.00    +0.165 C 
ATOM     10  C   UNL     1       0.133  -0.497  22.968  0.00  0.00    +0.181 C 
ENDROOT
BRANCH   7   2
ATOM      2  O   UNL     1      -0.879  -0.210  26.436  0.00  0.00    -0.388 OA
ATOM     24  H   UNL     1       0.005   0.114  26.675  0.00  0.00    +0.210 HD
ENDBRANCH   7   2
BRANCH   6   4
ATOM      4  N   UNL     1       0.576   1.558  24.284  0.00  0.00    -0.308 NA
ATOM     22  H   UNL     1       1.067   1.775  23.418  0.00  0.00    +0.122 HD
BRANCH   4  16
ATOM     16  C   UNL     1      -0.674   2.308  24.331  0.00  0.00    +0.087 C 
BRANCH  16  17
ATOM     17  C   UNL     1      -0.734   3.365  25.463  0.00  0.00    -0.025 C 
ATOM     19  C   UNL     1      -2.066   3.285  26.231  0.00  0.00    +0.012 C 
ATOM     20  C   UNL     1      -0.560   4.785  24.897  0.00  0.00    +0.012 C 
ATOM     21  C   UNL     1       0.416   3.083  26.449  0.00  0.00    +0.012 C 
ENDBRANCH  16  17
ENDBRANCH   4  16
ENDBRANCH   6   4
BRANCH   8  13
ATOM     13  C   UNL     1      -2.655  -2.075  24.507  0.00  0.00    +0.138 C 
BRANCH  13   5
ATOM      3  O   UNL     1      -4.168  -0.282  26.217  0.00  0.00    -0.276 OA
ATOM      5  N   UNL     1      -3.512  -0.999  24.100  0.00  0.00    -0.313 N 
ATOM     18  C   UNL     1      -4.201  -0.187  24.993  0.00  0.00    +0.216 C 
ATOM     23  H   UNL     1      -3.609  -0.830  23.103  0.00  0.00    +0.149 HD
BRANCH  18   9
ATOM      9  C   UNL     1      -5.004   0.875  24.304  0.00  0.00    +0.075 C 
ATOM     11  C   UNL     1      -4.096   2.032  23.874  0.00  0.00    +0.013 C 
ATOM     12  C   UNL     1      -6.038   1.474  25.258  0.00  0.00    +0.013 C 
ATOM     14  C   UNL     1      -4.689   3.285  24.509  0.00  0.00    +0.001 C 
ATOM     15  C   UNL     1      -5.407   2.771  25.744  0.00  0.00    +0.001 C 
ENDBRANCH  18   9
ENDBRANCH  13   5
ENDBRANCH   8  13
TORSDOF 7
ENDMDL
MODEL 5
REMARK VINA RESULT:      -4.7      2.179      5.884
REMARK  Name = 75367072
REMARK  10 active torsions:
REMARK  status: ('A' for Active; 'I' for Inactive)
REMARK    1  A    between atoms: O_2  and  C_7
REMARK    2  A    between atoms: N_4  and  C_6
REMARK    3  A    between atoms: N_4  and  C_16
REMARK    4  A    between atoms: N_5  and  C_13
REMARK    5  A    between atoms: C_8  and  C_13
REMARK    6  A    between atoms: C_9  and  C_18
REMARK    7  A    between atoms: C_16  and  C_17
REMARK    8  A    between atoms: C_17  and  C_19
REMARK    9  A    between atoms: C_17  and  C_20
REMARK   10  A    between atoms: C_17  and  C_21
REMARK                            x       y       z     vdW  Elec       q    Type
REMARK                         _______ _______ _______ _____ _____    ______ ____
ROOT
ATOM      1  O   UNL     1      -5.579   0.909  25.790  0.00  0.00    -0.371 OA
ATOM      6  C   UNL     1      -4.791   2.508  24.220  0.00  0.00    +0.111 C 
ATOM      7  C   UNL     1      -3.853   1.315  24.226  0.00  0.00    +0.164 C 
ATOM      8  C   UNL     1      -4.747   0.240  24.827  0.00  0.00    +0.165 C 
ATOM     10  C   UNL     1      -5.518   2.324  25.542  0.00  0.00    +0.181 C 
ENDROOT
BRANCH   7   2
ATOM      2  O   UNL     1      -3.406   0.965  22.930  0.00  0.00    -0.388 OA
ATOM     24  H   UNL     1      -2.886   0.146  22.996  0.00  0.00    +0.210 HD
ENDBRANCH   7   2
BRANCH   6   4
ATOM      4  N   UNL     1      -4.108   3.787  24.121  0.00  0.00    -0.308 NA
ATOM     22  H   UNL     1      -4.415   4.387  24.885  0.00  0.00    +0.122 HD
BRANCH   4  16
ATOM     16  C   UNL     1      -2.661   3.617  24.192  0.00  0.00    +0.087 C 
BRANCH  16  17
ATOM     17  C   UNL     1      -2.012   4.247  25.450  0.00  0.00    -0.025 C 
ATOM     19  C   UNL     1      -1.097   3.240  26.170  0.00  0.00    +0.012 C 
ATOM     20  C   UNL     1      -3.087   4.746  26.431  0.00  0.00    +0.012 C 
ATOM     21  C   UNL     1      -1.158   5.449  25.002  0.00  0.00    +0.012 C 
ENDBRANCH  16  17
ENDBRANCH   4  16
ENDBRANCH   6   4
BRANCH   8  13
ATOM     13  C   UNL     1      -3.972  -0.876  25.506  0.00  0.00    +0.138 C 
BRANCH  13   5
ATOM      3  O   UNL     1      -1.944  -2.505  24.217  0.00  0.00    -0.276 OA
ATOM      5  N   UNL     1      -2.560  -0.633  25.460  0.00  0.00    -0.313 N 
ATOM     18  C   UNL     1      -1.657  -1.472  24.816  0.00  0.00    +0.216 C 
ATOM     23  H   UNL     1      -2.213   0.201  25.924  0.00  0.00    +0.149 HD
BRANCH  18   9
ATOM      9  C   UNL     1      -0.247  -0.973  24.899  0.00  0.00    +0.075 C 
ATOM     11  C   UNL     1      -0.232   0.540  25.148  0.00  0.00    +0.013 C 
ATOM     12  C   UNL     1       0.483  -1.194  23.573  0.00  0.00    +0.013 C 
ATOM     14  C   UNL     1       0.592   1.141  24.015  0.00  0.00    +0.001 C 
ATOM     15  C   UNL     1       0.426   0.155  22.872  0.00  0.00    +0.001 C 
ENDBRANCH  18   9
ENDBRANCH  13   5
ENDBRANCH   8  13
TORSDOF 7
ENDMDL
MODEL 6
REMARK VINA RESULT:      -4.3      2.030      4.128
REMARK  Name = 75367072
REMARK  10 active torsions:
REMARK  status: ('A' for Active; 'I' for Inactive)
REMARK    1  A    between atoms: O_2  and  C_7
REMARK    2  A    between atoms: N_4  and  C_6
REMARK    3  A    between atoms: N_4  and  C_16
REMARK    4  A    between atoms: N_5  and  C_13
REMARK    5  A    between atoms: C_8  and  C_13
REMARK    6  A    between atoms: C_9  and  C_18
REMARK    7  A    between atoms: C_16  and  C_17
REMARK    8  A    between atoms: C_17  and  C_19
REMARK    9  A    between atoms: C_17  and  C_20
REMARK   10  A    between atoms: C_17  and  C_21
REMARK                            x       y       z     vdW  Elec       q    Type
REMARK                         _______ _______ _______ _____ _____    ______ ____
ROOT
ATOM      1  O   UNL     1      -4.552  -1.858  24.322  0.00  0.00    -0.371 OA
ATOM      6  C   UNL     1      -2.221  -1.713  24.756  0.00  0.00    +0.111 C 
ATOM      7  C   UNL     1      -2.834  -0.330  24.875  0.00  0.00    +0.164 C 
ATOM      8  C   UNL     1      -4.299  -0.676  25.100  0.00  0.00    +0.165 C 
ATOM     10  C   UNL     1      -3.290  -2.448  23.964  0.00  0.00    +0.181 C 
ENDROOT
BRANCH   7   2
ATOM      2  O   UNL     1      -2.296   0.415  25.951  0.00  0.00    -0.388 OA
ATOM     24  H   UNL     1      -1.335   0.269  25.974  0.00  0.00    +0.210 HD
ENDBRANCH   7   2
BRANCH   6   4
ATOM      4  N   UNL     1      -0.923  -1.722  24.101  0.00  0.00    -0.308 NA
ATOM     22  H   UNL     1      -1.059  -1.613  23.097  0.00  0.00    +0.122 HD
BRANCH   4  16
ATOM     16  C   UNL     1      -0.079  -0.640  24.594  0.00  0.00    +0.087 C 
BRANCH  16  17
ATOM     17  C   UNL     1       0.286   0.416  23.521  0.00  0.00    -0.025 C 
ATOM     19  C   UNL     1      -0.956   0.857  22.726  0.00  0.00    +0.012 C 
ATOM     20  C   UNL     1       1.343  -0.134  22.547  0.00  0.00    +0.012 C 
ATOM     21  C   UNL     1       0.871   1.650  24.236  0.00  0.00    +0.012 C 
ENDBRANCH  16  17
ENDBRANCH   4  16
ENDBRANCH   6   4
BRANCH   8  13
ATOM     13  C   UNL     1      -5.250   0.430  24.677  0.00  0.00    +0.138 C 
BRANCH  13   5
ATOM      3  O   UNL     1      -5.763   2.735  26.365  0.00  0.00    -0.276 OA
ATOM      5  N   UNL     1      -4.587   1.702  24.640  0.00  0.00    -0.313 N 
ATOM     18  C   UNL     1      -4.900   2.755  25.492  0.00  0.00    +0.216 C 
ATOM     23  H   UNL     1      -3.850   1.826  23.953  0.00  0.00    +0.149 HD
BRANCH  18   9
ATOM      9  C   UNL     1      -4.040   3.960  25.258  0.00  0.00    +0.075 C 
ATOM     11  C   UNL     1      -3.107   3.724  24.066  0.00  0.00    +0.013 C 
ATOM     12  C   UNL     1      -3.136   4.220  26.464  0.00  0.00    +0.013 C 
ATOM     14  C   UNL     1      -1.694   3.953  24.590  0.00  0.00    +0.001 C 
ATOM     15  C   UNL     1      -1.790   3.628  26.070  0.00  0.00    +0.001 C 
ENDBRANCH  18   9
ENDBRANCH  13   5
ENDBRANCH   8  13
TORSDOF 7
ENDMDL
MODEL 7
REMARK VINA RESULT:      -3.8      2.269      4.235
REMARK  Name = 75367072
REMARK  10 active torsions:
REMARK  status: ('A' for Active; 'I' for Inactive)
REMARK    1  A    between atoms: O_2  and  C_7
REMARK    2  A    between atoms: N_4  and  C_6
REMARK    3  A    between atoms: N_4  and  C_16
REMARK    4  A    between atoms: N_5  and  C_13
REMARK    5  A    between atoms: C_8  and  C_13
REMARK    6  A    between atoms: C_9  and  C_18
REMARK    7  A    between atoms: C_16  and  C_17
REMARK    8  A    between atoms: C_17  and  C_19
REMARK    9  A    between atoms: C_17  and  C_20
REMARK   10  A    between atoms: C_17  and  C_21
REMARK                            x       y       z     vdW  Elec       q    Type
REMARK                         _______ _______ _______ _____ _____    ______ ____
ROOT
ATOM      1  O   UNL     1      -3.035  -2.115  24.655  0.00  0.00    -0.371 OA
ATOM      6  C   UNL     1      -0.835  -1.381  25.168  0.00  0.00    +0.111 C 
ATOM      7  C   UNL     1      -1.714  -0.171  24.909  0.00  0.00    +0.164 C 
ATOM      8  C   UNL     1      -3.100  -0.761  25.131  0.00  0.00    +0.165 C 
ATOM     10  C   UNL     1      -1.652  -2.488  24.523  0.00  0.00    +0.181 C 
ENDROOT
BRANCH   7   2
ATOM      2  O   UNL     1      -1.447   0.898  25.798  0.00  0.00    -0.388 OA
ATOM     24  H   UNL     1      -1.904   1.691  25.468  0.00  0.00    +0.210 HD
ENDBRANCH   7   2
BRANCH   6   4
ATOM      4  N   UNL     1       0.501  -1.262  24.608  0.00  0.00    -0.308 NA
ATOM     22  H   UNL     1       0.733  -2.125  24.118  0.00  0.00    +0.122 HD
BRANCH   4  16
ATOM     16  C   UNL     1       0.582  -0.142  23.677  0.00  0.00    +0.087 C 
BRANCH  16  17
ATOM     17  C   UNL     1       1.912  -0.073  22.886  0.00  0.00    -0.025 C 
ATOM     19  C   UNL     1       2.938  -1.084  23.429  0.00  0.00    +0.012 C 
ATOM     20  C   UNL     1       2.514   1.342  22.948  0.00  0.00    +0.012 C 
ATOM     21  C   UNL     1       1.617  -0.418  21.413  0.00  0.00    +0.012 C 
ENDBRANCH  16  17
ENDBRANCH   4  16
ENDBRANCH   6   4
BRANCH   8  13
ATOM     13  C   UNL     1      -4.197  -0.010  24.397  0.00  0.00    +0.138 C 
BRANCH  13   5
ATOM      3  O   UNL     1      -3.057   1.937  22.571  0.00  0.00    -0.276 OA
ATOM      5  N   UNL     1      -4.083   1.405  24.594  0.00  0.00    -0.313 N 
ATOM     18  C   UNL     1      -3.519   2.267  23.660  0.00  0.00    +0.216 C 
ATOM     23  H   UNL     1      -4.439   1.787  25.465  0.00  0.00    +0.149 HD
BRANCH  18   9
ATOM      9  C   UNL     1      -3.548   3.698  24.105  0.00  0.00    +0.075 C 
ATOM     11  C   UNL     1      -2.122   4.250  24.210  0.00  0.00    +0.013 C 
ATOM     12  C   UNL     1      -4.157   3.816  25.503  0.00  0.00    +0.013 C 
ATOM     14  C   UNL     1      -1.979   4.766  25.638  0.00  0.00    +0.001 C 
ATOM     15  C   UNL     1      -2.960   3.924  26.436  0.00  0.00    +0.001 C 
ENDBRANCH  18   9
ENDBRANCH  13   5
ENDBRANCH   8  13
TORSDOF 7
ENDMDL
MODEL 8
REMARK VINA RESULT:      -3.3     19.194     20.615
REMARK  Name = 75367072
REMARK  10 active torsions:
REMARK  status: ('A' for Active; 'I' for Inactive)
REMARK    1  A    between atoms: O_2  and  C_7
REMARK    2  A    between atoms: N_4  and  C_6
REMARK    3  A    between atoms: N_4  and  C_16
REMARK    4  A    between atoms: N_5  and  C_13
REMARK    5  A    between atoms: C_8  and  C_13
REMARK    6  A    between atoms: C_9  and  C_18
REMARK    7  A    between atoms: C_16  and  C_17
REMARK    8  A    between atoms: C_17  and  C_19
REMARK    9  A    between atoms: C_17  and  C_20
REMARK   10  A    between atoms: C_17  and  C_21
REMARK                            x       y       z     vdW  Elec       q    Type
REMARK                         _______ _______ _______ _____ _____    ______ ____
ROOT
ATOM      1  O   UNL     1      16.053  -7.713  26.527  0.00  0.00    -0.371 OA
ATOM      6  C   UNL     1      16.050  -7.404  28.883  0.00  0.00    +0.111 C 
ATOM      7  C   UNL     1      16.917  -6.335  28.244  0.00  0.00    +0.164 C 
ATOM      8  C   UNL     1      16.393  -6.346  26.815  0.00  0.00    +0.165 C 
ATOM     10  C   UNL     1      15.976  -8.435  27.768  0.00  0.00    +0.181 C 
ENDROOT
BRANCH   7   2
ATOM      2  O   UNL     1      16.759  -5.068  28.854  0.00  0.00    -0.388 OA
ATOM     24  H   UNL     1      15.954  -5.088  29.398  0.00  0.00    +0.210 HD
ENDBRANCH   7   2
BRANCH   6   4
ATOM      4  N   UNL     1      16.599  -7.940  30.117  0.00  0.00    -0.308 NA
ATOM     22  H   UNL     1      16.380  -7.304  30.881  0.00  0.00    +0.122 HD
BRANCH   4  16
ATOM     16  C   UNL     1      16.043  -9.257  30.410  0.00  0.00    +0.087 C 
BRANCH  16  17
ATOM     17  C   UNL     1      15.078  -9.280  31.622  0.00  0.00    -0.025 C 
ATOM     19  C   UNL     1      15.105 -10.645  32.332  0.00  0.00    +0.012 C 
ATOM     20  C   UNL     1      13.638  -8.965  31.182  0.00  0.00    +0.012 C 
ATOM     21  C   UNL     1      15.534  -8.200  32.623  0.00  0.00    +0.012 C 
ENDBRANCH  16  17
ENDBRANCH   4  16
ENDBRANCH   6   4
BRANCH   8  13
ATOM     13  C   UNL     1      17.405  -5.844  25.800  0.00  0.00    +0.138 C 
BRANCH  13   5
ATOM      3  O   UNL     1      17.371  -5.427  22.927  0.00  0.00    -0.276 OA
ATOM      5  N   UNL     1      16.911  -4.699  25.092  0.00  0.00    -0.313 N 
ATOM     18  C   UNL     1      16.934  -4.584  23.707  0.00  0.00    +0.216 C 
ATOM     23  H   UNL     1      16.523  -3.940  25.644  0.00  0.00    +0.149 HD
BRANCH  18   9
ATOM      9  C   UNL     1      16.333  -3.299  23.226  0.00  0.00    +0.075 C 
ATOM     11  C   UNL     1      17.396  -2.444  22.527  0.00  0.00    +0.013 C 
ATOM     12  C   UNL     1      15.821  -2.468  24.403  0.00  0.00    +0.013 C 
ATOM     14  C   UNL     1      17.399  -1.104  23.256  0.00  0.00    +0.001 C 
ATOM     15  C   UNL     1      16.918  -1.443  24.656  0.00  0.00    +0.001 C 
ENDBRANCH  18   9
ENDBRANCH  13   5
ENDBRANCH   8  13
TORSDOF 7
ENDMDL
MODEL 9
REMARK VINA RESULT:      -2.9      3.186      4.968
REMARK  Name = 75367072
REMARK  10 active torsions:
REMARK  status: ('A' for Active; 'I' for Inactive)
REMARK    1  A    between atoms: O_2  and  C_7
REMARK    2  A    between atoms: N_4  and  C_6
REMARK    3  A    between atoms: N_4  and  C_16
REMARK    4  A    between atoms: N_5  and  C_13
REMARK    5  A    between atoms: C_8  and  C_13
REMARK    6  A    between atoms: C_9  and  C_18
REMARK    7  A    between atoms: C_16  and  C_17
REMARK    8  A    between atoms: C_17  and  C_19
REMARK    9  A    between atoms: C_17  and  C_20
REMARK   10  A    between atoms: C_17  and  C_21
REMARK                            x       y       z     vdW  Elec       q    Type
REMARK                         _______ _______ _______ _____ _____    ______ ____
ROOT
ATOM      1  O   UNL     1       0.393   2.086  23.965  0.00  0.00    -0.371 OA
ATOM      6  C   UNL     1       1.495   0.225  22.983  0.00  0.00    +0.111 C 
ATOM      7  C   UNL     1       0.350  -0.275  23.845  0.00  0.00    +0.164 C 
ATOM      8  C   UNL     1      -0.516   0.973  23.936  0.00  0.00    +0.165 C 
ATOM     10  C   UNL     1       1.685   1.633  23.523  0.00  0.00    +0.181 C 
ENDROOT
BRANCH   7   2
ATOM      2  O   UNL     1      -0.345  -1.357  23.255  0.00  0.00    -0.388 OA
ATOM     24  H   UNL     1      -1.238  -1.055  23.019  0.00  0.00    +0.210 HD
ENDBRANCH   7   2
BRANCH   6   4
ATOM      4  N   UNL     1       2.696  -0.587  23.080  0.00  0.00    -0.308 NA
ATOM     22  H   UNL     1       2.632  -1.356  22.415  0.00  0.00    +0.122 HD
BRANCH   4  16
ATOM     16  C   UNL     1       3.888   0.203  22.792  0.00  0.00    +0.087 C 
BRANCH  16  17
ATOM     17  C   UNL     1       5.164  -0.288  23.522  0.00  0.00    -0.025 C 
ATOM     19  C   UNL     1       5.507   0.619  24.717  0.00  0.00    +0.012 C 
ATOM     20  C   UNL     1       6.363  -0.335  22.559  0.00  0.00    +0.012 C 
ATOM     21  C   UNL     1       4.901  -1.712  24.049  0.00  0.00    +0.012 C 
ENDBRANCH  16  17
ENDBRANCH   4  16
ENDBRANCH   6   4
BRANCH   8  13
ATOM     13  C   UNL     1      -1.401   1.002  25.170  0.00  0.00    +0.138 C 
BRANCH  13   5
ATOM      3  O   UNL     1      -3.763   0.087  23.752  0.00  0.00    -0.276 OA
ATOM      5  N   UNL     1      -2.610   1.734  24.929  0.00  0.00    -0.313 N 
ATOM     18  C   UNL     1      -3.697   1.214  24.236  0.00  0.00    +0.216 C 
ATOM     23  H   UNL     1      -2.663   2.681  25.291  0.00  0.00    +0.149 HD
BRANCH  18   9
ATOM      9  C   UNL     1      -4.840   2.180  24.148  0.00  0.00    +0.075 C 
ATOM     11  C   UNL     1      -4.435   3.537  24.735  0.00  0.00    +0.013 C 
ATOM     12  C   UNL     1      -6.026   1.690  24.980  0.00  0.00    +0.013 C 
ATOM     14  C   UNL     1      -5.459   3.842  25.823  0.00  0.00    +0.001 C 
ATOM     15  C   UNL     1      -5.933   2.474  26.281  0.00  0.00    +0.001 C 
ENDBRANCH  18   9
ENDBRANCH  13   5
ENDBRANCH   8  13
TORSDOF 7
ENDMDL
MODEL 10
REMARK VINA RESULT:      -2.5     18.927     20.924
REMARK  Name = 75367072
REMARK  10 active torsions:
REMARK  status: ('A' for Active; 'I' for Inactive)
REMARK    1  A    between atoms: O_2  and  C_7
REMARK    2  A    between atoms: N_4  and  C_6
REMARK    3  A    between atoms: N_4  and  C_16
REMARK    4  A    between atoms: N_5  and  C_13
REMARK    5  A    between atoms: C_8  and  C_13
REMARK    6  A    between atoms: C_9  and  C_18
REMARK    7  A    between atoms: C_16  and  C_17
REMARK    8  A    between atoms: C_17  and  C_19
REMARK    9  A    between atoms: C_17  and  C_20
REMARK   10  A    between atoms: C_17  and  C_21
REMARK                            x       y       z     vdW  Elec       q    Type
REMARK                         _______ _______ _______ _____ _____    ______ ____
ROOT
ATOM      1  O   UNL     1      15.215  -8.625  25.452  0.00  0.00    -0.371 OA
ATOM      6  C   UNL     1      15.645  -9.156  27.727  0.00  0.00    +0.111 C 
ATOM      7  C   UNL     1      16.838  -8.410  27.159  0.00  0.00    +0.164 C 
ATOM      8  C   UNL     1      16.207  -7.716  25.960  0.00  0.00    +0.165 C 
ATOM     10  C   UNL     1      14.947  -9.617  26.458  0.00  0.00    +0.181 C 
ENDROOT
BRANCH   7   2
ATOM      2  O   UNL     1      17.388  -7.482  28.075  0.00  0.00    -0.388 OA
ATOM     24  H   UNL     1      17.644  -6.683  27.584  0.00  0.00    +0.210 HD
ENDBRANCH   7   2
BRANCH   6   4
ATOM      4  N   UNL     1      16.009 -10.255  28.606  0.00  0.00    -0.308 NA
ATOM     22  H   UNL     1      16.969 -10.124  28.921  0.00  0.00    +0.122 HD
BRANCH   4  16
ATOM     16  C   UNL     1      15.125 -10.317  29.764  0.00  0.00    +0.087 C 
BRANCH  16  17
ATOM     17  C   UNL     1      15.816  -9.971  31.106  0.00  0.00    -0.025 C 
ATOM     19  C   UNL     1      16.135  -8.468  31.199  0.00  0.00    +0.012 C 
ATOM     20  C   UNL     1      17.116 -10.776  31.278  0.00  0.00    +0.012 C 
ATOM     21  C   UNL     1      14.855 -10.338  32.254  0.00  0.00    +0.012 C 
ENDBRANCH  16  17
ENDBRANCH   4  16
ENDBRANCH   6   4
BRANCH   8  13
ATOM     13  C   UNL     1      17.204  -7.382  24.865  0.00  0.00    +0.138 C 
BRANCH  13   5
ATOM      3  O   UNL     1      17.131  -5.910  22.364  0.00  0.00    -0.276 OA
ATOM      5  N   UNL     1      17.326  -5.965  24.685  0.00  0.00    -0.313 N 
ATOM     18  C   UNL     1      17.279  -5.342  23.443  0.00  0.00    +0.216 C 
ATOM     23  H   UNL     1      17.449  -5.396  25.517  0.00  0.00    +0.149 HD
BRANCH  18   9
ATOM      9  C   UNL     1      17.405  -3.852  23.541  0.00  0.00    +0.075 C 
ATOM     11  C   UNL     1      17.233  -3.398  24.994  0.00  0.00    +0.013 C 
ATOM     12  C   UNL     1      16.297  -3.163  22.743  0.00  0.00    +0.013 C 
ATOM     14  C   UNL     1      16.096  -2.382  24.981  0.00  0.00    +0.001 C 
ATOM     15  C   UNL     1      15.254  -2.782  23.783  0.00  0.00    +0.001 C 
ENDBRANCH  18   9
ENDBRANCH  13   5
ENDBRANCH   8  13
TORSDOF 7
ENDMDL
