MODEL 1
REMARK VINA RESULT:      11.3      0.000      0.000
REMARK  Name = 7673867
REMARK  4 active torsions:
REMARK  status: ('A' for Active; 'I' for Inactive)
REMARK    1  A    between atoms: N_2  and  C_11
REMARK    2  A    between atoms: N_4  and  C_22
REMARK    3  A    between atoms: C_20  and  C_23
REMARK    4  A    between atoms: C_26  and  C_29
REMARK                            x       y       z     vdW  Elec       q    Type
REMARK                         _______ _______ _______ _____ _____    ______ ____
ROOT
ATOM      1  O   UNL     1      -0.266  -0.579  21.812  0.00  0.00    -0.267 OA
ATOM      2  N   UNL     1      -3.905   0.263  25.156  0.00  0.00    -0.298 NA
ATOM      3  N   UNL     1      -1.539  -1.253  23.648  0.00  0.00    -0.311 N 
ATOM      6  C   UNL     1      -4.072  -1.626  23.516  0.00  0.00    +0.024 C 
ATOM      7  C   UNL     1      -2.901  -1.974  25.638  0.00  0.00    +0.050 C 
ATOM      8  C   UNL     1      -3.832  -2.639  24.627  0.00  0.00    +0.017 C 
ATOM      9  C   UNL     1      -4.715  -0.348  24.094  0.00  0.00    +0.090 C 
ATOM     10  C   UNL     1      -3.582  -0.709  26.211  0.00  0.00    +0.094 C 
ATOM     12  C   UNL     1      -2.739  -1.346  22.805  0.00  0.00    +0.130 C 
ATOM     13  C   UNL     1      -1.573  -1.618  24.996  0.00  0.00    +0.026 A 
ATOM     18  C   UNL     1      -0.443  -1.634  25.721  0.00  0.00    +0.022 A 
ATOM     19  C   UNL     1      -0.342  -0.879  23.005  0.00  0.00    +0.259 A 
ATOM     20  C   UNL     1       0.899  -0.875  23.854  0.00  0.00    +0.047 A 
ATOM     21  C   UNL     1       0.812  -1.252  25.138  0.00  0.00    +0.015 A 
ENDROOT
BRANCH   2  11
ATOM      4  N   UNL     1      -5.688   4.117  25.339  0.00  0.00    -0.305 NA
ATOM     11  C   UNL     1      -4.572   1.437  25.713  0.00  0.00    +0.059 C 
ATOM     14  C   UNL     1      -5.908   1.674  25.004  0.00  0.00    +0.034 C 
ATOM     15  C   UNL     1      -3.687   2.681  25.589  0.00  0.00    +0.034 C 
ATOM     16  C   UNL     1      -6.576   2.958  25.505  0.00  0.00    +0.085 C 
ATOM     17  C   UNL     1      -4.428   3.931  26.071  0.00  0.00    +0.085 C 
ATOM     22  C   UNL     1      -6.358   5.342  25.776  0.00  0.00    +0.104 C 
ENDBRANCH   2  11
BRANCH  20  23
ATOM     23  C   UNL     1       2.157  -0.481  23.302  0.00  0.00    -0.011 A 
ATOM     24  C   UNL     1       3.343  -0.799  23.965  0.00  0.00    +0.027 A 
ATOM     25  C   UNL     1       2.200   0.224  22.099  0.00  0.00    +0.009 A 
ATOM     26  C   UNL     1       4.570  -0.412  23.426  0.00  0.00    +0.052 A 
ATOM     27  C   UNL     1       3.427   0.612  21.560  0.00  0.00    +0.002 A 
ATOM     28  C   UNL     1       4.611   0.293  22.224  0.00  0.00    +0.019 A 
BRANCH  26  29
ATOM      5  N   UNL     1       6.770  -1.003  24.658  0.00  0.00    -0.191 NA
ATOM     29  C   UNL     1       5.784  -0.739  24.106  0.00  0.00    +0.099 C 
ENDBRANCH  26  29
ENDBRANCH  20  23
TORSDOF 3
ENDMDL
MODEL 2
REMARK VINA RESULT:      15.1      4.151      6.268
REMARK  Name = 7673867
REMARK  4 active torsions:
REMARK  status: ('A' for Active; 'I' for Inactive)
REMARK    1  A    between atoms: N_2  and  C_11
REMARK    2  A    between atoms: N_4  and  C_22
REMARK    3  A    between atoms: C_20  and  C_23
REMARK    4  A    between atoms: C_26  and  C_29
REMARK                            x       y       z     vdW  Elec       q    Type
REMARK                         _______ _______ _______ _____ _____    ______ ____
ROOT
ATOM      1  O   UNL     1      -1.730   3.409  27.885  0.00  0.00    -0.267 OA
ATOM      2  N   UNL     1      -3.808   0.505  24.368  0.00  0.00    -0.298 NA
ATOM      3  N   UNL     1      -2.101   2.877  25.644  0.00  0.00    -0.311 N 
ATOM      6  C   UNL     1      -4.432   2.924  24.578  0.00  0.00    +0.024 C 
ATOM      7  C   UNL     1      -2.489   2.293  23.227  0.00  0.00    +0.050 C 
ATOM      8  C   UNL     1      -3.676   3.250  23.296  0.00  0.00    +0.017 C 
ATOM      9  C   UNL     1      -4.911   1.457  24.551  0.00  0.00    +0.090 C 
ATOM     10  C   UNL     1      -3.003   0.836  23.183  0.00  0.00    +0.094 C 
ATOM     12  C   UNL     1      -3.522   3.225  25.778  0.00  0.00    +0.130 C 
ATOM     13  C   UNL     1      -1.564   2.495  24.412  0.00  0.00    +0.026 A 
ATOM     18  C   UNL     1      -0.243   2.290  24.286  0.00  0.00    +0.022 A 
ATOM     19  C   UNL     1      -1.297   3.046  26.790  0.00  0.00    +0.259 A 
ATOM     20  C   UNL     1       0.172   2.775  26.621  0.00  0.00    +0.047 A 
ATOM     21  C   UNL     1       0.636   2.430  25.412  0.00  0.00    +0.015 A 
ENDROOT
BRANCH   2  11
ATOM      4  N   UNL     1      -3.825  -3.699  23.734  0.00  0.00    -0.305 NA
ATOM     11  C   UNL     1      -4.307  -0.867  24.294  0.00  0.00    +0.059 C 
ATOM     14  C   UNL     1      -3.526  -1.768  25.254  0.00  0.00    +0.034 C 
ATOM     15  C   UNL     1      -4.205  -1.412  22.867  0.00  0.00    +0.034 C 
ATOM     16  C   UNL     1      -3.968  -3.228  25.119  0.00  0.00    +0.085 C 
ATOM     17  C   UNL     1      -4.624  -2.883  22.810  0.00  0.00    +0.085 C 
ATOM     22  C   UNL     1      -4.203  -5.108  23.631  0.00  0.00    +0.104 C 
ENDBRANCH   2  11
BRANCH  20  23
ATOM     23  C   UNL     1       1.065   2.889  27.731  0.00  0.00    -0.011 A 
ATOM     24  C   UNL     1       0.647   2.510  29.007  0.00  0.00    +0.027 A 
ATOM     25  C   UNL     1       2.356   3.380  27.538  0.00  0.00    +0.009 A 
ATOM     26  C   UNL     1       1.520   2.623  30.090  0.00  0.00    +0.052 A 
ATOM     27  C   UNL     1       3.229   3.494  28.620  0.00  0.00    +0.002 A 
ATOM     28  C   UNL     1       2.810   3.115  29.896  0.00  0.00    +0.019 A 
BRANCH  26  29
ATOM      5  N   UNL     1       0.744   1.919  32.459  0.00  0.00    -0.191 NA
ATOM     29  C   UNL     1       1.092   2.235  31.397  0.00  0.00    +0.099 C 
ENDBRANCH  26  29
ENDBRANCH  20  23
TORSDOF 3
ENDMDL
