MODEL 1
REMARK VINA RESULT:      15.8      0.000      0.000
REMARK  Name = 26761982
REMARK  3 active torsions:
REMARK  status: ('A' for Active; 'I' for Inactive)
REMARK    1  A    between atoms: N_10  and  C_21
REMARK    2  A    between atoms: C_12  and  C_17
REMARK    3  A    between atoms: C_20  and  C_22
REMARK                            x       y       z     vdW  Elec       q    Type
REMARK                         _______ _______ _______ _____ _____    ______ ____
ROOT
ATOM      5  O   UNL     1       1.393  -0.019  21.695  0.00  0.00    -0.252 OA
ATOM      6  N   UNL     1       0.054  -0.559  23.515  0.00  0.00    -0.267 N 
ATOM      7  N   UNL     1      -1.513  -2.337  26.412  0.00  0.00    -0.347 N 
ATOM      8  N   UNL     1      -2.842  -3.244  24.864  0.00  0.00    -0.240 NA
ATOM     10  N   UNL     1       2.323   0.020  23.824  0.00  0.00    -0.269 N 
ATOM     12  C   UNL     1      -1.172  -0.654  22.646  0.00  0.00    +0.172 C 
ATOM     13  C   UNL     1      -1.931  -1.998  22.856  0.00  0.00    +0.089 C 
ATOM     14  C   UNL     1      -0.109  -0.762  24.985  0.00  0.00    +0.165 C 
ATOM     15  C   UNL     1      -1.987  -2.345  24.291  0.00  0.00    +0.066 A 
ATOM     16  C   UNL     1      -1.156  -1.774  25.223  0.00  0.00    +0.056 A 
ATOM     18  C   UNL     1       1.284  -0.179  22.913  0.00  0.00    +0.307 C 
ATOM     19  C   UNL     1      -2.532  -3.216  26.144  0.00  0.00    +0.197 A 
ATOM     33  H   UNL     1      -1.108  -2.146  27.320  0.00  0.00    +0.167 HD
ATOM     34  H   UNL     1       2.078   0.307  24.767  0.00  0.00    +0.156 HD
ENDROOT
BRANCH  10  21
ATOM      2 CL   UNL     1       8.123  -0.795  22.912  0.00  0.00    -0.084 Cl
ATOM     21  C   UNL     1       3.709  -0.175  23.605  0.00  0.00    +0.035 A 
ATOM     23  C   UNL     1       4.489   0.866  23.101  0.00  0.00    +0.025 A 
ATOM     24  C   UNL     1       4.295  -1.407  23.896  0.00  0.00    +0.025 A 
ATOM     27  C   UNL     1       5.854   0.674  22.887  0.00  0.00    +0.022 A 
ATOM     28  C   UNL     1       5.660  -1.599  23.681  0.00  0.00    +0.022 A 
ATOM     31  C   UNL     1       6.439  -0.558  23.176  0.00  0.00    +0.041 A 
ENDBRANCH  10  21
BRANCH  12  17
ATOM      4  O   UNL     1      -1.975   1.460  21.688  0.00  0.00    -0.336 OA
ATOM      9  N   UNL     1      -2.756   1.040  23.745  0.00  0.00    -0.190 NA
ATOM     11  N   UNL     1      -2.799   2.543  22.020  0.00  0.00    -0.056 NA
ATOM     17  C   UNL     1      -2.004   0.622  22.757  0.00  0.00    +0.249 A 
ATOM     20  C   UNL     1      -3.222   2.221  23.246  0.00  0.00    +0.202 A 
BRANCH  20  22
ATOM      1 CL   UNL     1      -6.844   2.613  26.884  0.00  0.00    -0.081 Cl
ATOM      3  F   UNL     1      -6.664   5.482  26.161  0.00  0.00    -0.204 F 
ATOM     22  C   UNL     1      -4.111   3.057  24.000  0.00  0.00    +0.024 A 
ATOM     25  C   UNL     1      -4.949   2.497  24.963  0.00  0.00    +0.034 A 
ATOM     26  C   UNL     1      -4.137   4.434  23.769  0.00  0.00    +0.014 A 
ATOM     29  C   UNL     1      -5.813   3.311  25.696  0.00  0.00    +0.077 A 
ATOM     30  C   UNL     1      -5.001   5.248  24.501  0.00  0.00    +0.040 A 
ATOM     32  C   UNL     1      -5.839   4.686  25.465  0.00  0.00    +0.142 A 
ENDBRANCH  20  22
ENDBRANCH  12  17
TORSDOF 3
ENDMDL
MODEL 2
REMARK VINA RESULT:      17.2      3.187      8.866
REMARK  Name = 26761982
REMARK  3 active torsions:
REMARK  status: ('A' for Active; 'I' for Inactive)
REMARK    1  A    between atoms: N_10  and  C_21
REMARK    2  A    between atoms: C_12  and  C_17
REMARK    3  A    between atoms: C_20  and  C_22
REMARK                            x       y       z     vdW  Elec       q    Type
REMARK                         _______ _______ _______ _____ _____    ______ ____
ROOT
ATOM      5  O   UNL     1      -2.216   2.331  25.843  0.00  0.00    -0.252 OA
ATOM      6  N   UNL     1      -2.703   0.431  24.598  0.00  0.00    -0.267 N 
ATOM      7  N   UNL     1      -4.386  -2.605  23.199  0.00  0.00    -0.347 N 
ATOM      8  N   UNL     1      -3.383  -3.676  24.883  0.00  0.00    -0.240 NA
ATOM     10  N   UNL     1      -3.829   2.465  24.175  0.00  0.00    -0.269 N 
ATOM     12  C   UNL     1      -1.599  -0.346  25.264  0.00  0.00    +0.172 C 
ATOM     13  C   UNL     1      -2.105  -1.706  25.831  0.00  0.00    +0.089 C 
ATOM     14  C   UNL     1      -3.488  -0.243  23.523  0.00  0.00    +0.165 C 
ATOM     15  C   UNL     1      -3.026  -2.358  24.877  0.00  0.00    +0.066 A 
ATOM     16  C   UNL     1      -3.633  -1.675  23.851  0.00  0.00    +0.056 A 
ATOM     18  C   UNL     1      -2.878   1.797  24.950  0.00  0.00    +0.307 C 
ATOM     19  C   UNL     1      -4.203  -3.795  23.858  0.00  0.00    +0.197 A 
ATOM     33  H   UNL     1      -4.969  -2.453  22.387  0.00  0.00    +0.167 HD
ATOM     34  H   UNL     1      -3.989   2.131  23.229  0.00  0.00    +0.156 HD
ENDROOT
BRANCH  10  21
ATOM      2 CL   UNL     1      -7.267   7.004  25.822  0.00  0.00    -0.084 Cl
ATOM     21  C   UNL     1      -4.651   3.549  24.568  0.00  0.00    +0.035 A 
ATOM     23  C   UNL     1      -5.606   3.373  25.570  0.00  0.00    +0.025 A 
ATOM     24  C   UNL     1      -4.505   4.794  23.955  0.00  0.00    +0.025 A 
ATOM     27  C   UNL     1      -6.415   4.442  25.958  0.00  0.00    +0.022 A 
ATOM     28  C   UNL     1      -5.315   5.862  24.342  0.00  0.00    +0.022 A 
ATOM     31  C   UNL     1      -6.270   5.686  25.344  0.00  0.00    +0.041 A 
ENDBRANCH  10  21
BRANCH  12  17
ATOM      4  O   UNL     1      -0.587  -0.700  23.055  0.00  0.00    -0.336 OA
ATOM      9  N   UNL     1       0.891  -0.201  24.661  0.00  0.00    -0.190 NA
ATOM     11  N   UNL     1       0.671  -0.693  22.438  0.00  0.00    -0.056 NA
ATOM     17  C   UNL     1      -0.368  -0.401  24.362  0.00  0.00    +0.249 A 
ATOM     20  C   UNL     1       1.489  -0.390  23.450  0.00  0.00    +0.202 A 
BRANCH  20  22
ATOM      1 CL   UNL     1       6.190  -2.260  24.406  0.00  0.00    -0.081 Cl
ATOM      3  F   UNL     1       6.994   0.096  22.797  0.00  0.00    -0.204 F 
ATOM     22  C   UNL     1       2.908  -0.269  23.285  0.00  0.00    +0.024 A 
ATOM     25  C   UNL     1       3.762  -1.212  23.857  0.00  0.00    +0.034 A 
ATOM     26  C   UNL     1       3.437   0.793  22.549  0.00  0.00    +0.014 A 
ATOM     29  C   UNL     1       5.142  -1.093  23.696  0.00  0.00    +0.077 A 
ATOM     30  C   UNL     1       4.817   0.912  22.388  0.00  0.00    +0.040 A 
ATOM     32  C   UNL     1       5.670  -0.032  22.961  0.00  0.00    +0.142 A 
ENDBRANCH  20  22
ENDBRANCH  12  17
TORSDOF 3
ENDMDL
MODEL 3
REMARK VINA RESULT:      19.1      0.956      1.119
REMARK  Name = 26761982
REMARK  3 active torsions:
REMARK  status: ('A' for Active; 'I' for Inactive)
REMARK    1  A    between atoms: N_10  and  C_21
REMARK    2  A    between atoms: C_12  and  C_17
REMARK    3  A    between atoms: C_20  and  C_22
REMARK                            x       y       z     vdW  Elec       q    Type
REMARK                         _______ _______ _______ _____ _____    ______ ____
ROOT
ATOM      5  O   UNL     1       1.313  -0.028  21.733  0.00  0.00    -0.252 OA
ATOM      6  N   UNL     1      -0.005  -0.616  23.553  0.00  0.00    -0.267 N 
ATOM      7  N   UNL     1      -1.536  -2.469  26.422  0.00  0.00    -0.347 N 
ATOM      8  N   UNL     1      -2.881  -3.340  24.867  0.00  0.00    -0.240 NA
ATOM     10  N   UNL     1       2.267  -0.041  23.852  0.00  0.00    -0.269 N 
ATOM     12  C   UNL     1      -1.240  -0.692  22.696  0.00  0.00    +0.172 C 
ATOM     13  C   UNL     1      -1.995  -2.042  22.881  0.00  0.00    +0.089 C 
ATOM     14  C   UNL     1      -0.151  -0.856  25.019  0.00  0.00    +0.165 C 
ATOM     15  C   UNL     1      -2.034  -2.425  24.307  0.00  0.00    +0.066 A 
ATOM     16  C   UNL     1      -1.193  -1.876  25.244  0.00  0.00    +0.056 A 
ATOM     18  C   UNL     1       1.218  -0.219  22.948  0.00  0.00    +0.307 C 
ATOM     19  C   UNL     1      -2.557  -3.343  26.144  0.00  0.00    +0.197 A 
ATOM     33  H   UNL     1      -1.121  -2.300  27.330  0.00  0.00    +0.167 HD
ATOM     34  H   UNL     1       2.032   0.222  24.805  0.00  0.00    +0.156 HD
ENDROOT
BRANCH  10  21
ATOM      2 CL   UNL     1       8.058  -0.822  22.856  0.00  0.00    -0.084 Cl
ATOM     21  C   UNL     1       3.651  -0.228  23.613  0.00  0.00    +0.035 A 
ATOM     23  C   UNL     1       4.414   0.813  23.082  0.00  0.00    +0.025 A 
ATOM     24  C   UNL     1       4.251  -1.451  23.910  0.00  0.00    +0.025 A 
ATOM     27  C   UNL     1       5.777   0.629  22.848  0.00  0.00    +0.022 A 
ATOM     28  C   UNL     1       5.614  -1.635  23.675  0.00  0.00    +0.022 A 
ATOM     31  C   UNL     1       6.377  -0.595  23.144  0.00  0.00    +0.041 A 
ENDBRANCH  10  21
BRANCH  12  17
ATOM      4  O   UNL     1      -2.145   1.391  21.761  0.00  0.00    -0.336 OA
ATOM      9  N   UNL     1      -2.740   1.016  23.887  0.00  0.00    -0.190 NA
ATOM     11  N   UNL     1      -2.949   2.475  22.137  0.00  0.00    -0.056 NA
ATOM     17  C   UNL     1      -2.073   0.580  22.848  0.00  0.00    +0.249 A 
ATOM     20  C   UNL     1      -3.261   2.180  23.402  0.00  0.00    +0.202 A 
BRANCH  20  22
ATOM      1 CL   UNL     1      -3.597   6.001  26.837  0.00  0.00    -0.081 Cl
ATOM      3  F   UNL     1      -6.495   5.458  26.528  0.00  0.00    -0.204 F 
ATOM     22  C   UNL     1      -4.090   3.027  24.210  0.00  0.00    +0.024 A 
ATOM     25  C   UNL     1      -3.511   3.990  25.035  0.00  0.00    +0.034 A 
ATOM     26  C   UNL     1      -5.478   2.888  24.169  0.00  0.00    +0.014 A 
ATOM     29  C   UNL     1      -4.318   4.814  25.820  0.00  0.00    +0.077 A 
ATOM     30  C   UNL     1      -6.285   3.711  24.954  0.00  0.00    +0.040 A 
ATOM     32  C   UNL     1      -5.705   4.674  25.779  0.00  0.00    +0.142 A 
ENDBRANCH  20  22
ENDBRANCH  12  17
TORSDOF 3
ENDMDL
