MODEL 1
REMARK VINA RESULT:      -5.6      0.000      0.000
REMARK  Name = 11912776
REMARK  10 active torsions:
REMARK  status: ('A' for Active; 'I' for Inactive)
REMARK    1  A    between atoms: O_3  and  C_12
REMARK    2  A    between atoms: O_3  and  C_16
REMARK    3  A    between atoms: O_4  and  C_19
REMARK    4  A    between atoms: O_4  and  C_25
REMARK    5  A    between atoms: N_6  and  C_11
REMARK    6  A    between atoms: C_16  and  C_19
REMARK    7  A    between atoms: C_17  and  C_18
REMARK    8  A    between atoms: C_17  and  C_20
REMARK    9  A    between atoms: C_17  and  C_21
REMARK   10  A    between atoms: C_17  and  C_22
REMARK                            x       y       z     vdW  Elec       q    Type
REMARK                         _______ _______ _______ _____ _____    ______ ____
ROOT
ATOM      1  O   UNL     1      -2.400  -1.207  23.503  0.00  0.00    -0.369 OA
ATOM      2  O   UNL     1      -1.293  -1.180  26.364  0.00  0.00    -0.369 OA
ATOM      9  C   UNL     1      -2.218  -0.303  25.687  0.00  0.00    +0.172 C 
ATOM     10  C   UNL     1      -1.737  -0.179  24.255  0.00  0.00    +0.180 C 
ATOM     11  C   UNL     1      -3.567  -0.972  25.563  0.00  0.00    +0.130 C 
ATOM     12  C   UNL     1      -0.257  -0.445  24.382  0.00  0.00    +0.176 C 
ATOM     13  C   UNL     1      -3.385  -1.843  24.332  0.00  0.00    +0.185 C 
ATOM     14  C   UNL     1      -0.214  -1.495  25.470  0.00  0.00    +0.194 C 
ENDROOT
BRANCH  11   6
ATOM      6  N   UNL     1      -4.597   0.018  25.330  0.00  0.00    -0.306 N 
ATOM      7  N   UNL     1      -3.041   1.770  25.204  0.00  0.00    -0.219 NA
ATOM      8  N   UNL     1      -5.400   2.188  24.940  0.00  0.00    -0.223 NA
ATOM     15  C   UNL     1      -4.338   1.366  25.153  0.00  0.00    +0.216 A 
ATOM     18  C   UNL     1      -2.826   3.090  25.028  0.00  0.00    +0.052 A 
ATOM     23  C   UNL     1      -3.831   4.008  24.806  0.00  0.00    +0.043 A 
ATOM     24  C   UNL     1      -5.112   3.495  24.772  0.00  0.00    +0.116 A 
ATOM     26  H   UNL     1      -5.562  -0.279  25.237  0.00  0.00    +0.149 HD
BRANCH  18  17
ATOM     17  C   UNL     1      -1.407   3.551  25.082  0.00  0.00    +0.005 C 
ATOM     20  C   UNL     1      -0.535   3.183  23.836  0.00  0.00    +0.017 C 
ATOM     21  C   UNL     1      -1.322   5.104  25.204  0.00  0.00    +0.017 C 
ATOM     22  C   UNL     1      -0.660   2.940  26.308  0.00  0.00    +0.017 C 
ENDBRANCH  18  17
ENDBRANCH  11   6
BRANCH  12   3
ATOM      3  O   UNL     1       0.339  -0.897  23.187  0.00  0.00    -0.360 OA
BRANCH   3  16
ATOM     16  C   UNL     1       1.188   0.092  22.608  0.00  0.00    +0.280 C 
BRANCH  16  19
ATOM      5  O   UNL     1       3.008  -1.302  23.399  0.00  0.00    -0.248 OA
ATOM     19  C   UNL     1       2.618  -0.230  22.960  0.00  0.00    +0.333 C 
BRANCH  19   4
ATOM      4  O   UNL     1       3.393   0.865  22.708  0.00  0.00    -0.466 OA
ATOM     25  C   UNL     1       4.768   0.747  23.087  0.00  0.00    +0.280 C 
ENDBRANCH  19   4
ENDBRANCH  16  19
ENDBRANCH   3  16
ENDBRANCH  12   3
TORSDOF 6
ENDMDL
MODEL 2
REMARK VINA RESULT:      -4.4      2.935      6.626
REMARK  Name = 11912776
REMARK  10 active torsions:
REMARK  status: ('A' for Active; 'I' for Inactive)
REMARK    1  A    between atoms: O_3  and  C_12
REMARK    2  A    between atoms: O_3  and  C_16
REMARK    3  A    between atoms: O_4  and  C_19
REMARK    4  A    between atoms: O_4  and  C_25
REMARK    5  A    between atoms: N_6  and  C_11
REMARK    6  A    between atoms: C_16  and  C_19
REMARK    7  A    between atoms: C_17  and  C_18
REMARK    8  A    between atoms: C_17  and  C_20
REMARK    9  A    between atoms: C_17  and  C_21
REMARK   10  A    between atoms: C_17  and  C_22
REMARK                            x       y       z     vdW  Elec       q    Type
REMARK                         _______ _______ _______ _____ _____    ______ ____
ROOT
ATOM      1  O   UNL     1      -2.304   2.100  24.813  0.00  0.00    -0.369 OA
ATOM      2  O   UNL     1      -0.536   4.585  24.476  0.00  0.00    -0.369 OA
ATOM      9  C   UNL     1      -0.232   3.248  24.925  0.00  0.00    +0.172 C 
ATOM     10  C   UNL     1      -1.427   2.774  25.729  0.00  0.00    +0.180 C 
ATOM     11  C   UNL     1      -0.187   2.304  23.747  0.00  0.00    +0.130 C 
ATOM     12  C   UNL     1      -2.023   4.068  26.226  0.00  0.00    +0.176 C 
ATOM     13  C   UNL     1      -1.655   1.974  23.538  0.00  0.00    +0.185 C 
ATOM     14  C   UNL     1      -1.782   4.999  25.059  0.00  0.00    +0.194 C 
ENDROOT
BRANCH  11   6
ATOM      6  N   UNL     1       0.552   1.108  24.091  0.00  0.00    -0.306 N 
ATOM      7  N   UNL     1      -1.404  -0.165  24.336  0.00  0.00    -0.219 NA
ATOM      8  N   UNL     1       0.767  -1.152  24.686  0.00  0.00    -0.223 NA
ATOM     15  C   UNL     1      -0.046  -0.106  24.380  0.00  0.00    +0.216 A 
ATOM     18  C   UNL     1      -1.953  -1.362  24.624  0.00  0.00    +0.052 A 
ATOM     23  C   UNL     1      -1.220  -2.486  24.946  0.00  0.00    +0.043 A 
ATOM     24  C   UNL     1       0.150  -2.319  24.963  0.00  0.00    +0.116 A 
ATOM     26  H   UNL     1       1.566   1.127  24.075  0.00  0.00    +0.149 HD
BRANCH  18  17
ATOM     17  C   UNL     1      -3.443  -1.445  24.580  0.00  0.00    +0.005 C 
ATOM     20  C   UNL     1      -4.127  -0.628  23.435  0.00  0.00    +0.017 C 
ATOM     21  C   UNL     1      -3.922  -2.917  24.384  0.00  0.00    +0.017 C 
ATOM     22  C   UNL     1      -4.077  -0.916  25.904  0.00  0.00    +0.017 C 
ENDBRANCH  18  17
ENDBRANCH  11   6
BRANCH  12   3
ATOM      3  O   UNL     1      -3.391   3.970  26.552  0.00  0.00    -0.360 OA
BRANCH   3  16
ATOM     16  C   UNL     1      -4.225   4.163  25.412  0.00  0.00    +0.280 C 
BRANCH  16  19
ATOM      5  O   UNL     1      -5.429   2.362  24.322  0.00  0.00    -0.248 OA
ATOM     19  C   UNL     1      -5.203   3.020  25.328  0.00  0.00    +0.333 C 
BRANCH  19   4
ATOM      4  O   UNL     1      -5.788   2.846  26.550  0.00  0.00    -0.466 OA
ATOM     25  C   UNL     1      -6.559   1.649  26.698  0.00  0.00    +0.280 C 
ENDBRANCH  19   4
ENDBRANCH  16  19
ENDBRANCH   3  16
ENDBRANCH  12   3
TORSDOF 6
ENDMDL
MODEL 3
REMARK VINA RESULT:      -4.4      2.904      5.198
REMARK  Name = 11912776
REMARK  10 active torsions:
REMARK  status: ('A' for Active; 'I' for Inactive)
REMARK    1  A    between atoms: O_3  and  C_12
REMARK    2  A    between atoms: O_3  and  C_16
REMARK    3  A    between atoms: O_4  and  C_19
REMARK    4  A    between atoms: O_4  and  C_25
REMARK    5  A    between atoms: N_6  and  C_11
REMARK    6  A    between atoms: C_16  and  C_19
REMARK    7  A    between atoms: C_17  and  C_18
REMARK    8  A    between atoms: C_17  and  C_20
REMARK    9  A    between atoms: C_17  and  C_21
REMARK   10  A    between atoms: C_17  and  C_22
REMARK                            x       y       z     vdW  Elec       q    Type
REMARK                         _______ _______ _______ _____ _____    ______ ____
ROOT
ATOM      1  O   UNL     1      -1.009   4.456  25.892  0.00  0.00    -0.369 OA
ATOM      2  O   UNL     1      -0.410   2.494  23.611  0.00  0.00    -0.369 OA
ATOM      9  C   UNL     1      -1.594   2.701  24.408  0.00  0.00    +0.172 C 
ATOM     10  C   UNL     1      -1.125   3.027  25.813  0.00  0.00    +0.180 C 
ATOM     11  C   UNL     1      -2.306   3.956  23.961  0.00  0.00    +0.130 C 
ATOM     12  C   UNL     1       0.223   2.351  25.873  0.00  0.00    +0.176 C 
ATOM     13  C   UNL     1      -1.539   5.043  24.694  0.00  0.00    +0.185 C 
ATOM     14  C   UNL     1       0.742   2.549  24.467  0.00  0.00    +0.194 C 
ENDROOT
BRANCH  11   6
ATOM      6  N   UNL     1      -3.686   3.933  24.399  0.00  0.00    -0.306 N 
ATOM      7  N   UNL     1      -3.691   1.597  24.625  0.00  0.00    -0.219 NA
ATOM      8  N   UNL     1      -5.660   2.894  25.125  0.00  0.00    -0.223 NA
ATOM     15  C   UNL     1      -4.366   2.773  24.726  0.00  0.00    +0.216 A 
ATOM     18  C   UNL     1      -4.385   0.488  24.950  0.00  0.00    +0.052 A 
ATOM     23  C   UNL     1      -5.700   0.499  25.367  0.00  0.00    +0.043 A 
ATOM     24  C   UNL     1      -6.293   1.744  25.435  0.00  0.00    +0.116 A 
ATOM     26  H   UNL     1      -4.182   4.808  24.528  0.00  0.00    +0.149 HD
BRANCH  18  17
ATOM     17  C   UNL     1      -3.659  -0.812  24.845  0.00  0.00    +0.005 C 
ATOM     20  C   UNL     1      -3.467  -1.585  26.192  0.00  0.00    +0.017 C 
ATOM     21  C   UNL     1      -4.408  -1.803  23.901  0.00  0.00    +0.017 C 
ATOM     22  C   UNL     1      -2.221  -0.612  24.273  0.00  0.00    +0.017 C 
ENDBRANCH  18  17
ENDBRANCH  11   6
BRANCH  12   3
ATOM      3  O   UNL     1       1.087   2.904  26.840  0.00  0.00    -0.360 OA
BRANCH   3  16
ATOM     16  C   UNL     1       0.875   2.338  28.131  0.00  0.00    +0.280 C 
BRANCH  16  19
ATOM      5  O   UNL     1       3.187   2.957  28.525  0.00  0.00    -0.248 OA
ATOM     19  C   UNL     1       2.134   2.499  28.944  0.00  0.00    +0.333 C 
BRANCH  19   4
ATOM      4  O   UNL     1       1.900   2.053  30.214  0.00  0.00    -0.466 OA
ATOM     25  C   UNL     1       0.727   2.577  30.845  0.00  0.00    +0.280 C 
ENDBRANCH  19   4
ENDBRANCH  16  19
ENDBRANCH   3  16
ENDBRANCH  12   3
TORSDOF 6
ENDMDL
MODEL 4
REMARK VINA RESULT:      -2.3      2.802      5.318
REMARK  Name = 11912776
REMARK  10 active torsions:
REMARK  status: ('A' for Active; 'I' for Inactive)
REMARK    1  A    between atoms: O_3  and  C_12
REMARK    2  A    between atoms: O_3  and  C_16
REMARK    3  A    between atoms: O_4  and  C_19
REMARK    4  A    between atoms: O_4  and  C_25
REMARK    5  A    between atoms: N_6  and  C_11
REMARK    6  A    between atoms: C_16  and  C_19
REMARK    7  A    between atoms: C_17  and  C_18
REMARK    8  A    between atoms: C_17  and  C_20
REMARK    9  A    between atoms: C_17  and  C_21
REMARK   10  A    between atoms: C_17  and  C_22
REMARK                            x       y       z     vdW  Elec       q    Type
REMARK                         _______ _______ _______ _____ _____    ______ ____
ROOT
ATOM      1  O   UNL     1      -3.141   1.945  24.694  0.00  0.00    -0.369 OA
ATOM      2  O   UNL     1      -5.791   3.170  25.635  0.00  0.00    -0.369 OA
ATOM      9  C   UNL     1      -5.509   2.074  24.742  0.00  0.00    +0.172 C 
ATOM     10  C   UNL     1      -4.266   2.454  23.960  0.00  0.00    +0.180 C 
ATOM     11  C   UNL     1      -5.084   0.858  25.532  0.00  0.00    +0.130 C 
ATOM     12  C   UNL     1      -4.314   3.963  23.983  0.00  0.00    +0.176 C 
ATOM     13  C   UNL     1      -3.610   1.129  25.778  0.00  0.00    +0.185 C 
ATOM     14  C   UNL     1      -4.877   4.243  25.359  0.00  0.00    +0.194 C 
ENDROOT
BRANCH  11   6
ATOM      6  N   UNL     1      -5.249  -0.340  24.737  0.00  0.00    -0.306 N 
ATOM      7  N   UNL     1      -2.990  -0.934  24.963  0.00  0.00    -0.219 NA
ATOM      8  N   UNL     1      -4.512  -2.311  23.698  0.00  0.00    -0.223 NA
ATOM     15  C   UNL     1      -4.220  -1.221  24.457  0.00  0.00    +0.216 A 
ATOM     18  C   UNL     1      -2.011  -1.814  24.670  0.00  0.00    +0.052 A 
ATOM     23  C   UNL     1      -2.201  -2.950  23.910  0.00  0.00    +0.043 A 
ATOM     24  C   UNL     1      -3.485  -3.148  23.445  0.00  0.00    +0.116 A 
ATOM     26  H   UNL     1      -6.172  -0.591  24.400  0.00  0.00    +0.149 HD
BRANCH  18  17
ATOM     17  C   UNL     1      -0.655  -1.514  25.217  0.00  0.00    +0.005 C 
ATOM     20  C   UNL     1       0.243  -2.762  25.507  0.00  0.00    +0.017 C 
ATOM     21  C   UNL     1       0.170  -0.630  24.230  0.00  0.00    +0.017 C 
ATOM     22  C   UNL     1      -0.748  -0.745  26.571  0.00  0.00    +0.017 C 
ENDBRANCH  18  17
ENDBRANCH  11   6
BRANCH  12   3
ATOM      3  O   UNL     1      -3.055   4.568  23.793  0.00  0.00    -0.360 OA
BRANCH   3  16
ATOM     16  C   UNL     1      -2.438   4.916  25.030  0.00  0.00    +0.280 C 
BRANCH  16  19
ATOM      5  O   UNL     1      -0.161   4.561  24.278  0.00  0.00    -0.248 OA
ATOM     19  C   UNL     1      -1.058   4.313  25.071  0.00  0.00    +0.333 C 
BRANCH  19   4
ATOM      4  O   UNL     1      -0.981   3.455  26.130  0.00  0.00    -0.466 OA
ATOM     25  C   UNL     1       0.148   2.575  26.128  0.00  0.00    +0.280 C 
ENDBRANCH  19   4
ENDBRANCH  16  19
ENDBRANCH   3  16
ENDBRANCH  12   3
TORSDOF 6
ENDMDL
MODEL 5
REMARK VINA RESULT:      -2.0      1.796      3.807
REMARK  Name = 11912776
REMARK  10 active torsions:
REMARK  status: ('A' for Active; 'I' for Inactive)
REMARK    1  A    between atoms: O_3  and  C_12
REMARK    2  A    between atoms: O_3  and  C_16
REMARK    3  A    between atoms: O_4  and  C_19
REMARK    4  A    between atoms: O_4  and  C_25
REMARK    5  A    between atoms: N_6  and  C_11
REMARK    6  A    between atoms: C_16  and  C_19
REMARK    7  A    between atoms: C_17  and  C_18
REMARK    8  A    between atoms: C_17  and  C_20
REMARK    9  A    between atoms: C_17  and  C_21
REMARK   10  A    between atoms: C_17  and  C_22
REMARK                            x       y       z     vdW  Elec       q    Type
REMARK                         _______ _______ _______ _____ _____    ______ ____
ROOT
ATOM      1  O   UNL     1      -1.553   1.848  25.490  0.00  0.00    -0.369 OA
ATOM      2  O   UNL     1      -0.342   4.497  24.526  0.00  0.00    -0.369 OA
ATOM      9  C   UNL     1      -1.684   3.974  24.448  0.00  0.00    +0.172 C 
ATOM     10  C   UNL     1      -1.560   2.483  24.202  0.00  0.00    +0.180 C 
ATOM     11  C   UNL     1      -2.356   4.066  25.798  0.00  0.00    +0.130 C 
ATOM     12  C   UNL     1      -0.220   2.375  23.517  0.00  0.00    +0.176 C 
ATOM     13  C   UNL     1      -1.839   2.825  26.504  0.00  0.00    +0.185 C 
ATOM     14  C   UNL     1       0.585   3.445  24.220  0.00  0.00    +0.194 C 
ENDROOT
BRANCH  11   6
ATOM      6  N   UNL     1      -3.794   3.997  25.649  0.00  0.00    -0.306 N 
ATOM      7  N   UNL     1      -3.750   1.689  25.228  0.00  0.00    -0.219 NA
ATOM      8  N   UNL     1      -5.832   2.903  25.257  0.00  0.00    -0.223 NA
ATOM     15  C   UNL     1      -4.480   2.828  25.369  0.00  0.00    +0.216 A 
ATOM     18  C   UNL     1      -4.451   0.570  24.955  0.00  0.00    +0.052 A 
ATOM     23  C   UNL     1      -5.824   0.536  24.821  0.00  0.00    +0.043 A 
ATOM     24  C   UNL     1      -6.469   1.746  24.983  0.00  0.00    +0.116 A 
ATOM     26  H   UNL     1      -4.351   4.830  25.805  0.00  0.00    +0.149 HD
BRANCH  18  17
ATOM     17  C   UNL     1      -3.667  -0.690  24.797  0.00  0.00    +0.005 C 
ATOM     20  C   UNL     1      -2.293  -0.538  24.063  0.00  0.00    +0.017 C 
ATOM     21  C   UNL     1      -3.330  -1.325  26.181  0.00  0.00    +0.017 C 
ATOM     22  C   UNL     1      -4.462  -1.751  23.973  0.00  0.00    +0.017 C 
ENDBRANCH  18  17
ENDBRANCH  11   6
BRANCH  12   3
ATOM      3  O   UNL     1       0.372   1.101  23.637  0.00  0.00    -0.360 OA
BRANCH   3  16
ATOM     16  C   UNL     1       1.791   1.159  23.511  0.00  0.00    +0.280 C 
BRANCH  16  19
ATOM      5  O   UNL     1       1.623  -0.300  21.582  0.00  0.00    -0.248 OA
ATOM     19  C   UNL     1       2.241   0.072  22.569  0.00  0.00    +0.333 C 
BRANCH  19   4
ATOM      4  O   UNL     1       3.439  -0.420  23.000  0.00  0.00    -0.466 OA
ATOM     25  C   UNL     1       4.531   0.506  22.971  0.00  0.00    +0.280 C 
ENDBRANCH  19   4
ENDBRANCH  16  19
ENDBRANCH   3  16
ENDBRANCH  12   3
TORSDOF 6
ENDMDL
