MODEL 1
REMARK VINA RESULT:      -5.0      0.000      0.000
REMARK  Name = 75536960
REMARK  5 active torsions:
REMARK  status: ('A' for Active; 'I' for Inactive)
REMARK    1  A    between atoms: O_2  and  C_7
REMARK    2  A    between atoms: O_3  and  C_16
REMARK    3  A    between atoms: O_3  and  C_17
REMARK    4  A    between atoms: N_4  and  C_9
REMARK    5  A    between atoms: C_9  and  C_12
REMARK                            x       y       z     vdW  Elec       q    Type
REMARK                         _______ _______ _______ _____ _____    ______ ____
ROOT
ATOM      1  O   UNL     1      -4.567   4.040  24.567  0.00  0.00    -0.376 OA
ATOM      4  N   UNL     1      -3.169   1.265  24.836  0.00  0.00    -0.293 NA
ATOM      6  C   UNL     1      -4.503   0.896  25.321  0.00  0.00    +0.118 C 
ATOM      7  C   UNL     1      -5.594   1.979  25.314  0.00  0.00    +0.154 C 
ATOM      8  C   UNL     1      -3.174   2.191  23.702  0.00  0.00    +0.113 C 
ATOM     10  C   UNL     1      -5.103   3.366  25.701  0.00  0.00    +0.192 C 
ATOM     11  C   UNL     1      -3.255   3.632  24.206  0.00  0.00    +0.175 C 
ENDROOT
BRANCH   7   2
ATOM      2  O   UNL     1      -6.608   1.594  26.244  0.00  0.00    -0.388 OA
ATOM     18  H   UNL     1      -6.821   2.374  26.784  0.00  0.00    +0.210 HD
ENDBRANCH   7   2
BRANCH   4   9
ATOM      9  C   UNL     1      -2.390   0.061  24.541  0.00  0.00    +0.121 C 
BRANCH   9  12
ATOM      5  N   UNL     1       0.936   1.861  24.373  0.00  0.00    -0.221 NA
ATOM     12  C   UNL     1      -0.971   0.390  24.161  0.00  0.00    -0.015 A 
ATOM     13  C   UNL     1      -0.258  -0.420  23.284  0.00  0.00    +0.011 A 
ATOM     14  C   UNL     1      -0.335   1.509  24.673  0.00  0.00    +0.119 A 
ATOM     15  C   UNL     1       1.051  -0.091  22.952  0.00  0.00    +0.067 A 
ATOM     16  C   UNL     1       1.597   1.049  23.518  0.00  0.00    +0.214 A 
BRANCH  16   3
ATOM      3  O   UNL     1       2.886   1.394  23.206  0.00  0.00    -0.480 OA
ATOM     17  C   UNL     1       3.709   0.369  22.664  0.00  0.00    +0.279 C 
ENDBRANCH  16   3
ENDBRANCH   9  12
ENDBRANCH   4   9
TORSDOF 4
ENDMDL
MODEL 2
REMARK VINA RESULT:      -4.7      3.068      5.305
REMARK  Name = 75536960
REMARK  5 active torsions:
REMARK  status: ('A' for Active; 'I' for Inactive)
REMARK    1  A    between atoms: O_2  and  C_7
REMARK    2  A    between atoms: O_3  and  C_16
REMARK    3  A    between atoms: O_3  and  C_17
REMARK    4  A    between atoms: N_4  and  C_9
REMARK    5  A    between atoms: C_9  and  C_12
REMARK                            x       y       z     vdW  Elec       q    Type
REMARK                         _______ _______ _______ _____ _____    ______ ____
ROOT
ATOM      1  O   UNL     1      -2.529  -3.136  24.146  0.00  0.00    -0.376 OA
ATOM      4  N   UNL     1      -3.880  -0.426  24.892  0.00  0.00    -0.293 NA
ATOM      6  C   UNL     1      -2.475  -0.019  25.006  0.00  0.00    +0.118 C 
ATOM      7  C   UNL     1      -1.397  -1.059  24.659  0.00  0.00    +0.154 C 
ATOM      8  C   UNL     1      -4.161  -1.319  23.766  0.00  0.00    +0.113 C 
ATOM     10  C   UNL     1      -1.721  -2.475  25.114  0.00  0.00    +0.192 C 
ATOM     11  C   UNL     1      -3.901  -2.769  24.174  0.00  0.00    +0.175 C 
ENDROOT
BRANCH   7   2
ATOM      2  O   UNL     1      -0.178  -0.661  25.289  0.00  0.00    -0.388 OA
ATOM     18  H   UNL     1       0.553  -0.933  24.708  0.00  0.00    +0.210 HD
ENDBRANCH   7   2
BRANCH   4   9
ATOM      9  C   UNL     1      -4.745   0.754  24.868  0.00  0.00    +0.121 C 
BRANCH   9  12
ATOM      5  N   UNL     1      -2.210   3.463  24.114  0.00  0.00    -0.221 NA
ATOM     12  C   UNL     1      -3.956   2.031  24.979  0.00  0.00    -0.015 A 
ATOM     13  C   UNL     1      -4.209   2.945  25.997  0.00  0.00    +0.011 A 
ATOM     14  C   UNL     1      -2.955   2.334  24.071  0.00  0.00    +0.119 A 
ATOM     15  C   UNL     1      -3.464   4.116  26.074  0.00  0.00    +0.067 A 
ATOM     16  C   UNL     1      -2.485   4.325  25.117  0.00  0.00    +0.214 A 
BRANCH  16   3
ATOM      3  O   UNL     1      -1.737   5.473  25.172  0.00  0.00    -0.480 OA
ATOM     17  C   UNL     1      -0.415   5.399  24.654  0.00  0.00    +0.279 C 
ENDBRANCH  16   3
ENDBRANCH   9  12
ENDBRANCH   4   9
TORSDOF 4
ENDMDL
MODEL 3
REMARK VINA RESULT:      -4.1      2.844      4.486
REMARK  Name = 75536960
REMARK  5 active torsions:
REMARK  status: ('A' for Active; 'I' for Inactive)
REMARK    1  A    between atoms: O_2  and  C_7
REMARK    2  A    between atoms: O_3  and  C_16
REMARK    3  A    between atoms: O_3  and  C_17
REMARK    4  A    between atoms: N_4  and  C_9
REMARK    5  A    between atoms: C_9  and  C_12
REMARK                            x       y       z     vdW  Elec       q    Type
REMARK                         _______ _______ _______ _____ _____    ______ ____
ROOT
ATOM      1  O   UNL     1      -3.883  -3.032  24.340  0.00  0.00    -0.376 OA
ATOM      4  N   UNL     1      -1.523  -0.994  24.319  0.00  0.00    -0.293 NA
ATOM      6  C   UNL     1      -2.608  -0.082  24.695  0.00  0.00    +0.118 C 
ATOM      7  C   UNL     1      -4.011  -0.678  24.891  0.00  0.00    +0.154 C 
ATOM      8  C   UNL     1      -1.598  -2.313  24.948  0.00  0.00    +0.113 C 
ATOM     10  C   UNL     1      -4.373  -1.771  23.895  0.00  0.00    +0.192 C 
ATOM     11  C   UNL     1      -2.495  -3.235  24.120  0.00  0.00    +0.175 C 
ENDROOT
BRANCH   7   2
ATOM      2  O   UNL     1      -4.965   0.376  24.754  0.00  0.00    -0.388 OA
ATOM     18  H   UNL     1      -5.564   0.136  24.026  0.00  0.00    +0.210 HD
ENDBRANCH   7   2
BRANCH   4   9
ATOM      9  C   UNL     1      -0.226  -0.359  24.558  0.00  0.00    +0.121 C 
BRANCH   9  12
ATOM      5  N   UNL     1      -0.665   3.308  23.727  0.00  0.00    -0.221 NA
ATOM     12  C   UNL     1      -0.354   1.131  24.732  0.00  0.00    -0.015 A 
ATOM     13  C   UNL     1      -0.289   1.714  25.993  0.00  0.00    +0.011 A 
ATOM     14  C   UNL     1      -0.542   1.963  23.641  0.00  0.00    +0.119 A 
ATOM     15  C   UNL     1      -0.411   3.093  26.121  0.00  0.00    +0.067 A 
ATOM     16  C   UNL     1      -0.596   3.838  24.968  0.00  0.00    +0.214 A 
BRANCH  16   3
ATOM      3  O   UNL     1      -0.719   5.199  25.070  0.00  0.00    -0.480 OA
ATOM     17  C   UNL     1      -2.041   5.717  25.151  0.00  0.00    +0.279 C 
ENDBRANCH  16   3
ENDBRANCH   9  12
ENDBRANCH   4   9
TORSDOF 4
ENDMDL
MODEL 4
REMARK VINA RESULT:      -4.0      1.190      2.116
REMARK  Name = 75536960
REMARK  5 active torsions:
REMARK  status: ('A' for Active; 'I' for Inactive)
REMARK    1  A    between atoms: O_2  and  C_7
REMARK    2  A    between atoms: O_3  and  C_16
REMARK    3  A    between atoms: O_3  and  C_17
REMARK    4  A    between atoms: N_4  and  C_9
REMARK    5  A    between atoms: C_9  and  C_12
REMARK                            x       y       z     vdW  Elec       q    Type
REMARK                         _______ _______ _______ _____ _____    ______ ____
ROOT
ATOM      1  O   UNL     1      -5.017   3.280  24.804  0.00  0.00    -0.376 OA
ATOM      4  N   UNL     1      -2.531   1.396  24.857  0.00  0.00    -0.293 NA
ATOM      6  C   UNL     1      -1.895   2.628  25.338  0.00  0.00    +0.118 C 
ATOM      7  C   UNL     1      -2.785   3.866  25.534  0.00  0.00    +0.154 C 
ATOM      8  C   UNL     1      -3.877   1.166  25.387  0.00  0.00    +0.113 C 
ATOM     10  C   UNL     1      -3.861   4.041  24.472  0.00  0.00    +0.192 C 
ATOM     11  C   UNL     1      -4.909   1.891  24.523  0.00  0.00    +0.175 C 
ENDROOT
BRANCH   7   2
ATOM      2  O   UNL     1      -1.948   5.023  25.510  0.00  0.00    -0.388 OA
ATOM     18  H   UNL     1      -1.802   5.298  26.431  0.00  0.00    +0.210 HD
ENDBRANCH   7   2
BRANCH   4   9
ATOM      9  C   UNL     1      -1.656   0.250  25.101  0.00  0.00    +0.121 C 
BRANCH   9  12
ATOM      5  N   UNL     1       1.631   1.622  23.818  0.00  0.00    -0.221 NA
ATOM     12  C   UNL     1      -0.364   0.357  24.336  0.00  0.00    -0.015 A 
ATOM     13  C   UNL     1       0.042  -0.651  23.468  0.00  0.00    +0.011 A 
ATOM     14  C   UNL     1       0.458   1.463  24.475  0.00  0.00    +0.119 A 
ATOM     15  C   UNL     1       1.241  -0.524  22.776  0.00  0.00    +0.067 A 
ATOM     16  C   UNL     1       1.991   0.622  22.984  0.00  0.00    +0.214 A 
BRANCH  16   3
ATOM      3  O   UNL     1       3.177   0.770  22.313  0.00  0.00    -0.480 OA
ATOM     17  C   UNL     1       4.367   0.552  23.061  0.00  0.00    +0.279 C 
ENDBRANCH  16   3
ENDBRANCH   9  12
ENDBRANCH   4   9
TORSDOF 4
ENDMDL
MODEL 5
REMARK VINA RESULT:      -3.8      3.321      5.182
REMARK  Name = 75536960
REMARK  5 active torsions:
REMARK  status: ('A' for Active; 'I' for Inactive)
REMARK    1  A    between atoms: O_2  and  C_7
REMARK    2  A    between atoms: O_3  and  C_16
REMARK    3  A    between atoms: O_3  and  C_17
REMARK    4  A    between atoms: N_4  and  C_9
REMARK    5  A    between atoms: C_9  and  C_12
REMARK                            x       y       z     vdW  Elec       q    Type
REMARK                         _______ _______ _______ _____ _____    ______ ____
ROOT
ATOM      1  O   UNL     1      -1.278  -2.478  25.130  0.00  0.00    -0.376 OA
ATOM      4  N   UNL     1      -3.508  -0.377  24.544  0.00  0.00    -0.293 NA
ATOM      6  C   UNL     1      -4.261  -1.599  24.243  0.00  0.00    +0.118 C 
ATOM      7  C   UNL     1      -3.554  -2.948  24.454  0.00  0.00    +0.154 C 
ATOM      8  C   UNL     1      -2.622  -0.485  25.705  0.00  0.00    +0.113 C 
ATOM     10  C   UNL     1      -2.085  -2.956  24.058  0.00  0.00    +0.192 C 
ATOM     11  C   UNL     1      -1.273  -1.065  25.279  0.00  0.00    +0.175 C 
ENDROOT
BRANCH   7   2
ATOM      2  O   UNL     1      -4.228  -3.931  23.665  0.00  0.00    -0.388 OA
ATOM     18  H   UNL     1      -3.589  -4.637  23.469  0.00  0.00    +0.210 HD
ENDBRANCH   7   2
BRANCH   4   9
ATOM      9  C   UNL     1      -4.421   0.759  24.671  0.00  0.00    +0.121 C 
BRANCH   9  12
ATOM      5  N   UNL     1      -1.778   3.449  24.349  0.00  0.00    -0.221 NA
ATOM     12  C   UNL     1      -3.682   2.054  24.873  0.00  0.00    -0.015 A 
ATOM     13  C   UNL     1      -4.173   3.035  25.728  0.00  0.00    +0.011 A 
ATOM     14  C   UNL     1      -2.491   2.307  24.213  0.00  0.00    +0.119 A 
ATOM     15  C   UNL     1      -3.468   4.221  25.894  0.00  0.00    +0.067 A 
ATOM     16  C   UNL     1      -2.287   4.377  25.188  0.00  0.00    +0.214 A 
BRANCH  16   3
ATOM      3  O   UNL     1      -1.574   5.539  25.335  0.00  0.00    -0.480 OA
ATOM     17  C   UNL     1      -0.346   5.630  24.623  0.00  0.00    +0.279 C 
ENDBRANCH  16   3
ENDBRANCH   9  12
ENDBRANCH   4   9
TORSDOF 4
ENDMDL
MODEL 6
REMARK VINA RESULT:      -3.8     15.696     17.102
REMARK  Name = 75536960
REMARK  5 active torsions:
REMARK  status: ('A' for Active; 'I' for Inactive)
REMARK    1  A    between atoms: O_2  and  C_7
REMARK    2  A    between atoms: O_3  and  C_16
REMARK    3  A    between atoms: O_3  and  C_17
REMARK    4  A    between atoms: N_4  and  C_9
REMARK    5  A    between atoms: C_9  and  C_12
REMARK                            x       y       z     vdW  Elec       q    Type
REMARK                         _______ _______ _______ _____ _____    ______ ____
ROOT
ATOM      1  O   UNL     1      -3.628  -9.515   9.826  0.00  0.00    -0.376 OA
ATOM      4  N   UNL     1      -6.012  -9.737  11.825  0.00  0.00    -0.293 NA
ATOM      6  C   UNL     1      -6.681  -8.993  10.754  0.00  0.00    +0.118 C 
ATOM      7  C   UNL     1      -5.877  -8.690   9.479  0.00  0.00    +0.154 C 
ATOM      8  C   UNL     1      -5.099 -10.781  11.356  0.00  0.00    +0.113 C 
ATOM     10  C   UNL     1      -4.418  -8.334   9.727  0.00  0.00    +0.192 C 
ATOM     11  C   UNL     1      -3.720 -10.182  11.077  0.00  0.00    +0.175 C 
ENDROOT
BRANCH   7   2
ATOM      2  O   UNL     1      -6.494  -7.584   8.817  0.00  0.00    -0.388 OA
ATOM     18  H   UNL     1      -5.825  -6.883   8.735  0.00  0.00    +0.210 HD
ENDBRANCH   7   2
BRANCH   4   9
ATOM      9  C   UNL     1      -7.001 -10.272  12.761  0.00  0.00    +0.121 C 
BRANCH   9  12
ATOM      5  N   UNL     1      -4.649 -10.504  15.719  0.00  0.00    -0.221 NA
ATOM     12  C   UNL     1      -6.498 -10.256  14.180  0.00  0.00    -0.015 A 
ATOM     13  C   UNL     1      -7.355  -9.990  15.242  0.00  0.00    +0.011 A 
ATOM     14  C   UNL     1      -5.166 -10.504  14.468  0.00  0.00    +0.119 A 
ATOM     15  C   UNL     1      -6.861  -9.982  16.542  0.00  0.00    +0.067 A 
ATOM     16  C   UNL     1      -5.513 -10.243  16.724  0.00  0.00    +0.214 A 
BRANCH  16   3
ATOM      3  O   UNL     1      -5.002 -10.240  17.996  0.00  0.00    -0.480 OA
ATOM     17  C   UNL     1      -5.883 -10.639  19.040  0.00  0.00    +0.279 C 
ENDBRANCH  16   3
ENDBRANCH   9  12
ENDBRANCH   4   9
TORSDOF 4
ENDMDL
MODEL 7
REMARK VINA RESULT:      -3.8      1.273      2.071
REMARK  Name = 75536960
REMARK  5 active torsions:
REMARK  status: ('A' for Active; 'I' for Inactive)
REMARK    1  A    between atoms: O_2  and  C_7
REMARK    2  A    between atoms: O_3  and  C_16
REMARK    3  A    between atoms: O_3  and  C_17
REMARK    4  A    between atoms: N_4  and  C_9
REMARK    5  A    between atoms: C_9  and  C_12
REMARK                            x       y       z     vdW  Elec       q    Type
REMARK                         _______ _______ _______ _____ _____    ______ ____
ROOT
ATOM      1  O   UNL     1      -5.720   0.723  25.036  0.00  0.00    -0.376 OA
ATOM      4  N   UNL     1      -3.142   2.478  25.002  0.00  0.00    -0.293 NA
ATOM      6  C   UNL     1      -4.083   3.466  25.539  0.00  0.00    +0.118 C 
ATOM      7  C   UNL     1      -5.531   3.014  25.793  0.00  0.00    +0.154 C 
ATOM      8  C   UNL     1      -3.329   1.122  25.521  0.00  0.00    +0.113 C 
ATOM     10  C   UNL     1      -6.086   2.067  24.740  0.00  0.00    +0.192 C 
ATOM     11  C   UNL     1      -4.383   0.388  24.691  0.00  0.00    +0.175 C 
ENDROOT
BRANCH   7   2
ATOM      2  O   UNL     1      -6.361   4.177  25.822  0.00  0.00    -0.388 OA
ATOM     18  H   UNL     1      -5.854   4.887  26.251  0.00  0.00    +0.210 HD
ENDBRANCH   7   2
BRANCH   4   9
ATOM      9  C   UNL     1      -1.766   2.939  25.192  0.00  0.00    +0.121 C 
BRANCH   9  12
ATOM      5  N   UNL     1       1.517   1.609  23.856  0.00  0.00    -0.221 NA
ATOM     12  C   UNL     1      -0.775   2.052  24.488  0.00  0.00    -0.015 A 
ATOM     13  C   UNL     1      -1.185   0.893  23.837  0.00  0.00    +0.011 A 
ATOM     14  C   UNL     1       0.575   2.363  24.469  0.00  0.00    +0.119 A 
ATOM     15  C   UNL     1      -0.246   0.094  23.195  0.00  0.00    +0.067 A 
ATOM     16  C   UNL     1       1.080   0.493  23.234  0.00  0.00    +0.214 A 
BRANCH  16   3
ATOM      3  O   UNL     1       2.024  -0.280  22.609  0.00  0.00    -0.480 OA
ATOM     17  C   UNL     1       3.303   0.310  22.409  0.00  0.00    +0.279 C 
ENDBRANCH  16   3
ENDBRANCH   9  12
ENDBRANCH   4   9
TORSDOF 4
ENDMDL
MODEL 8
REMARK VINA RESULT:      -3.7      2.693      6.009
REMARK  Name = 75536960
REMARK  5 active torsions:
REMARK  status: ('A' for Active; 'I' for Inactive)
REMARK    1  A    between atoms: O_2  and  C_7
REMARK    2  A    between atoms: O_3  and  C_16
REMARK    3  A    between atoms: O_3  and  C_17
REMARK    4  A    between atoms: N_4  and  C_9
REMARK    5  A    between atoms: C_9  and  C_12
REMARK                            x       y       z     vdW  Elec       q    Type
REMARK                         _______ _______ _______ _____ _____    ______ ____
ROOT
ATOM      1  O   UNL     1      -1.115  -2.582  25.314  0.00  0.00    -0.376 OA
ATOM      4  N   UNL     1      -1.479   0.215  23.982  0.00  0.00    -0.293 NA
ATOM      6  C   UNL     1      -2.857  -0.274  23.866  0.00  0.00    +0.118 C 
ATOM      7  C   UNL     1      -3.183  -1.651  24.466  0.00  0.00    +0.154 C 
ATOM      8  C   UNL     1      -0.821  -0.129  25.243  0.00  0.00    +0.113 C 
ATOM     10  C   UNL     1      -2.088  -2.692  24.279  0.00  0.00    +0.192 C 
ATOM     11  C   UNL     1      -0.190  -1.518  25.141  0.00  0.00    +0.175 C 
ENDROOT
BRANCH   7   2
ATOM      2  O   UNL     1      -4.368  -2.141  23.836  0.00  0.00    -0.388 OA
ATOM     18  H   UNL     1      -4.225  -3.082  23.636  0.00  0.00    +0.210 HD
ENDBRANCH   7   2
BRANCH   4   9
ATOM      9  C   UNL     1      -1.433   1.655  23.729  0.00  0.00    +0.121 C 
BRANCH   9  12
ATOM      5  N   UNL     1      -4.961   2.829  24.437  0.00  0.00    -0.221 NA
ATOM     12  C   UNL     1      -2.587   2.375  24.372  0.00  0.00    -0.015 A 
ATOM     13  C   UNL     1      -2.389   3.224  25.457  0.00  0.00    +0.011 A 
ATOM     14  C   UNL     1      -3.881   2.213  23.905  0.00  0.00    +0.119 A 
ATOM     15  C   UNL     1      -3.475   3.875  26.031  0.00  0.00    +0.067 A 
ATOM     16  C   UNL     1      -4.729   3.646  25.488  0.00  0.00    +0.214 A 
BRANCH  16   3
ATOM      3  O   UNL     1      -5.815   4.276  26.037  0.00  0.00    -0.480 OA
ATOM     17  C   UNL     1      -6.333   5.393  25.326  0.00  0.00    +0.279 C 
ENDBRANCH  16   3
ENDBRANCH   9  12
ENDBRANCH   4   9
TORSDOF 4
ENDMDL
MODEL 9
REMARK VINA RESULT:      -3.4      2.001      6.231
REMARK  Name = 75536960
REMARK  5 active torsions:
REMARK  status: ('A' for Active; 'I' for Inactive)
REMARK    1  A    between atoms: O_2  and  C_7
REMARK    2  A    between atoms: O_3  and  C_16
REMARK    3  A    between atoms: O_3  and  C_17
REMARK    4  A    between atoms: N_4  and  C_9
REMARK    5  A    between atoms: C_9  and  C_12
REMARK                            x       y       z     vdW  Elec       q    Type
REMARK                         _______ _______ _______ _____ _____    ______ ____
ROOT
ATOM      1  O   UNL     1       1.363  -0.841  23.379  0.00  0.00    -0.376 OA
ATOM      4  N   UNL     1      -0.265   1.763  23.923  0.00  0.00    -0.293 NA
ATOM      6  C   UNL     1      -0.972   0.857  24.835  0.00  0.00    +0.118 C 
ATOM      7  C   UNL     1      -0.460  -0.588  24.951  0.00  0.00    +0.154 C 
ATOM      8  C   UNL     1       1.186   1.571  23.888  0.00  0.00    +0.113 C 
ATOM     10  C   UNL     1       0.009  -1.196  23.637  0.00  0.00    +0.192 C 
ATOM     11  C   UNL     1       1.543   0.477  22.880  0.00  0.00    +0.175 C 
ENDROOT
BRANCH   7   2
ATOM      2  O   UNL     1      -1.523  -1.397  25.457  0.00  0.00    -0.388 OA
ATOM     18  H   UNL     1      -2.158  -0.805  25.894  0.00  0.00    +0.210 HD
ENDBRANCH   7   2
BRANCH   4   9
ATOM      9  C   UNL     1      -0.615   3.152  24.223  0.00  0.00    +0.121 C 
BRANCH   9  12
ATOM      5  N   UNL     1      -4.386   2.843  24.336  0.00  0.00    -0.221 NA
ATOM     12  C   UNL     1      -2.036   3.282  24.700  0.00  0.00    -0.015 A 
ATOM     13  C   UNL     1      -2.336   3.928  25.895  0.00  0.00    +0.011 A 
ATOM     14  C   UNL     1      -3.088   2.761  23.964  0.00  0.00    +0.119 A 
ATOM     15  C   UNL     1      -3.658   4.032  26.310  0.00  0.00    +0.067 A 
ATOM     16  C   UNL     1      -4.637   3.478  25.501  0.00  0.00    +0.214 A 
BRANCH  16   3
ATOM      3  O   UNL     1      -5.949   3.568  25.890  0.00  0.00    -0.480 OA
ATOM     17  C   UNL     1      -6.600   2.350  26.229  0.00  0.00    +0.279 C 
ENDBRANCH  16   3
ENDBRANCH   9  12
ENDBRANCH   4   9
TORSDOF 4
ENDMDL
MODEL 10
REMARK VINA RESULT:      -3.4      2.689      4.300
REMARK  Name = 75536960
REMARK  5 active torsions:
REMARK  status: ('A' for Active; 'I' for Inactive)
REMARK    1  A    between atoms: O_2  and  C_7
REMARK    2  A    between atoms: O_3  and  C_16
REMARK    3  A    between atoms: O_3  and  C_17
REMARK    4  A    between atoms: N_4  and  C_9
REMARK    5  A    between atoms: C_9  and  C_12
REMARK                            x       y       z     vdW  Elec       q    Type
REMARK                         _______ _______ _______ _____ _____    ______ ____
ROOT
ATOM      1  O   UNL     1      -1.926   5.411  24.857  0.00  0.00    -0.376 OA
ATOM      4  N   UNL     1      -1.002   2.464  25.299  0.00  0.00    -0.293 NA
ATOM      6  C   UNL     1      -2.424   2.220  25.035  0.00  0.00    +0.118 C 
ATOM      7  C   UNL     1      -3.308   3.430  24.692  0.00  0.00    +0.154 C 
ATOM      8  C   UNL     1      -0.402   3.505  24.461  0.00  0.00    +0.113 C 
ATOM     10  C   UNL     1      -2.983   4.690  25.482  0.00  0.00    +0.192 C 
ATOM     11  C   UNL     1      -0.630   4.879  25.094  0.00  0.00    +0.175 C 
ENDROOT
BRANCH   7   2
ATOM      2  O   UNL     1      -4.666   3.079  24.962  0.00  0.00    -0.388 OA
ATOM     18  H   UNL     1      -5.193   3.895  24.920  0.00  0.00    +0.210 HD
ENDBRANCH   7   2
BRANCH   4   9
ATOM      9  C   UNL     1      -0.252   1.211  25.215  0.00  0.00    +0.121 C 
BRANCH   9  12
ATOM      5  N   UNL     1      -1.649  -2.117  24.074  0.00  0.00    -0.221 NA
ATOM     12  C   UNL     1      -1.163   0.019  25.098  0.00  0.00    -0.015 A 
ATOM     13  C   UNL     1      -2.321  -0.077  25.862  0.00  0.00    +0.011 A 
ATOM     14  C   UNL     1      -0.874  -1.019  24.227  0.00  0.00    +0.119 A 
ATOM     15  C   UNL     1      -3.143  -1.191  25.732  0.00  0.00    +0.067 A 
ATOM     16  C   UNL     1      -2.766  -2.174  24.833  0.00  0.00    +0.214 A 
BRANCH  16   3
ATOM      3  O   UNL     1      -3.560  -3.282  24.688  0.00  0.00    -0.480 OA
ATOM     17  C   UNL     1      -4.457  -3.285  23.584  0.00  0.00    +0.279 C 
ENDBRANCH  16   3
ENDBRANCH   9  12
ENDBRANCH   4   9
TORSDOF 4
ENDMDL
