MODEL 1
REMARK VINA RESULT:      11.5      0.000      0.000
REMARK  Name = 11883062
REMARK  8 active torsions:
REMARK  status: ('A' for Active; 'I' for Inactive)
REMARK    1  A    between atoms: O_3  and  C_15
REMARK    2  A    between atoms: O_4  and  C_20
REMARK    3  A    between atoms: C_10  and  C_18
REMARK    4  A    between atoms: C_12  and  C_20
REMARK    5  A    between atoms: C_12  and  C_21
REMARK    6  A    between atoms: C_13  and  C_23
REMARK    7  A    between atoms: C_23  and  C_24
REMARK    8  A    between atoms: C_31  and  C_32
REMARK                            x       y       z     vdW  Elec       q    Type
REMARK                         _______ _______ _______ _____ _____    ______ ____
ROOT
ATOM      1  S   UNL     1       0.301   2.182  25.841  0.00  0.00    -0.057 S 
ATOM      6  O   UNL     1       1.815  -0.115  22.086  0.00  0.00    -0.270 OA
ATOM      7  N   UNL     1      -0.398   1.176  23.562  0.00  0.00    -0.229 NA
ATOM      9  N   UNL     1       1.917   0.941  24.190  0.00  0.00    -0.261 N 
ATOM     10  C   UNL     1      -4.049   2.050  24.444  0.00  0.00    -0.019 C 
ATOM     11  C   UNL     1      -3.620   3.319  25.306  0.00  0.00    +0.011 C 
ATOM     12  C   UNL     1      -4.766   4.081  26.078  0.00  0.00    +0.021 C 
ATOM     13  C   UNL     1      -2.859   1.717  23.431  0.00  0.00    +0.054 C 
ATOM     14  C   UNL     1      -5.314   2.393  23.616  0.00  0.00    +0.010 C 
ATOM     15  C   UNL     1      -5.970   4.301  25.119  0.00  0.00    +0.123 C 
ATOM     16  C   UNL     1      -2.369   3.015  26.181  0.00  0.00    +0.049 C 
ATOM     17  C   UNL     1      -6.435   3.022  24.433  0.00  0.00    +0.032 C 
ATOM     18  C   UNL     1      -4.347   0.804  25.315  0.00  0.00    +0.012 C 
ATOM     19  C   UNL     1      -1.527   1.733  24.135  0.00  0.00    +0.058 A 
ATOM     21  C   UNL     1      -4.246   5.485  26.498  0.00  0.00    +0.016 C 
ATOM     22  C   UNL     1      -1.325   2.337  25.360  0.00  0.00    +0.015 A 
ATOM     25  C   UNL     1       0.623   1.348  24.375  0.00  0.00    +0.165 A 
ATOM     31  C   UNL     1       2.430   0.247  23.082  0.00  0.00    +0.250 C 
ATOM     40  H   UNL     1       2.540   1.229  24.938  0.00  0.00    +0.157 HD
ENDROOT
BRANCH  31  32
ATOM      2  F   UNL     1       7.904  -0.839  23.271  0.00  0.00    -0.205 F 
ATOM     32  C   UNL     1       3.888  -0.042  23.132  0.00  0.00    +0.037 A 
ATOM     33  C   UNL     1       4.773   0.926  22.709  0.00  0.00    +0.016 A 
ATOM     34  C   UNL     1       4.306  -1.270  23.599  0.00  0.00    +0.016 A 
ATOM     35  C   UNL     1       6.140   0.655  22.757  0.00  0.00    +0.039 A 
ATOM     36  C   UNL     1       5.673  -1.541  23.648  0.00  0.00    +0.039 A 
ATOM     37  C   UNL     1       6.591  -0.578  23.226  0.00  0.00    +0.123 A 
ENDBRANCH  31  32
BRANCH  15   3
ATOM      3  O   UNL     1      -7.073   4.874  25.820  0.00  0.00    -0.391 OA
ATOM     38  H   UNL     1      -7.153   5.802  25.549  0.00  0.00    +0.210 HD
ENDBRANCH  15   3
BRANCH  12  20
ATOM     20  C   UNL     1      -5.222   3.398  27.385  0.00  0.00    +0.165 C 
BRANCH  20   4
ATOM      4  O   UNL     1      -6.271   2.512  27.066  0.00  0.00    -0.394 OA
ATOM     39  H   UNL     1      -6.905   2.518  27.802  0.00  0.00    +0.209 HD
ENDBRANCH  20   4
ENDBRANCH  12  20
BRANCH  13  23
ATOM     23  C   UNL     1      -3.051   0.427  22.622  0.00  0.00    +0.106 C 
BRANCH  23  24
ATOM      5  O   UNL     1      -4.896  -0.592  23.704  0.00  0.00    -0.276 OA
ATOM      8  N   UNL     1      -2.829  -1.607  24.006  0.00  0.00    -0.301 N 
ATOM     24  C   UNL     1      -3.682  -0.631  23.490  0.00  0.00    +0.216 C 
ATOM     26  C   UNL     1      -1.390  -1.707  23.734  0.00  0.00    +0.108 C 
ATOM     27  C   UNL     1      -3.367  -2.667  24.862  0.00  0.00    +0.108 C 
ATOM     28  C   UNL     1      -0.594  -1.760  25.036  0.00  0.00    +0.019 C 
ATOM     29  C   UNL     1      -2.610  -2.738  26.185  0.00  0.00    +0.019 C 
ATOM     30  C   UNL     1      -1.105  -2.870  25.955  0.00  0.00    +0.003 C 
ENDBRANCH  23  24
ENDBRANCH  13  23
TORSDOF 6
ENDMDL
