MODEL 1
REMARK VINA RESULT:      -4.9      0.000      0.000
REMARK  Name = 51137997
REMARK  8 active torsions:
REMARK  status: ('A' for Active; 'I' for Inactive)
REMARK    1  A    between atoms: N_4  and  C_22
REMARK    2  A    between atoms: N_5  and  C_23
REMARK    3  A    between atoms: C_6  and  C_10
REMARK    4  A    between atoms: C_8  and  C_17
REMARK    5  A    between atoms: C_10  and  C_13
REMARK    6  A    between atoms: C_13  and  C_19
REMARK    7  A    between atoms: C_13  and  C_20
REMARK    8  A    between atoms: C_23  and  C_24
REMARK                            x       y       z     vdW  Elec       q    Type
REMARK                         _______ _______ _______ _____ _____    ______ ____
ROOT
ATOM      3  N   UNL     1      -1.618  -0.131  24.732  0.00  0.00    -0.299 NA
ATOM      4  N   UNL     1      -2.338   4.836  25.291  0.00  0.00    -0.349 N 
ATOM      6  C   UNL     1      -3.071   0.072  24.654  0.00  0.00    +0.085 C 
ATOM      7  C   UNL     1      -3.568   1.484  24.979  0.00  0.00    -0.021 A 
ATOM      8  C   UNL     1      -0.844   0.640  23.771  0.00  0.00    +0.145 C 
ATOM      9  C   UNL     1      -2.754   2.653  25.012  0.00  0.00    +0.008 A 
ATOM     11  C   UNL     1      -0.301   1.928  24.390  0.00  0.00    +0.065 C 
ATOM     12  C   UNL     1      -1.359   2.908  24.771  0.00  0.00    -0.020 A 
ATOM     14  C   UNL     1      -3.336   3.891  25.310  0.00  0.00    +0.049 A 
ATOM     15  C   UNL     1      -1.148   4.259  24.963  0.00  0.00    +0.090 A 
ATOM     16  C   UNL     1      -4.956   1.682  25.193  0.00  0.00    +0.006 A 
ATOM     18  C   UNL     1      -4.699   4.058  25.563  0.00  0.00    +0.026 A 
ATOM     21  C   UNL     1      -5.504   2.929  25.486  0.00  0.00    +0.002 A 
ATOM     22  C   UNL     1      -2.511   6.248  25.559  0.00  0.00    +0.149 C 
ATOM     30  H   UNL     1      -1.280   0.018  25.682  0.00  0.00    +0.123 HD
ENDROOT
BRANCH   8  17
ATOM      2  O   UNL     1       0.652  -1.191  24.092  0.00  0.00    -0.274 OA
ATOM      5  N   UNL     1       0.904   0.155  22.208  0.00  0.00    -0.310 N 
ATOM     17  C   UNL     1       0.306  -0.244  23.391  0.00  0.00    +0.231 C 
ATOM     31  H   UNL     1       0.519   0.941  21.694  0.00  0.00    +0.149 HD
BRANCH   5  23
ATOM     23  C   UNL     1       2.047  -0.519  21.636  0.00  0.00    +0.139 C 
BRANCH  23  24
ATOM      1  F   UNL     1       6.680   0.174  24.760  0.00  0.00    -0.205 F 
ATOM     24  C   UNL     1       3.283  -0.335  22.469  0.00  0.00    -0.030 A 
ATOM     25  C   UNL     1       3.916   0.908  22.512  0.00  0.00    +0.008 A 
ATOM     26  C   UNL     1       3.798  -1.405  23.201  0.00  0.00    +0.008 A 
ATOM     27  C   UNL     1       5.064   1.079  23.285  0.00  0.00    +0.038 A 
ATOM     28  C   UNL     1       4.945  -1.233  23.974  0.00  0.00    +0.038 A 
ATOM     29  C   UNL     1       5.579   0.009  24.017  0.00  0.00    +0.123 A 
ENDBRANCH  23  24
ENDBRANCH   5  23
ENDBRANCH   8  17
BRANCH   6  10
ATOM     10  C   UNL     1      -3.664  -0.993  25.593  0.00  0.00    +0.026 C 
BRANCH  10  13
ATOM     13  C   UNL     1      -3.705  -2.389  24.964  0.00  0.00    -0.015 C 
ATOM     19  C   UNL     1      -2.275  -2.879  24.729  0.00  0.00    +0.007 C 
ATOM     20  C   UNL     1      -4.485  -2.422  23.650  0.00  0.00    +0.007 C 
ENDBRANCH  10  13
ENDBRANCH   6  10
TORSDOF 5
ENDMDL
MODEL 2
REMARK VINA RESULT:      -2.5      1.037      1.166
REMARK  Name = 51137997
REMARK  8 active torsions:
REMARK  status: ('A' for Active; 'I' for Inactive)
REMARK    1  A    between atoms: N_4  and  C_22
REMARK    2  A    between atoms: N_5  and  C_23
REMARK    3  A    between atoms: C_6  and  C_10
REMARK    4  A    between atoms: C_8  and  C_17
REMARK    5  A    between atoms: C_10  and  C_13
REMARK    6  A    between atoms: C_13  and  C_19
REMARK    7  A    between atoms: C_13  and  C_20
REMARK    8  A    between atoms: C_23  and  C_24
REMARK                            x       y       z     vdW  Elec       q    Type
REMARK                         _______ _______ _______ _____ _____    ______ ____
ROOT
ATOM      3  N   UNL     1      -1.000   0.156  24.622  0.00  0.00    -0.299 NA
ATOM      4  N   UNL     1      -3.747   4.272  25.629  0.00  0.00    -0.349 N 
ATOM      6  C   UNL     1      -2.402  -0.279  24.568  0.00  0.00    +0.085 C 
ATOM      7  C   UNL     1      -3.441   0.753  25.021  0.00  0.00    -0.021 A 
ATOM      8  C   UNL     1      -0.670   1.259  23.732  0.00  0.00    +0.145 C 
ATOM      9  C   UNL     1      -3.203   2.151  25.156  0.00  0.00    +0.008 A 
ATOM     11  C   UNL     1      -0.703   2.600  24.462  0.00  0.00    +0.065 C 
ATOM     12  C   UNL     1      -2.062   2.998  24.933  0.00  0.00    -0.020 A 
ATOM     14  C   UNL     1      -4.245   2.992  25.567  0.00  0.00    +0.049 A 
ATOM     15  C   UNL     1      -2.440   4.289  25.245  0.00  0.00    +0.090 A 
ATOM     16  C   UNL     1      -4.770   0.319  25.257  0.00  0.00    +0.006 A 
ATOM     18  C   UNL     1      -5.536   2.538  25.839  0.00  0.00    +0.026 A 
ATOM     21  C   UNL     1      -5.785   1.182  25.664  0.00  0.00    +0.002 A 
ATOM     22  C   UNL     1      -4.495   5.447  26.023  0.00  0.00    +0.149 C 
ATOM     30  H   UNL     1      -0.719   0.359  25.581  0.00  0.00    +0.123 HD
ENDROOT
BRANCH   8  17
ATOM      2  O   UNL     1       1.705   1.457  23.848  0.00  0.00    -0.274 OA
ATOM      5  N   UNL     1       0.761   0.186  22.140  0.00  0.00    -0.310 N 
ATOM     17  C   UNL     1       0.729   0.986  23.270  0.00  0.00    +0.231 C 
ATOM     31  H   UNL     1      -0.109  -0.171  21.756  0.00  0.00    +0.149 HD
BRANCH   5  23
ATOM     23  C   UNL     1       1.988  -0.204  21.484  0.00  0.00    +0.139 C 
BRANCH  23  24
ATOM      1  F   UNL     1       6.286  -0.579  25.101  0.00  0.00    -0.205 F 
ATOM     24  C   UNL     1       3.134  -0.305  22.448  0.00  0.00    -0.030 A 
ATOM     25  C   UNL     1       4.042   0.748  22.565  0.00  0.00    +0.008 A 
ATOM     26  C   UNL     1       3.291  -1.450  23.229  0.00  0.00    +0.008 A 
ATOM     27  C   UNL     1       5.107   0.656  23.460  0.00  0.00    +0.038 A 
ATOM     28  C   UNL     1       4.356  -1.543  24.125  0.00  0.00    +0.038 A 
ATOM     29  C   UNL     1       5.264  -0.490  24.241  0.00  0.00    +0.123 A 
ENDBRANCH  23  24
ENDBRANCH   5  23
ENDBRANCH   8  17
BRANCH   6  10
ATOM     10  C   UNL     1      -2.444  -1.566  25.410  0.00  0.00    +0.026 C 
BRANCH  10  13
ATOM     13  C   UNL     1      -2.842  -2.801  24.595  0.00  0.00    -0.015 C 
ATOM     19  C   UNL     1      -1.710  -3.153  23.628  0.00  0.00    +0.007 C 
ATOM     20  C   UNL     1      -4.143  -2.600  23.817  0.00  0.00    +0.007 C 
ENDBRANCH  10  13
ENDBRANCH   6  10
TORSDOF 5
ENDMDL
MODEL 3
REMARK VINA RESULT:      -1.6      1.551      3.751
REMARK  Name = 51137997
REMARK  8 active torsions:
REMARK  status: ('A' for Active; 'I' for Inactive)
REMARK    1  A    between atoms: N_4  and  C_22
REMARK    2  A    between atoms: N_5  and  C_23
REMARK    3  A    between atoms: C_6  and  C_10
REMARK    4  A    between atoms: C_8  and  C_17
REMARK    5  A    between atoms: C_10  and  C_13
REMARK    6  A    between atoms: C_13  and  C_19
REMARK    7  A    between atoms: C_13  and  C_20
REMARK    8  A    between atoms: C_23  and  C_24
REMARK                            x       y       z     vdW  Elec       q    Type
REMARK                         _______ _______ _______ _____ _____    ______ ____
ROOT
ATOM      3  N   UNL     1      -0.557   1.603  24.502  0.00  0.00    -0.299 NA
ATOM      4  N   UNL     1      -5.601   1.619  24.746  0.00  0.00    -0.349 N 
ATOM      6  C   UNL     1      -0.901   2.562  25.561  0.00  0.00    +0.085 C 
ATOM      7  C   UNL     1      -2.391   2.889  25.710  0.00  0.00    -0.021 A 
ATOM      8  C   UNL     1      -1.094   0.265  24.696  0.00  0.00    +0.145 C 
ATOM      9  C   UNL     1      -3.458   2.117  25.165  0.00  0.00    +0.008 A 
ATOM     11  C   UNL     1      -2.391   0.061  23.915  0.00  0.00    +0.065 C 
ATOM     12  C   UNL     1      -3.524   0.906  24.394  0.00  0.00    -0.020 A 
ATOM     14  C   UNL     1      -4.781   2.518  25.386  0.00  0.00    +0.049 A 
ATOM     15  C   UNL     1      -4.858   0.643  24.152  0.00  0.00    +0.090 A 
ATOM     16  C   UNL     1      -2.766   3.997  26.511  0.00  0.00    +0.006 A 
ATOM     18  C   UNL     1      -5.129   3.640  26.141  0.00  0.00    +0.026 A 
ATOM     21  C   UNL     1      -4.094   4.368  26.712  0.00  0.00    +0.002 A 
ATOM     22  C   UNL     1      -7.047   1.673  24.715  0.00  0.00    +0.149 C 
ATOM     30  H   UNL     1      -0.804   1.971  23.584  0.00  0.00    +0.123 HD
ENDROOT
BRANCH   8  17
ATOM      2  O   UNL     1       0.237  -1.716  24.720  0.00  0.00    -0.274 OA
ATOM      5  N   UNL     1       0.544  -0.170  23.004  0.00  0.00    -0.310 N 
ATOM     17  C   UNL     1      -0.046  -0.661  24.157  0.00  0.00    +0.231 C 
ATOM     31  H   UNL     1       0.215   0.705  22.609  0.00  0.00    +0.149 HD
BRANCH   5  23
ATOM     23  C   UNL     1       1.598  -0.863  22.301  0.00  0.00    +0.139 C 
BRANCH  23  24
ATOM      1  F   UNL     1       6.696   0.534  24.240  0.00  0.00    -0.205 F 
ATOM     24  C   UNL     1       2.958  -0.492  22.818  0.00  0.00    -0.030 A 
ATOM     25  C   UNL     1       3.479   0.777  22.560  0.00  0.00    +0.008 A 
ATOM     26  C   UNL     1       3.700  -1.412  23.558  0.00  0.00    +0.008 A 
ATOM     27  C   UNL     1       4.742   1.123  23.039  0.00  0.00    +0.038 A 
ATOM     28  C   UNL     1       4.963  -1.066  24.037  0.00  0.00    +0.038 A 
ATOM     29  C   UNL     1       5.484   0.202  23.779  0.00  0.00    +0.123 A 
ENDBRANCH  23  24
ENDBRANCH   5  23
ENDBRANCH   8  17
BRANCH   6  10
ATOM     10  C   UNL     1      -0.053   3.808  25.250  0.00  0.00    +0.026 C 
BRANCH  10  13
ATOM     13  C   UNL     1      -0.693   4.721  24.200  0.00  0.00    -0.015 C 
ATOM     19  C   UNL     1       0.308   4.969  23.069  0.00  0.00    +0.007 C 
ATOM     20  C   UNL     1      -1.156   6.057  24.783  0.00  0.00    +0.007 C 
ENDBRANCH  10  13
ENDBRANCH   6  10
TORSDOF 5
ENDMDL
