MODEL 1
REMARK VINA RESULT:      -3.7      0.000      0.000
REMARK  Name = 45783550
REMARK  9 active torsions:
REMARK  status: ('A' for Active; 'I' for Inactive)
REMARK    1  A    between atoms: O_3  and  C_26
REMARK    2  A    between atoms: O_3  and  C_27
REMARK    3  A    between atoms: O_4  and  C_28
REMARK    4  A    between atoms: O_4  and  C_29
REMARK    5  A    between atoms: N_5  and  C_13
REMARK    6  A    between atoms: C_9  and  C_14
REMARK    7  A    between atoms: C_13  and  C_15
REMARK    8  A    between atoms: C_18  and  C_21
REMARK    9  A    between atoms: C_27  and  C_28
REMARK                            x       y       z     vdW  Elec       q    Type
REMARK                         _______ _______ _______ _____ _____    ______ ____
ROOT
ATOM      2  O   UNL     1      -2.079   2.821  25.384  0.00  0.00    -0.336 OA
ATOM      6  N   UNL     1      -1.862   1.510  23.581  0.00  0.00    -0.190 NA
ATOM      7  N   UNL     1      -0.705   2.601  25.224  0.00  0.00    -0.056 NA
ATOM     14  C   UNL     1      -2.687   2.144  24.375  0.00  0.00    +0.245 A 
ATOM     18  C   UNL     1      -0.657   1.820  24.141  0.00  0.00    +0.204 A 
ENDROOT
BRANCH  18  21
ATOM      8  N   UNL     1       2.919   1.706  23.126  0.00  0.00    -0.221 NA
ATOM     21  C   UNL     1       0.576   1.333  23.594  0.00  0.00    +0.041 A 
ATOM     23  C   UNL     1       0.654   0.071  23.016  0.00  0.00    +0.018 A 
ATOM     24  C   UNL     1       1.726   2.105  23.624  0.00  0.00    +0.126 A 
ATOM     25  C   UNL     1       1.863  -0.374  22.493  0.00  0.00    +0.068 A 
ATOM     26  C   UNL     1       2.955   0.473  22.572  0.00  0.00    +0.215 A 
BRANCH  26   3
ATOM      3  O   UNL     1       4.158   0.057  22.064  0.00  0.00    -0.474 OA
BRANCH   3  27
ATOM     27  C   UNL     1       5.326   0.470  22.763  0.00  0.00    +0.258 C 
BRANCH  27  28
ATOM     28  C   UNL     1       5.159   0.151  24.236  0.00  0.00    +0.200 C 
BRANCH  28   4
ATOM      4  O   UNL     1       5.604  -1.178  24.477  0.00  0.00    -0.380 OA
ATOM     29  C   UNL     1       4.671  -2.135  23.995  0.00  0.00    +0.194 C 
ENDBRANCH  28   4
ENDBRANCH  27  28
ENDBRANCH   3  27
ENDBRANCH  26   3
ENDBRANCH  18  21
BRANCH  14   9
ATOM      5  N   UNL     1      -4.846   1.387  25.355  0.00  0.00    -0.287 NA
ATOM      9  C   UNL     1      -4.199   2.224  24.325  0.00  0.00    +0.146 C 
ATOM     10  C   UNL     1      -4.728   3.646  24.588  0.00  0.00    +0.030 C 
ATOM     11  C   UNL     1      -5.710   3.499  25.741  0.00  0.00    +0.017 C 
ATOM     12  C   UNL     1      -6.115   2.039  25.681  0.00  0.00    +0.085 C 
BRANCH   5  13
ATOM     13  C   UNL     1      -5.032   0.003  24.937  0.00  0.00    +0.123 C 
BRANCH  13  15
ATOM      1  F   UNL     1      -4.385  -2.107  23.160  0.00  0.00    -0.205 F 
ATOM     15  C   UNL     1      -3.754  -0.787  25.029  0.00  0.00    +0.002 A 
ATOM     16  C   UNL     1      -3.498  -1.813  24.121  0.00  0.00    +0.128 A 
ATOM     17  C   UNL     1      -2.823  -0.488  26.025  0.00  0.00    +0.008 A 
ATOM     19  C   UNL     1      -2.312  -2.542  24.207  0.00  0.00    +0.038 A 
ATOM     20  C   UNL     1      -1.638  -1.217  26.111  0.00  0.00    +0.000 A 
ATOM     22  C   UNL     1      -1.381  -2.244  25.203  0.00  0.00    +0.003 A 
ENDBRANCH  13  15
ENDBRANCH   5  13
ENDBRANCH  14   9
TORSDOF 8
ENDMDL
MODEL 2
REMARK VINA RESULT:      -1.8     14.510     16.050
REMARK  Name = 45783550
REMARK  9 active torsions:
REMARK  status: ('A' for Active; 'I' for Inactive)
REMARK    1  A    between atoms: O_3  and  C_26
REMARK    2  A    between atoms: O_3  and  C_27
REMARK    3  A    between atoms: O_4  and  C_28
REMARK    4  A    between atoms: O_4  and  C_29
REMARK    5  A    between atoms: N_5  and  C_13
REMARK    6  A    between atoms: C_9  and  C_14
REMARK    7  A    between atoms: C_13  and  C_15
REMARK    8  A    between atoms: C_18  and  C_21
REMARK    9  A    between atoms: C_27  and  C_28
REMARK                            x       y       z     vdW  Elec       q    Type
REMARK                         _______ _______ _______ _____ _____    ______ ____
ROOT
ATOM      2  O   UNL     1      -6.810 -10.780  13.561  0.00  0.00    -0.336 OA
ATOM      6  N   UNL     1      -6.146 -10.094  11.534  0.00  0.00    -0.190 NA
ATOM      7  N   UNL     1      -5.429 -10.564  13.655  0.00  0.00    -0.056 NA
ATOM     14  C   UNL     1      -7.150 -10.480  12.280  0.00  0.00    +0.245 A 
ATOM     18  C   UNL     1      -5.111 -10.161  12.421  0.00  0.00    +0.204 A 
ENDROOT
BRANCH  18  21
ATOM      8  N   UNL     1      -1.435  -9.645  12.642  0.00  0.00    -0.221 NA
ATOM     21  C   UNL     1      -3.770  -9.820  12.042  0.00  0.00    +0.041 A 
ATOM     23  C   UNL     1      -3.485  -9.348  10.765  0.00  0.00    +0.018 A 
ATOM     24  C   UNL     1      -2.719  -9.950  12.935  0.00  0.00    +0.126 A 
ATOM     25  C   UNL     1      -2.176  -9.024  10.427  0.00  0.00    +0.068 A 
ATOM     26  C   UNL     1      -1.197  -9.189  11.392  0.00  0.00    +0.215 A 
BRANCH  26   3
ATOM      3  O   UNL     1       0.102  -8.877  11.082  0.00  0.00    -0.474 OA
BRANCH   3  27
ATOM     27  C   UNL     1       0.773  -7.985  11.964  0.00  0.00    +0.258 C 
BRANCH  27  28
ATOM     28  C   UNL     1       2.235  -7.906  11.568  0.00  0.00    +0.200 C 
BRANCH  28   4
ATOM      4  O   UNL     1       2.670  -6.556  11.668  0.00  0.00    -0.380 OA
ATOM     29  C   UNL     1       3.944  -6.463  12.291  0.00  0.00    +0.194 C 
ENDBRANCH  28   4
ENDBRANCH  27  28
ENDBRANCH   3  27
ENDBRANCH  26   3
ENDBRANCH  18  21
BRANCH  14   9
ATOM      5  N   UNL     1      -9.504  -9.874  12.816  0.00  0.00    -0.287 NA
ATOM      9  C   UNL     1      -8.612 -10.635  11.917  0.00  0.00    +0.146 C 
ATOM     10  C   UNL     1      -8.934 -10.104  10.508  0.00  0.00    +0.030 C 
ATOM     11  C   UNL     1     -10.057  -9.096  10.707  0.00  0.00    +0.017 C 
ATOM     12  C   UNL     1     -10.681  -9.514  12.024  0.00  0.00    +0.085 C 
BRANCH   5  13
ATOM     13  C   UNL     1      -9.858 -10.605  14.026  0.00  0.00    +0.123 C 
BRANCH  13  15
ATOM      1  F   UNL     1     -10.719  -7.909  14.163  0.00  0.00    -0.205 F 
ATOM     15  C   UNL     1      -9.705  -9.754  15.259  0.00  0.00    +0.002 A 
ATOM     16  C   UNL     1     -10.151  -8.433  15.258  0.00  0.00    +0.128 A 
ATOM     17  C   UNL     1      -9.117 -10.292  16.404  0.00  0.00    +0.008 A 
ATOM     19  C   UNL     1     -10.009  -7.648  16.402  0.00  0.00    +0.038 A 
ATOM     20  C   UNL     1      -8.975  -9.507  17.548  0.00  0.00    +0.000 A 
ATOM     22  C   UNL     1      -9.421  -8.185  17.548  0.00  0.00    +0.003 A 
ENDBRANCH  13  15
ENDBRANCH   5  13
ENDBRANCH  14   9
TORSDOF 8
ENDMDL
MODEL 3
REMARK VINA RESULT:      -0.7      2.226      3.671
REMARK  Name = 45783550
REMARK  9 active torsions:
REMARK  status: ('A' for Active; 'I' for Inactive)
REMARK    1  A    between atoms: O_3  and  C_26
REMARK    2  A    between atoms: O_3  and  C_27
REMARK    3  A    between atoms: O_4  and  C_28
REMARK    4  A    between atoms: O_4  and  C_29
REMARK    5  A    between atoms: N_5  and  C_13
REMARK    6  A    between atoms: C_9  and  C_14
REMARK    7  A    between atoms: C_13  and  C_15
REMARK    8  A    between atoms: C_18  and  C_21
REMARK    9  A    between atoms: C_27  and  C_28
REMARK                            x       y       z     vdW  Elec       q    Type
REMARK                         _______ _______ _______ _____ _____    ______ ____
ROOT
ATOM      2  O   UNL     1      -3.421   1.358  23.053  0.00  0.00    -0.336 OA
ATOM      6  N   UNL     1      -1.821   1.022  24.585  0.00  0.00    -0.190 NA
ATOM      7  N   UNL     1      -2.225   1.201  22.341  0.00  0.00    -0.056 NA
ATOM     14  C   UNL     1      -3.094   1.239  24.367  0.00  0.00    +0.245 A 
ATOM     18  C   UNL     1      -1.328   1.006  23.313  0.00  0.00    +0.204 A 
ENDROOT
BRANCH  18  21
ATOM      8  N   UNL     1       1.777  -0.395  21.822  0.00  0.00    -0.221 NA
ATOM     21  C   UNL     1       0.065   0.795  23.046  0.00  0.00    +0.041 A 
ATOM     23  C   UNL     1       1.040   1.528  23.713  0.00  0.00    +0.018 A 
ATOM     24  C   UNL     1       0.481  -0.146  22.118  0.00  0.00    +0.126 A 
ATOM     25  C   UNL     1       2.384   1.300  23.435  0.00  0.00    +0.068 A 
ATOM     26  C   UNL     1       2.697   0.337  22.490  0.00  0.00    +0.215 A 
BRANCH  26   3
ATOM      3  O   UNL     1       4.013   0.095  22.198  0.00  0.00    -0.474 OA
BRANCH   3  27
ATOM     27  C   UNL     1       4.980   0.783  22.981  0.00  0.00    +0.258 C 
BRANCH  27  28
ATOM     28  C   UNL     1       6.015  -0.209  23.475  0.00  0.00    +0.200 C 
BRANCH  28   4
ATOM      4  O   UNL     1       5.456  -0.975  24.535  0.00  0.00    -0.380 OA
ATOM     29  C   UNL     1       4.586  -1.985  24.044  0.00  0.00    +0.194 C 
ENDBRANCH  28   4
ENDBRANCH  27  28
ENDBRANCH   3  27
ENDBRANCH  26   3
ENDBRANCH  18  21
BRANCH  14   9
ATOM      5  N   UNL     1      -4.690   2.767  25.512  0.00  0.00    -0.287 NA
ATOM      9  C   UNL     1      -4.230   1.372  25.360  0.00  0.00    +0.146 C 
ATOM     10  C   UNL     1      -5.486   0.590  24.933  0.00  0.00    +0.030 C 
ATOM     11  C   UNL     1      -6.612   1.615  24.933  0.00  0.00    +0.017 C 
ATOM     12  C   UNL     1      -6.108   2.698  25.866  0.00  0.00    +0.085 C 
BRANCH   5  13
ATOM     13  C   UNL     1      -3.916   3.523  26.489  0.00  0.00    +0.123 C 
BRANCH  13  15
ATOM      1  F   UNL     1      -1.304   2.474  26.809  0.00  0.00    -0.205 F 
ATOM     15  C   UNL     1      -2.696   4.152  25.871  0.00  0.00    +0.002 A 
ATOM     16  C   UNL     1      -1.439   3.583  26.068  0.00  0.00    +0.128 A 
ATOM     17  C   UNL     1      -2.826   5.306  25.098  0.00  0.00    +0.008 A 
ATOM     19  C   UNL     1      -0.310   4.167  25.494  0.00  0.00    +0.038 A 
ATOM     20  C   UNL     1      -1.697   5.891  24.524  0.00  0.00    +0.000 A 
ATOM     22  C   UNL     1      -0.439   5.322  24.721  0.00  0.00    +0.003 A 
ENDBRANCH  13  15
ENDBRANCH   5  13
ENDBRANCH  14   9
TORSDOF 8
ENDMDL
MODEL 4
REMARK VINA RESULT:      -0.2      1.485      3.188
REMARK  Name = 45783550
REMARK  9 active torsions:
REMARK  status: ('A' for Active; 'I' for Inactive)
REMARK    1  A    between atoms: O_3  and  C_26
REMARK    2  A    between atoms: O_3  and  C_27
REMARK    3  A    between atoms: O_4  and  C_28
REMARK    4  A    between atoms: O_4  and  C_29
REMARK    5  A    between atoms: N_5  and  C_13
REMARK    6  A    between atoms: C_9  and  C_14
REMARK    7  A    between atoms: C_13  and  C_15
REMARK    8  A    between atoms: C_18  and  C_21
REMARK    9  A    between atoms: C_27  and  C_28
REMARK                            x       y       z     vdW  Elec       q    Type
REMARK                         _______ _______ _______ _____ _____    ______ ____
ROOT
ATOM      2  O   UNL     1      -1.799   1.028  25.959  0.00  0.00    -0.336 OA
ATOM      6  N   UNL     1      -1.344  -0.205  24.145  0.00  0.00    -0.190 NA
ATOM      7  N   UNL     1      -0.493   1.361  25.579  0.00  0.00    -0.056 NA
ATOM     14  C   UNL     1      -2.226   0.100  25.063  0.00  0.00    +0.245 A 
ATOM     18  C   UNL     1      -0.297   0.593  24.502  0.00  0.00    +0.204 A 
ENDROOT
BRANCH  18  21
ATOM      8  N   UNL     1       3.076   1.630  23.327  0.00  0.00    -0.221 NA
ATOM     21  C   UNL     1       0.932   0.600  23.763  0.00  0.00    +0.041 A 
ATOM     23  C   UNL     1       1.191  -0.365  22.796  0.00  0.00    +0.018 A 
ATOM     24  C   UNL     1       1.898   1.568  23.989  0.00  0.00    +0.126 A 
ATOM     25  C   UNL     1       2.391  -0.333  22.094  0.00  0.00    +0.068 A 
ATOM     26  C   UNL     1       3.292   0.676  22.394  0.00  0.00    +0.215 A 
BRANCH  26   3
ATOM      3  O   UNL     1       4.482   0.729  21.717  0.00  0.00    -0.474 OA
BRANCH   3  27
ATOM     27  C   UNL     1       5.616   0.175  22.371  0.00  0.00    +0.258 C 
BRANCH  27  28
ATOM     28  C   UNL     1       5.444   0.322  23.870  0.00  0.00    +0.200 C 
BRANCH  28   4
ATOM      4  O   UNL     1       5.560  -0.957  24.480  0.00  0.00    -0.380 OA
ATOM     29  C   UNL     1       4.562  -1.851  24.008  0.00  0.00    +0.194 C 
ENDBRANCH  28   4
ENDBRANCH  27  28
ENDBRANCH   3  27
ENDBRANCH  26   3
ENDBRANCH  18  21
BRANCH  14   9
ATOM      5  N   UNL     1      -4.600   0.171  24.318  0.00  0.00    -0.287 NA
ATOM      9  C   UNL     1      -3.632  -0.429  25.258  0.00  0.00    +0.146 C 
ATOM     10  C   UNL     1      -3.735  -1.946  25.011  0.00  0.00    +0.030 C 
ATOM     11  C   UNL     1      -4.827  -2.105  23.963  0.00  0.00    +0.017 C 
ATOM     12  C   UNL     1      -5.641  -0.834  24.100  0.00  0.00    +0.085 C 
BRANCH   5  13
ATOM     13  C   UNL     1      -5.148   1.437  24.788  0.00  0.00    +0.123 C 
BRANCH  13  15
ATOM      1  F   UNL     1      -3.477   2.121  22.604  0.00  0.00    -0.205 F 
ATOM     15  C   UNL     1      -4.094   2.509  24.863  0.00  0.00    +0.002 A 
ATOM     16  C   UNL     1      -3.306   2.796  23.750  0.00  0.00    +0.128 A 
ATOM     17  C   UNL     1      -3.909   3.218  26.051  0.00  0.00    +0.008 A 
ATOM     19  C   UNL     1      -2.331   3.791  23.822  0.00  0.00    +0.038 A 
ATOM     20  C   UNL     1      -2.934   4.213  26.123  0.00  0.00    +0.000 A 
ATOM     22  C   UNL     1      -2.145   4.500  25.010  0.00  0.00    +0.003 A 
ENDBRANCH  13  15
ENDBRANCH   5  13
ENDBRANCH  14   9
TORSDOF 8
ENDMDL
