MODEL 1
REMARK VINA RESULT:      -1.5      0.000      0.000
REMARK  Name = 71693544
REMARK  12 active torsions:
REMARK  status: ('A' for Active; 'I' for Inactive)
REMARK    1  A    between atoms: O_2  and  C_10
REMARK    2  A    between atoms: N_5  and  C_12
REMARK    3  A    between atoms: N_6  and  C_23
REMARK    4  A    between atoms: N_7  and  C_17
REMARK    5  A    between atoms: C_8  and  C_10
REMARK    6  A    between atoms: C_9  and  C_11
REMARK    7  A    between atoms: C_12  and  C_17
REMARK    8  A    between atoms: C_15  and  C_16
REMARK    9  A    between atoms: C_15  and  C_20
REMARK   10  A    between atoms: C_15  and  C_21
REMARK   11  A    between atoms: C_15  and  C_22
REMARK   12  A    between atoms: C_16  and  C_26
REMARK                            x       y       z     vdW  Elec       q    Type
REMARK                         _______ _______ _______ _____ _____    ______ ____
ROOT
ATOM      1  O   UNL     1      -2.588   3.745  25.014  0.00  0.00    -0.361 OA
ATOM      3  O   UNL     1      -5.994   4.541  25.694  0.00  0.00    -0.273 OA
ATOM      5  N   UNL     1      -5.065   2.494  25.077  0.00  0.00    -0.290 N 
ATOM      8  C   UNL     1      -3.856   1.733  24.678  0.00  0.00    +0.135 C 
ATOM      9  C   UNL     1      -2.584   2.345  25.296  0.00  0.00    +0.171 C 
ATOM     13  C   UNL     1      -5.009   3.831  25.476  0.00  0.00    +0.242 C 
ATOM     14  C   UNL     1      -3.622   4.393  25.715  0.00  0.00    +0.256 C 
ENDROOT
BRANCH   9  11
ATOM     11  C   UNL     1      -1.291   1.785  24.739  0.00  0.00    -0.017 A 
ATOM     18  C   UNL     1      -0.250   2.645  24.391  0.00  0.00    +0.008 A 
ATOM     19  C   UNL     1      -1.142   0.408  24.574  0.00  0.00    +0.008 A 
ATOM     23  C   UNL     1       1.089   0.752  23.714  0.00  0.00    +0.033 A 
ATOM     24  C   UNL     1       0.940   2.130  23.879  0.00  0.00    +0.023 A 
ATOM     25  C   UNL     1       0.048  -0.108  24.062  0.00  0.00    +0.023 A 
BRANCH  23   6
ATOM      4  O   UNL     1       3.561   2.159  22.752  0.00  0.00    -0.275 OA
ATOM      6  N   UNL     1       2.297   0.229  23.196  0.00  0.00    -0.285 N 
ATOM     26  C   UNL     1       3.409   0.940  22.762  0.00  0.00    +0.218 C 
ATOM     28  H   UNL     1       2.335  -0.786  23.138  0.00  0.00    +0.155 HD
BRANCH  26  16
ATOM     16  C   UNL     1       4.521   0.022  22.270  0.00  0.00    +0.102 C 
BRANCH  16  15
ATOM     15  C   UNL     1       5.516  -0.434  23.363  0.00  0.00    -0.029 C 
ATOM     20  C   UNL     1       4.994  -1.754  23.963  0.00  0.00    +0.011 C 
ATOM     21  C   UNL     1       6.912  -0.690  22.770  0.00  0.00    +0.011 C 
ATOM     22  C   UNL     1       5.628   0.602  24.494  0.00  0.00    +0.011 C 
ENDBRANCH  16  15
ENDBRANCH  26  16
ENDBRANCH  23   6
ENDBRANCH   9  11
BRANCH   8  10
ATOM     10  C   UNL     1      -3.960   0.241  25.025  0.00  0.00    +0.181 C 
BRANCH  10   2
ATOM      2  O   UNL     1      -4.127  -0.482  23.823  0.00  0.00    -0.393 OA
ATOM     27  H   UNL     1      -4.054   0.155  23.092  0.00  0.00    +0.209 HD
ENDBRANCH  10   2
ENDBRANCH   8  10
BRANCH   5  12
ATOM     12  C   UNL     1      -6.371   1.897  24.814  0.00  0.00    +0.123 C 
BRANCH  12  17
ATOM     17  C   UNL     1      -6.933   1.230  26.060  0.00  0.00    +0.096 C 
BRANCH  17   7
ATOM      7  N   UNL     1      -6.561   1.984  27.251  0.00  0.00    -0.328 NA
ATOM     29  H   UNL     1      -6.695   1.406  28.079  0.00  0.00    +0.118 HD
ATOM     30  H   UNL     1      -5.567   2.205  27.214  0.00  0.00    +0.118 HD
ENDBRANCH  17   7
ENDBRANCH  12  17
ENDBRANCH   5  12
TORSDOF 9
ENDMDL
MODEL 2
REMARK VINA RESULT:      -1.0      1.402      2.699
REMARK  Name = 71693544
REMARK  12 active torsions:
REMARK  status: ('A' for Active; 'I' for Inactive)
REMARK    1  A    between atoms: O_2  and  C_10
REMARK    2  A    between atoms: N_5  and  C_12
REMARK    3  A    between atoms: N_6  and  C_23
REMARK    4  A    between atoms: N_7  and  C_17
REMARK    5  A    between atoms: C_8  and  C_10
REMARK    6  A    between atoms: C_9  and  C_11
REMARK    7  A    between atoms: C_12  and  C_17
REMARK    8  A    between atoms: C_15  and  C_16
REMARK    9  A    between atoms: C_15  and  C_20
REMARK   10  A    between atoms: C_15  and  C_21
REMARK   11  A    between atoms: C_15  and  C_22
REMARK   12  A    between atoms: C_16  and  C_26
REMARK                            x       y       z     vdW  Elec       q    Type
REMARK                         _______ _______ _______ _____ _____    ______ ____
ROOT
ATOM      1  O   UNL     1      -3.303   0.186  25.028  0.00  0.00    -0.361 OA
ATOM      3  O   UNL     1      -6.546   1.128  26.162  0.00  0.00    -0.273 OA
ATOM      5  N   UNL     1      -4.728   2.488  25.640  0.00  0.00    -0.290 N 
ATOM      8  C   UNL     1      -3.307   2.580  25.219  0.00  0.00    +0.135 C 
ATOM      9  C   UNL     1      -2.907   1.376  24.345  0.00  0.00    +0.171 C 
ATOM     13  C   UNL     1      -5.412   1.273  25.701  0.00  0.00    +0.242 C 
ATOM     14  C   UNL     1      -4.705   0.083  25.083  0.00  0.00    +0.256 C 
ENDROOT
BRANCH   9  11
ATOM     11  C   UNL     1      -1.419   1.264  24.086  0.00  0.00    -0.017 A 
ATOM     18  C   UNL     1      -0.865   0.040  23.711  0.00  0.00    +0.008 A 
ATOM     19  C   UNL     1      -0.601   2.386  24.222  0.00  0.00    +0.008 A 
ATOM     23  C   UNL     1       1.322   1.060  23.608  0.00  0.00    +0.033 A 
ATOM     24  C   UNL     1       0.505  -0.064  23.472  0.00  0.00    +0.023 A 
ATOM     25  C   UNL     1       0.769   2.284  23.983  0.00  0.00    +0.023 A 
BRANCH  23   6
ATOM      4  O   UNL     1       2.803  -0.046  21.241  0.00  0.00    -0.275 OA
ATOM      6  N   UNL     1       2.712   0.955  23.364  0.00  0.00    -0.285 N 
ATOM     26  C   UNL     1       3.336   0.426  22.241  0.00  0.00    +0.218 C 
ATOM     28  H   UNL     1       3.306   1.310  24.110  0.00  0.00    +0.155 HD
BRANCH  26  16
ATOM     16  C   UNL     1       4.855   0.489  22.346  0.00  0.00    +0.102 C 
BRANCH  16  15
ATOM     15  C   UNL     1       5.455  -0.300  23.535  0.00  0.00    -0.029 C 
ATOM     20  C   UNL     1       6.889  -0.717  23.155  0.00  0.00    +0.011 C 
ATOM     21  C   UNL     1       5.521   0.571  24.801  0.00  0.00    +0.011 C 
ATOM     22  C   UNL     1       4.643  -1.572  23.836  0.00  0.00    +0.011 C 
ENDBRANCH  16  15
ENDBRANCH  26  16
ENDBRANCH  23   6
ENDBRANCH   9  11
BRANCH   8  10
ATOM     10  C   UNL     1      -2.993   3.899  24.498  0.00  0.00    +0.181 C 
BRANCH  10   2
ATOM      2  O   UNL     1      -2.258   4.721  25.382  0.00  0.00    -0.393 OA
ATOM     27  H   UNL     1      -2.259   4.283  26.250  0.00  0.00    +0.209 HD
ENDBRANCH  10   2
ENDBRANCH   8  10
BRANCH   5  12
ATOM     12  C   UNL     1      -5.346   3.670  26.233  0.00  0.00    +0.123 C 
BRANCH  12  17
ATOM     17  C   UNL     1      -6.256   4.374  25.238  0.00  0.00    +0.096 C 
BRANCH  17   7
ATOM      7  N   UNL     1      -6.646   5.683  25.745  0.00  0.00    -0.328 NA
ATOM     29  H   UNL     1      -7.399   6.063  25.172  0.00  0.00    +0.118 HD
ATOM     30  H   UNL     1      -7.026   5.583  26.685  0.00  0.00    +0.118 HD
ENDBRANCH  17   7
ENDBRANCH  12  17
ENDBRANCH   5  12
TORSDOF 9
ENDMDL
