MODEL 1
REMARK VINA RESULT:      24.7      0.000      0.000
REMARK  Name = 71694378
REMARK  10 active torsions:
REMARK  status: ('A' for Active; 'I' for Inactive)
REMARK    1  A    between atoms: N_5  and  C_22
REMARK    2  A    between atoms: N_5  and  C_23
REMARK    3  A    between atoms: N_7  and  C_30
REMARK    4  A    between atoms: N_7  and  C_34
REMARK    5  A    between atoms: N_7  and  C_36
REMARK    6  A    between atoms: C_10  and  C_15
REMARK    7  A    between atoms: C_15  and  C_18
REMARK    8  A    between atoms: C_22  and  C_27
REMARK    9  A    between atoms: C_34  and  C_37
REMARK   10  A    between atoms: C_37  and  C_39
REMARK                            x       y       z     vdW  Elec       q    Type
REMARK                         _______ _______ _______ _____ _____    ______ ____
ROOT
ATOM      1  O   UNL     1      -2.420  -3.945  23.909  0.00  0.00    -0.274 OA
ATOM      3  O   UNL     1      -0.680   1.023  24.566  0.00  0.00    -0.488 OA
ATOM      4  N   UNL     1      -3.497  -2.259  25.074  0.00  0.00    -0.300 N 
ATOM      6  N   UNL     1      -0.365  -1.770  25.313  0.00  0.00    -0.304 NA
ATOM     10  C   UNL     1      -4.818   0.184  24.191  0.00  0.00    +0.008 C 
ATOM     11  C   UNL     1      -3.532   0.175  25.070  0.00  0.00    +0.032 C 
ATOM     12  C   UNL     1      -4.893  -1.136  23.389  0.00  0.00    +0.023 C 
ATOM     13  C   UNL     1      -3.483  -1.086  25.954  0.00  0.00    +0.115 C 
ATOM     14  C   UNL     1      -4.719  -2.375  24.272  0.00  0.00    +0.108 C 
ATOM     16  C   UNL     1      -3.335   1.424  25.887  0.00  0.00    -0.023 C 
ATOM     17  C   UNL     1      -2.407  -3.085  24.797  0.00  0.00    +0.229 C 
ATOM     19  C   UNL     1      -2.311   2.294  25.863  0.00  0.00    +0.010 C 
ATOM     20  C   UNL     1      -1.157  -2.950  25.647  0.00  0.00    +0.178 C 
ATOM     21  C   UNL     1      -1.021   2.306  25.083  0.00  0.00    +0.256 C 
ATOM     24  C   UNL     1      -0.009  -1.642  23.901  0.00  0.00    +0.120 C 
ATOM     25  C   UNL     1       0.919  -0.464  23.657  0.00  0.00    +0.010 A 
ATOM     26  C   UNL     1       0.554   0.862  23.987  0.00  0.00    +0.125 A 
ATOM     28  C   UNL     1       2.168  -0.700  23.061  0.00  0.00    +0.031 A 
ATOM     29  C   UNL     1       1.438   1.912  23.712  0.00  0.00    +0.048 A 
ATOM     30  C   UNL     1       3.043   0.354  22.798  0.00  0.00    +0.030 A 
ATOM     31  C   UNL     1       2.677   1.657  23.122  0.00  0.00    +0.027 A 
ATOM     44  H   UNL     1       0.484  -1.782  25.877  0.00  0.00    +0.123 HD
ENDROOT
BRANCH  30   7
ATOM      7  N   UNL     1       4.294   0.100  22.201  0.00  0.00    -0.333 N 
ATOM     36  C   UNL     1       4.597   0.620  20.882  0.00  0.00    +0.129 C 
BRANCH   7  34
ATOM     34  C   UNL     1       5.297  -0.678  22.900  0.00  0.00    +0.111 C 
BRANCH  34  37
ATOM     37  C   UNL     1       6.146   0.214  23.805  0.00  0.00    +0.074 C 
BRANCH  37  39
ATOM      9  N   UNL     1       8.012  -0.816  22.624  0.00  0.00    -0.260 NA
ATOM     39  C   UNL     1       7.620   0.152  23.483  0.00  0.00    +0.043 A 
ATOM     40  C   UNL     1       8.481   1.065  24.067  0.00  0.00    +0.023 A 
ATOM     41  C   UNL     1       9.833   0.981  23.750  0.00  0.00    +0.003 A 
ATOM     42  C   UNL     1       9.333  -0.866  22.339  0.00  0.00    +0.111 A 
ATOM     43  C   UNL     1      10.274  -0.000  22.870  0.00  0.00    +0.020 A 
ENDBRANCH  37  39
ENDBRANCH  34  37
ENDBRANCH   7  34
ENDBRANCH  30   7
BRANCH  10  15
ATOM     15  C   UNL     1      -6.120   0.418  24.967  0.00  0.00    +0.100 C 
BRANCH  15  18
ATOM      2  O   UNL     1      -6.618   1.915  26.772  0.00  0.00    -0.276 OA
ATOM      5  N   UNL     1      -5.627   2.837  24.888  0.00  0.00    -0.300 N 
ATOM     18  C   UNL     1      -6.153   1.779  25.637  0.00  0.00    +0.216 C 
ATOM     23  C   UNL     1      -5.082   2.651  23.548  0.00  0.00    +0.132 C 
BRANCH   5  22
ATOM     22  C   UNL     1      -5.584   4.208  25.391  0.00  0.00    +0.144 C 
BRANCH  22  27
ATOM      8  N   UNL     1      -2.117   5.443  26.258  0.00  0.00    -0.263 NA
ATOM     27  C   UNL     1      -4.222   4.819  25.243  0.00  0.00    -0.012 A 
ATOM     32  C   UNL     1      -3.789   5.318  24.021  0.00  0.00    +0.008 A 
ATOM     33  C   UNL     1      -3.355   4.905  26.322  0.00  0.00    +0.115 A 
ATOM     35  C   UNL     1      -2.521   5.881  23.914  0.00  0.00    +0.020 A 
ATOM     38  C   UNL     1      -1.731   5.919  25.052  0.00  0.00    +0.111 A 
ENDBRANCH  22  27
ENDBRANCH   5  22
ENDBRANCH  15  18
ENDBRANCH  10  15
TORSDOF 8
ENDMDL
MODEL 2
REMARK VINA RESULT:      28.0      2.607      4.755
REMARK  Name = 71694378
REMARK  10 active torsions:
REMARK  status: ('A' for Active; 'I' for Inactive)
REMARK    1  A    between atoms: N_5  and  C_22
REMARK    2  A    between atoms: N_5  and  C_23
REMARK    3  A    between atoms: N_7  and  C_30
REMARK    4  A    between atoms: N_7  and  C_34
REMARK    5  A    between atoms: N_7  and  C_36
REMARK    6  A    between atoms: C_10  and  C_15
REMARK    7  A    between atoms: C_15  and  C_18
REMARK    8  A    between atoms: C_22  and  C_27
REMARK    9  A    between atoms: C_34  and  C_37
REMARK   10  A    between atoms: C_37  and  C_39
REMARK                            x       y       z     vdW  Elec       q    Type
REMARK                         _______ _______ _______ _____ _____    ______ ____
ROOT
ATOM      1  O   UNL     1       0.562   2.481  26.517  0.00  0.00    -0.274 OA
ATOM      3  O   UNL     1       2.708  -0.458  22.657  0.00  0.00    -0.488 OA
ATOM      4  N   UNL     1      -0.590   1.263  24.921  0.00  0.00    -0.300 N 
ATOM      6  N   UNL     1       2.150   2.226  23.629  0.00  0.00    -0.304 NA
ATOM     10  C   UNL     1      -0.923  -1.604  24.522  0.00  0.00    +0.008 C 
ATOM     11  C   UNL     1      -0.177  -0.680  23.514  0.00  0.00    +0.032 C 
ATOM     12  C   UNL     1      -0.877  -0.963  25.928  0.00  0.00    +0.023 C 
ATOM     13  C   UNL     1      -0.751   0.749  23.557  0.00  0.00    +0.115 C 
ATOM     14  C   UNL     1      -1.335   0.498  25.925  0.00  0.00    +0.108 C 
ATOM     16  C   UNL     1      -0.136  -1.210  22.105  0.00  0.00    -0.023 C 
ATOM     17  C   UNL     1       0.340   2.219  25.329  0.00  0.00    +0.229 C 
ATOM     19  C   UNL     1       0.935  -1.505  21.348  0.00  0.00    +0.010 C 
ATOM     20  C   UNL     1       1.092   3.002  24.269  0.00  0.00    +0.178 C 
ATOM     21  C   UNL     1       2.414  -1.368  21.602  0.00  0.00    +0.256 C 
ATOM     24  C   UNL     1       3.106   1.607  24.546  0.00  0.00    +0.120 C 
ATOM     25  C   UNL     1       4.243   0.928  23.803  0.00  0.00    +0.010 A 
ATOM     26  C   UNL     1       4.018  -0.113  22.872  0.00  0.00    +0.125 A 
ATOM     28  C   UNL     1       5.561   1.331  24.071  0.00  0.00    +0.031 A 
ATOM     29  C   UNL     1       5.108  -0.723  22.239  0.00  0.00    +0.048 A 
ATOM     30  C   UNL     1       6.638   0.720  23.428  0.00  0.00    +0.030 A 
ATOM     31  C   UNL     1       6.410  -0.305  22.516  0.00  0.00    +0.027 A 
ATOM     44  H   UNL     1       2.648   2.833  22.979  0.00  0.00    +0.123 HD
ENDROOT
BRANCH  30   7
ATOM      7  N   UNL     1       7.955   1.138  23.707  0.00  0.00    -0.333 N 
ATOM     36  C   UNL     1       8.999   0.162  23.947  0.00  0.00    +0.129 C 
BRANCH   7  34
ATOM     34  C   UNL     1       8.284   2.549  23.750  0.00  0.00    +0.111 C 
BRANCH  34  37
ATOM     37  C   UNL     1       9.659   2.807  23.135  0.00  0.00    +0.074 C 
BRANCH  37  39
ATOM      9  N   UNL     1      10.977   4.507  21.990  0.00  0.00    -0.260 NA
ATOM     39  C   UNL     1       9.841   4.231  22.669  0.00  0.00    +0.043 A 
ATOM     40  C   UNL     1       8.859   5.168  22.950  0.00  0.00    +0.023 A 
ATOM     41  C   UNL     1       9.056   6.471  22.507  0.00  0.00    +0.003 A 
ATOM     42  C   UNL     1      11.134   5.784  21.575  0.00  0.00    +0.111 A 
ATOM     43  C   UNL     1      10.213   6.793  21.805  0.00  0.00    +0.020 A 
ENDBRANCH  37  39
ENDBRANCH  34  37
ENDBRANCH   7  34
ENDBRANCH  30   7
BRANCH  10  15
ATOM     15  C   UNL     1      -2.367  -1.943  24.131  0.00  0.00    +0.100 C 
BRANCH  15  18
ATOM      2  O   UNL     1      -3.536  -1.788  26.218  0.00  0.00    -0.276 OA
ATOM      5  N   UNL     1      -4.096  -0.238  24.585  0.00  0.00    -0.300 N 
ATOM     18  C   UNL     1      -3.378  -1.331  25.082  0.00  0.00    +0.216 C 
ATOM     23  C   UNL     1      -3.891   0.284  23.239  0.00  0.00    +0.132 C 
BRANCH   5  22
ATOM     22  C   UNL     1      -5.104   0.463  25.376  0.00  0.00    +0.144 C 
BRANCH  22  27
ATOM      8  N   UNL     1      -5.818   4.160  25.717  0.00  0.00    -0.263 NA
ATOM     27  C   UNL     1      -4.909   1.950  25.346  0.00  0.00    -0.012 A 
ATOM     32  C   UNL     1      -3.703   2.507  24.937  0.00  0.00    +0.008 A 
ATOM     33  C   UNL     1      -5.927   2.813  25.722  0.00  0.00    +0.115 A 
ATOM     35  C   UNL     1      -3.552   3.889  24.918  0.00  0.00    +0.020 A 
ATOM     38  C   UNL     1      -4.630   4.665  25.314  0.00  0.00    +0.111 A 
ENDBRANCH  22  27
ENDBRANCH   5  22
ENDBRANCH  15  18
ENDBRANCH  10  15
TORSDOF 8
ENDMDL
MODEL 3
REMARK VINA RESULT:      28.6      1.979      3.189
REMARK  Name = 71694378
REMARK  10 active torsions:
REMARK  status: ('A' for Active; 'I' for Inactive)
REMARK    1  A    between atoms: N_5  and  C_22
REMARK    2  A    between atoms: N_5  and  C_23
REMARK    3  A    between atoms: N_7  and  C_30
REMARK    4  A    between atoms: N_7  and  C_34
REMARK    5  A    between atoms: N_7  and  C_36
REMARK    6  A    between atoms: C_10  and  C_15
REMARK    7  A    between atoms: C_15  and  C_18
REMARK    8  A    between atoms: C_22  and  C_27
REMARK    9  A    between atoms: C_34  and  C_37
REMARK   10  A    between atoms: C_37  and  C_39
REMARK                            x       y       z     vdW  Elec       q    Type
REMARK                         _______ _______ _______ _____ _____    ______ ____
ROOT
ATOM      1  O   UNL     1      -1.858  -3.888  23.615  0.00  0.00    -0.274 OA
ATOM      3  O   UNL     1      -0.674   1.192  24.584  0.00  0.00    -0.488 OA
ATOM      4  N   UNL     1      -3.114  -2.404  24.871  0.00  0.00    -0.300 N 
ATOM      6  N   UNL     1      -0.055  -1.591  25.163  0.00  0.00    -0.304 NA
ATOM     10  C   UNL     1      -4.695  -0.072  24.128  0.00  0.00    +0.008 C 
ATOM     11  C   UNL     1      -3.416   0.007  25.014  0.00  0.00    +0.032 C 
ATOM     12  C   UNL     1      -4.624  -1.341  23.247  0.00  0.00    +0.023 C 
ATOM     13  C   UNL     1      -3.230  -1.292  25.821  0.00  0.00    +0.115 C 
ATOM     14  C   UNL     1      -4.315  -2.604  24.055  0.00  0.00    +0.108 C 
ATOM     16  C   UNL     1      -3.358   1.218  25.907  0.00  0.00    -0.023 C 
ATOM     17  C   UNL     1      -1.940  -3.087  24.554  0.00  0.00    +0.229 C 
ATOM     19  C   UNL     1      -2.435   2.195  25.942  0.00  0.00    +0.010 C 
ATOM     20  C   UNL     1      -0.714  -2.869  25.420  0.00  0.00    +0.178 C 
ATOM     21  C   UNL     1      -1.154   2.395  25.174  0.00  0.00    +0.256 C 
ATOM     24  C   UNL     1       0.286  -1.338  23.765  0.00  0.00    +0.120 C 
ATOM     25  C   UNL     1       1.079  -0.054  23.599  0.00  0.00    +0.010 A 
ATOM     26  C   UNL     1       0.570   1.202  24.006  0.00  0.00    +0.125 A 
ATOM     28  C   UNL     1       2.347  -0.115  23.000  0.00  0.00    +0.031 A 
ATOM     29  C   UNL     1       1.334   2.357  23.801  0.00  0.00    +0.048 A 
ATOM     30  C   UNL     1       3.101   1.042  22.808  0.00  0.00    +0.030 A 
ATOM     31  C   UNL     1       2.594   2.275  23.206  0.00  0.00    +0.027 A 
ATOM     44  H   UNL     1       0.790  -1.543  25.733  0.00  0.00    +0.123 HD
ENDROOT
BRANCH  30   7
ATOM      7  N   UNL     1       4.373   0.964  22.205  0.00  0.00    -0.333 N 
ATOM     36  C   UNL     1       5.357   0.016  22.688  0.00  0.00    +0.129 C 
BRANCH   7  34
ATOM     34  C   UNL     1       4.711   1.824  21.089  0.00  0.00    +0.111 C 
BRANCH  34  37
ATOM     37  C   UNL     1       4.500   3.294  21.449  0.00  0.00    +0.074 C 
BRANCH  37  39
ATOM      9  N   UNL     1       4.966   3.884  19.132  0.00  0.00    -0.260 NA
ATOM     39  C   UNL     1       4.253   4.169  20.244  0.00  0.00    +0.043 A 
ATOM     40  C   UNL     1       3.329   5.198  20.331  0.00  0.00    +0.023 A 
ATOM     41  C   UNL     1       3.125   5.987  19.203  0.00  0.00    +0.003 A 
ATOM     42  C   UNL     1       4.741   4.672  18.056  0.00  0.00    +0.111 A 
ATOM     43  C   UNL     1       3.840   5.724  18.040  0.00  0.00    +0.020 A 
ENDBRANCH  37  39
ENDBRANCH  34  37
ENDBRANCH   7  34
ENDBRANCH  30   7
BRANCH  10  15
ATOM     15  C   UNL     1      -6.016  -0.029  24.906  0.00  0.00    +0.100 C 
BRANCH  15  18
ATOM      2  O   UNL     1      -6.801   1.368  26.689  0.00  0.00    -0.276 OA
ATOM      5  N   UNL     1      -5.752   2.428  24.911  0.00  0.00    -0.300 N 
ATOM     18  C   UNL     1      -6.233   1.305  25.595  0.00  0.00    +0.216 C 
ATOM     23  C   UNL     1      -5.084   2.328  23.619  0.00  0.00    +0.132 C 
BRANCH   5  22
ATOM     22  C   UNL     1      -5.883   3.783  25.440  0.00  0.00    +0.144 C 
BRANCH  22  27
ATOM      8  N   UNL     1      -2.678   5.431  26.585  0.00  0.00    -0.263 NA
ATOM     27  C   UNL     1      -4.582   4.530  25.397  0.00  0.00    -0.012 A 
ATOM     32  C   UNL     1      -4.071   5.012  24.198  0.00  0.00    +0.008 A 
ATOM     33  C   UNL     1      -3.854   4.765  26.553  0.00  0.00    +0.115 A 
ATOM     35  C   UNL     1      -2.864   5.703  24.189  0.00  0.00    +0.020 A 
ATOM     38  C   UNL     1      -2.212   5.885  25.399  0.00  0.00    +0.111 A 
ENDBRANCH  22  27
ENDBRANCH   5  22
ENDBRANCH  15  18
ENDBRANCH  10  15
TORSDOF 8
ENDMDL
