MODEL 1
REMARK VINA RESULT:       0.5      0.000      0.000
REMARK  Name = 75536490
REMARK  10 active torsions:
REMARK  status: ('A' for Active; 'I' for Inactive)
REMARK    1  A    between atoms: O_2  and  C_13
REMARK    2  A    between atoms: N_5  and  C_12
REMARK    3  A    between atoms: N_5  and  C_17
REMARK    4  A    between atoms: N_5  and  C_18
REMARK    5  A    between atoms: N_6  and  C_16
REMARK    6  A    between atoms: N_8  and  C_28
REMARK    7  A    between atoms: N_9  and  C_29
REMARK    8  A    between atoms: C_14  and  C_16
REMARK    9  A    between atoms: C_17  and  C_19
REMARK   10  A    between atoms: C_18  and  C_20
REMARK                            x       y       z     vdW  Elec       q    Type
REMARK                         _______ _______ _______ _____ _____    ______ ____
ROOT
ATOM      1  O   UNL     1      -1.702  -2.660  23.904  0.00  0.00    -0.371 OA
ATOM     12  C   UNL     1       0.191  -1.276  24.277  0.00  0.00    +0.114 C 
ATOM     13  C   UNL     1      -0.911  -0.877  25.240  0.00  0.00    +0.164 C 
ATOM     14  C   UNL     1      -1.771  -2.133  25.239  0.00  0.00    +0.165 C 
ATOM     15  C   UNL     1      -0.592  -2.046  23.226  0.00  0.00    +0.182 C 
ENDROOT
BRANCH  13   2
ATOM      2  O   UNL     1      -0.423  -0.573  26.533  0.00  0.00    -0.388 OA
ATOM     32  H   UNL     1      -1.058  -0.911  27.187  0.00  0.00    +0.210 HD
ENDBRANCH  13   2
BRANCH  12   5
ATOM      5  N   UNL     1       0.920  -0.146  23.725  0.00  0.00    -0.280 NA
BRANCH   5  17
ATOM     17  C   UNL     1      -0.002   0.847  23.166  0.00  0.00    +0.159 C 
BRANCH  17  19
ATOM      8  N   UNL     1      -1.237   2.899  23.935  0.00  0.00    -0.336 N 
ATOM     10  N   UNL     1       0.496   2.275  25.174  0.00  0.00    -0.239 NA
ATOM     19  C   UNL     1      -0.224   1.999  24.109  0.00  0.00    +0.124 A 
ATOM     24  C   UNL     1      -1.159   3.807  24.953  0.00  0.00    +0.106 A 
ATOM     28  C   UNL     1      -2.219   2.905  22.876  0.00  0.00    +0.150 C 
ATOM     30  C   UNL     1      -0.082   3.402  25.705  0.00  0.00    +0.130 A 
ENDBRANCH  17  19
ENDBRANCH   5  17
BRANCH   5  18
ATOM     18  C   UNL     1       1.865  -0.589  22.696  0.00  0.00    +0.159 C 
BRANCH  18  20
ATOM      9  N   UNL     1       4.098   0.515  23.052  0.00  0.00    -0.336 N 
ATOM     11  N   UNL     1       3.900  -1.566  23.805  0.00  0.00    -0.239 NA
ATOM     20  C   UNL     1       3.286  -0.576  23.195  0.00  0.00    +0.124 A 
ATOM     25  C   UNL     1       5.306   0.200  23.606  0.00  0.00    +0.106 A 
ATOM     29  C   UNL     1       3.758   1.774  22.433  0.00  0.00    +0.150 C 
ATOM     31  C   UNL     1       5.160  -1.089  24.064  0.00  0.00    +0.130 A 
ENDBRANCH  18  20
ENDBRANCH   5  18
ENDBRANCH  12   5
BRANCH  14  16
ATOM     16  C   UNL     1      -3.219  -1.870  25.614  0.00  0.00    +0.140 C 
BRANCH  16   6
ATOM      3  O   UNL     1      -5.488   4.130  25.800  0.00  0.00    -0.377 OA
ATOM      4  O   UNL     1      -5.348  -0.583  24.299  0.00  0.00    -0.253 OA
ATOM      6  N   UNL     1      -3.504  -0.454  25.659  0.00  0.00    -0.297 N 
ATOM      7  N   UNL     1      -4.723   1.498  25.115  0.00  0.00    -0.281 N 
ATOM     21  C   UNL     1      -4.580   0.106  24.979  0.00  0.00    +0.302 C 
ATOM     22  C   UNL     1      -3.775   2.406  25.773  0.00  0.00    +0.137 C 
ATOM     23  C   UNL     1      -5.826   2.172  24.426  0.00  0.00    +0.137 C 
ATOM     26  C   UNL     1      -4.513   3.457  26.597  0.00  0.00    +0.179 C 
ATOM     27  C   UNL     1      -6.475   3.213  25.325  0.00  0.00    +0.179 C 
ATOM     33  H   UNL     1      -2.894   0.104  26.239  0.00  0.00    +0.150 HD
ENDBRANCH  16   6
ENDBRANCH  14  16
TORSDOF 8
ENDMDL
MODEL 2
REMARK VINA RESULT:       1.1      1.939      5.128
REMARK  Name = 75536490
REMARK  10 active torsions:
REMARK  status: ('A' for Active; 'I' for Inactive)
REMARK    1  A    between atoms: O_2  and  C_13
REMARK    2  A    between atoms: N_5  and  C_12
REMARK    3  A    between atoms: N_5  and  C_17
REMARK    4  A    between atoms: N_5  and  C_18
REMARK    5  A    between atoms: N_6  and  C_16
REMARK    6  A    between atoms: N_8  and  C_28
REMARK    7  A    between atoms: N_9  and  C_29
REMARK    8  A    between atoms: C_14  and  C_16
REMARK    9  A    between atoms: C_17  and  C_19
REMARK   10  A    between atoms: C_18  and  C_20
REMARK                            x       y       z     vdW  Elec       q    Type
REMARK                         _______ _______ _______ _____ _____    ______ ____
ROOT
ATOM      1  O   UNL     1      -0.592   2.824  26.465  0.00  0.00    -0.371 OA
ATOM     12  C   UNL     1       0.373   1.571  24.694  0.00  0.00    +0.114 C 
ATOM     13  C   UNL     1      -0.266   2.823  24.123  0.00  0.00    +0.164 C 
ATOM     14  C   UNL     1      -0.336   3.707  25.361  0.00  0.00    +0.165 C 
ATOM     15  C   UNL     1      -0.307   1.477  26.049  0.00  0.00    +0.182 C 
ENDROOT
BRANCH  13   2
ATOM      2  O   UNL     1       0.509   3.413  23.097  0.00  0.00    -0.388 OA
ATOM     32  H   UNL     1       0.900   2.702  22.562  0.00  0.00    +0.210 HD
ENDBRANCH  13   2
BRANCH  12   5
ATOM      5  N   UNL     1       0.171   0.387  23.875  0.00  0.00    -0.280 NA
BRANCH   5  17
ATOM     17  C   UNL     1       1.105   0.368  22.746  0.00  0.00    +0.159 C 
BRANCH  17  19
ATOM      8  N   UNL     1       3.599   0.569  23.004  0.00  0.00    -0.336 N 
ATOM     10  N   UNL     1       2.697  -1.353  23.652  0.00  0.00    -0.239 NA
ATOM     19  C   UNL     1       2.456  -0.165  23.143  0.00  0.00    +0.124 A 
ATOM     24  C   UNL     1       4.637  -0.199  23.454  0.00  0.00    +0.106 A 
ATOM     28  C   UNL     1       3.710   1.911  22.481  0.00  0.00    +0.150 C 
ATOM     30  C   UNL     1       4.056  -1.380  23.848  0.00  0.00    +0.130 A 
ENDBRANCH  17  19
ENDBRANCH   5  17
BRANCH   5  18
ATOM     18  C   UNL     1      -1.209   0.321  23.386  0.00  0.00    +0.159 C 
BRANCH  18  20
ATOM      9  N   UNL     1      -2.009  -1.726  24.611  0.00  0.00    -0.336 N 
ATOM     11  N   UNL     1      -3.081   0.167  25.058  0.00  0.00    -0.239 NA
ATOM     20  C   UNL     1      -2.116  -0.386  24.359  0.00  0.00    +0.124 A 
ATOM     25  C   UNL     1      -2.967  -2.046  25.530  0.00  0.00    +0.106 A 
ATOM     29  C   UNL     1      -1.064  -2.647  24.025  0.00  0.00    +0.150 C 
ATOM     31  C   UNL     1      -3.617  -0.862  25.790  0.00  0.00    +0.130 A 
ENDBRANCH  18  20
ENDBRANCH   5  18
ENDBRANCH  12   5
BRANCH  14  16
ATOM     16  C   UNL     1      -1.425   4.763  25.284  0.00  0.00    +0.140 C 
BRANCH  16   6
ATOM      3  O   UNL     1      -6.960   1.588  25.976  0.00  0.00    -0.377 OA
ATOM      4  O   UNL     1      -3.201   3.579  23.449  0.00  0.00    -0.253 OA
ATOM      6  N   UNL     1      -2.722   4.209  25.603  0.00  0.00    -0.297 N 
ATOM      7  N   UNL     1      -4.775   3.150  25.098  0.00  0.00    -0.281 N 
ATOM     21  C   UNL     1      -3.542   3.639  24.635  0.00  0.00    +0.302 C 
ATOM     22  C   UNL     1      -5.320   3.318  26.452  0.00  0.00    +0.137 C 
ATOM     23  C   UNL     1      -5.705   2.540  24.145  0.00  0.00    +0.137 C 
ATOM     26  C   UNL     1      -5.995   2.035  26.928  0.00  0.00    +0.179 C 
ATOM     27  C   UNL     1      -6.337   1.286  24.726  0.00  0.00    +0.179 C 
ATOM     33  H   UNL     1      -2.987   4.232  26.577  0.00  0.00    +0.150 HD
ENDBRANCH  16   6
ENDBRANCH  14  16
TORSDOF 8
ENDMDL
MODEL 3
REMARK VINA RESULT:       1.2      2.118      4.100
REMARK  Name = 75536490
REMARK  10 active torsions:
REMARK  status: ('A' for Active; 'I' for Inactive)
REMARK    1  A    between atoms: O_2  and  C_13
REMARK    2  A    between atoms: N_5  and  C_12
REMARK    3  A    between atoms: N_5  and  C_17
REMARK    4  A    between atoms: N_5  and  C_18
REMARK    5  A    between atoms: N_6  and  C_16
REMARK    6  A    between atoms: N_8  and  C_28
REMARK    7  A    between atoms: N_9  and  C_29
REMARK    8  A    between atoms: C_14  and  C_16
REMARK    9  A    between atoms: C_17  and  C_19
REMARK   10  A    between atoms: C_18  and  C_20
REMARK                            x       y       z     vdW  Elec       q    Type
REMARK                         _______ _______ _______ _____ _____    ______ ____
ROOT
ATOM      1  O   UNL     1      -0.015   3.364  26.068  0.00  0.00    -0.371 OA
ATOM     12  C   UNL     1       0.027   1.594  24.485  0.00  0.00    +0.114 C 
ATOM     13  C   UNL     1      -0.956   2.651  24.019  0.00  0.00    +0.164 C 
ATOM     14  C   UNL     1      -0.475   3.866  24.803  0.00  0.00    +0.165 C 
ATOM     15  C   UNL     1       0.167   1.942  25.958  0.00  0.00    +0.182 C 
ENDROOT
BRANCH  13   2
ATOM      2  O   UNL     1      -0.903   2.869  22.623  0.00  0.00    -0.388 OA
ATOM     32  H   UNL     1      -0.907   3.828  22.463  0.00  0.00    +0.210 HD
ENDBRANCH  13   2
BRANCH  12   5
ATOM      5  N   UNL     1      -0.432   0.233  24.266  0.00  0.00    -0.280 NA
BRANCH   5  17
ATOM     17  C   UNL     1      -1.317  -0.200  25.351  0.00  0.00    +0.159 C 
BRANCH  17  19
ATOM      8  N   UNL     1      -3.365  -0.797  24.019  0.00  0.00    -0.336 N 
ATOM     10  N   UNL     1      -2.443  -2.442  25.191  0.00  0.00    -0.239 NA
ATOM     19  C   UNL     1      -2.363  -1.170  24.870  0.00  0.00    +0.124 A 
ATOM     24  C   UNL     1      -4.134  -1.903  23.781  0.00  0.00    +0.106 A 
ATOM     28  C   UNL     1      -3.587   0.516  23.462  0.00  0.00    +0.150 C 
ATOM     30  C   UNL     1      -3.545  -2.905  24.516  0.00  0.00    +0.130 A 
ENDBRANCH  17  19
ENDBRANCH   5  17
BRANCH   5  18
ATOM     18  C   UNL     1       0.702  -0.687  24.146  0.00  0.00    +0.159 C 
BRANCH  18  20
ATOM      9  N   UNL     1       1.880  -0.190  21.979  0.00  0.00    -0.336 N 
ATOM     11  N   UNL     1       2.853   0.575  23.823  0.00  0.00    -0.239 NA
ATOM     20  C   UNL     1       1.827  -0.090  23.341  0.00  0.00    +0.124 A 
ATOM     25  C   UNL     1       3.013   0.452  21.566  0.00  0.00    +0.106 A 
ATOM     29  C   UNL     1       0.926  -0.849  21.119  0.00  0.00    +0.150 C 
ATOM     31  C   UNL     1       3.597   0.915  22.721  0.00  0.00    +0.130 A 
ENDBRANCH  18  20
ENDBRANCH   5  18
ENDBRANCH  12   5
BRANCH  14  16
ATOM     16  C   UNL     1      -1.559   4.905  25.025  0.00  0.00    +0.140 C 
BRANCH  16   6
ATOM      3  O   UNL     1      -6.946   1.619  26.202  0.00  0.00    -0.377 OA
ATOM      4  O   UNL     1      -3.666   4.022  23.381  0.00  0.00    -0.253 OA
ATOM      6  N   UNL     1      -2.788   4.297  25.484  0.00  0.00    -0.297 N 
ATOM      7  N   UNL     1      -4.923   3.319  25.201  0.00  0.00    -0.281 N 
ATOM     21  C   UNL     1      -3.784   3.886  24.604  0.00  0.00    +0.302 C 
ATOM     22  C   UNL     1      -5.208   3.261  26.641  0.00  0.00    +0.137 C 
ATOM     23  C   UNL     1      -6.024   2.865  24.349  0.00  0.00    +0.137 C 
ATOM     26  C   UNL     1      -5.813   1.912  27.020  0.00  0.00    +0.179 C 
ATOM     27  C   UNL     1      -6.568   1.529  24.827  0.00  0.00    +0.179 C 
ATOM     33  H   UNL     1      -2.871   4.160  26.481  0.00  0.00    +0.150 HD
ENDBRANCH  16   6
ENDBRANCH  14  16
TORSDOF 8
ENDMDL
MODEL 4
REMARK VINA RESULT:       2.3      0.899      3.989
REMARK  Name = 75536490
REMARK  10 active torsions:
REMARK  status: ('A' for Active; 'I' for Inactive)
REMARK    1  A    between atoms: O_2  and  C_13
REMARK    2  A    between atoms: N_5  and  C_12
REMARK    3  A    between atoms: N_5  and  C_17
REMARK    4  A    between atoms: N_5  and  C_18
REMARK    5  A    between atoms: N_6  and  C_16
REMARK    6  A    between atoms: N_8  and  C_28
REMARK    7  A    between atoms: N_9  and  C_29
REMARK    8  A    between atoms: C_14  and  C_16
REMARK    9  A    between atoms: C_17  and  C_19
REMARK   10  A    between atoms: C_18  and  C_20
REMARK                            x       y       z     vdW  Elec       q    Type
REMARK                         _______ _______ _______ _____ _____    ______ ____
ROOT
ATOM      1  O   UNL     1      -1.399  -2.838  23.822  0.00  0.00    -0.371 OA
ATOM     12  C   UNL     1       0.066  -0.975  23.968  0.00  0.00    +0.114 C 
ATOM     13  C   UNL     1      -1.061  -0.797  24.967  0.00  0.00    +0.164 C 
ATOM     14  C   UNL     1      -1.551  -2.232  25.116  0.00  0.00    +0.165 C 
ATOM     15  C   UNL     1      -0.524  -2.016  23.031  0.00  0.00    +0.182 C 
ENDROOT
BRANCH  13   2
ATOM      2  O   UNL     1      -0.619  -0.261  26.199  0.00  0.00    -0.388 OA
ATOM     32  H   UNL     1      -0.665  -0.961  26.872  0.00  0.00    +0.210 HD
ENDBRANCH  13   2
BRANCH  12   5
ATOM      5  N   UNL     1       0.441   0.253  23.286  0.00  0.00    -0.280 NA
BRANCH   5  17
ATOM     17  C   UNL     1       1.487  -0.002  22.291  0.00  0.00    +0.159 C 
BRANCH  17  19
ATOM      8  N   UNL     1       3.854   0.564  22.925  0.00  0.00    -0.336 N 
ATOM     10  N   UNL     1       3.117  -1.432  23.562  0.00  0.00    -0.239 NA
ATOM     19  C   UNL     1       2.810  -0.318  22.935  0.00  0.00    +0.124 A 
ATOM     24  C   UNL     1       4.894  -0.025  23.588  0.00  0.00    +0.106 A 
ATOM     28  C   UNL     1       3.874   1.879  22.329  0.00  0.00    +0.150 C 
ATOM     30  C   UNL     1       4.416  -1.256  23.971  0.00  0.00    +0.130 A 
ENDBRANCH  17  19
ENDBRANCH   5  17
BRANCH   5  18
ATOM     18  C   UNL     1       0.896   1.263  24.245  0.00  0.00    +0.159 C 
BRANCH  18  20
ATOM      9  N   UNL     1      -0.296   2.846  25.796  0.00  0.00    -0.336 N 
ATOM     11  N   UNL     1      -1.123   2.677  23.742  0.00  0.00    -0.239 NA
ATOM     20  C   UNL     1      -0.187   2.260  24.566  0.00  0.00    +0.124 A 
ATOM     25  C   UNL     1      -1.369   3.690  25.754  0.00  0.00    +0.106 A 
ATOM     29  C   UNL     1       0.557   2.626  26.941  0.00  0.00    +0.150 C 
ATOM     31  C   UNL     1      -1.864   3.568  24.476  0.00  0.00    +0.130 A 
ENDBRANCH  18  20
ENDBRANCH   5  18
ENDBRANCH  12   5
BRANCH  14  16
ATOM     16  C   UNL     1      -2.999  -2.328  25.562  0.00  0.00    +0.140 C 
BRANCH  16   6
ATOM      3  O   UNL     1      -6.261   3.198  25.638  0.00  0.00    -0.377 OA
ATOM      4  O   UNL     1      -4.078  -0.710  23.529  0.00  0.00    -0.253 OA
ATOM      6  N   UNL     1      -3.584  -1.020  25.748  0.00  0.00    -0.297 N 
ATOM      7  N   UNL     1      -4.626   0.976  25.026  0.00  0.00    -0.281 N 
ATOM     21  C   UNL     1      -4.097  -0.281  24.688  0.00  0.00    +0.302 C 
ATOM     22  C   UNL     1      -4.550   1.622  26.344  0.00  0.00    +0.137 C 
ATOM     23  C   UNL     1      -5.182   1.824  23.970  0.00  0.00    +0.137 C 
ATOM     26  C   UNL     1      -5.868   2.312  26.686  0.00  0.00    +0.179 C 
ATOM     27  C   UNL     1      -6.477   2.480  24.422  0.00  0.00    +0.179 C 
ATOM     33  H   UNL     1      -3.625  -0.683  26.699  0.00  0.00    +0.150 HD
ENDBRANCH  16   6
ENDBRANCH  14  16
TORSDOF 8
ENDMDL
MODEL 5
REMARK VINA RESULT:       3.2      1.455      2.057
REMARK  Name = 75536490
REMARK  10 active torsions:
REMARK  status: ('A' for Active; 'I' for Inactive)
REMARK    1  A    between atoms: O_2  and  C_13
REMARK    2  A    between atoms: N_5  and  C_12
REMARK    3  A    between atoms: N_5  and  C_17
REMARK    4  A    between atoms: N_5  and  C_18
REMARK    5  A    between atoms: N_6  and  C_16
REMARK    6  A    between atoms: N_8  and  C_28
REMARK    7  A    between atoms: N_9  and  C_29
REMARK    8  A    between atoms: C_14  and  C_16
REMARK    9  A    between atoms: C_17  and  C_19
REMARK   10  A    between atoms: C_18  and  C_20
REMARK                            x       y       z     vdW  Elec       q    Type
REMARK                         _______ _______ _______ _____ _____    ______ ____
ROOT
ATOM      1  O   UNL     1      -1.488  -2.334  23.824  0.00  0.00    -0.371 OA
ATOM     12  C   UNL     1      -0.081  -0.722  24.853  0.00  0.00    +0.114 C 
ATOM     13  C   UNL     1      -1.292  -0.956  25.736  0.00  0.00    +0.164 C 
ATOM     14  C   UNL     1      -1.762  -2.316  25.234  0.00  0.00    +0.165 C 
ATOM     15  C   UNL     1      -0.568  -1.272  23.522  0.00  0.00    +0.182 C 
ENDROOT
BRANCH  13   2
ATOM      2  O   UNL     1      -0.967  -0.985  27.112  0.00  0.00    -0.388 OA
ATOM     32  H   UNL     1      -0.040  -0.712  27.213  0.00  0.00    +0.210 HD
ENDBRANCH  13   2
BRANCH  12   5
ATOM      5  N   UNL     1       0.324   0.672  24.775  0.00  0.00    -0.280 NA
BRANCH   5  17
ATOM     17  C   UNL     1      -0.676   1.541  25.404  0.00  0.00    +0.159 C 
BRANCH  17  19
ATOM      8  N   UNL     1      -2.332   3.275  24.644  0.00  0.00    -0.336 N 
ATOM     10  N   UNL     1      -1.857   1.667  23.188  0.00  0.00    -0.239 NA
ATOM     19  C   UNL     1      -1.616   2.139  24.391  0.00  0.00    +0.124 A 
ATOM     24  C   UNL     1      -3.078   3.545  23.531  0.00  0.00    +0.106 A 
ATOM     28  C   UNL     1      -2.316   4.059  25.857  0.00  0.00    +0.150 C 
ATOM     30  C   UNL     1      -2.769   2.539  22.647  0.00  0.00    +0.130 A 
ENDBRANCH  17  19
ENDBRANCH   5  17
BRANCH   5  18
ATOM     18  C   UNL     1       0.536   1.077  23.383  0.00  0.00    +0.159 C 
BRANCH  18  20
ATOM      9  N   UNL     1       2.281   0.013  21.915  0.00  0.00    -0.336 N 
ATOM     11  N   UNL     1       3.027   1.412  23.471  0.00  0.00    -0.239 NA
ATOM     20  C   UNL     1       1.960   0.853  22.945  0.00  0.00    +0.124 A 
ATOM     25  C   UNL     1       3.640   0.038  21.776  0.00  0.00    +0.106 A 
ATOM     29  C   UNL     1       1.367  -0.765  21.113  0.00  0.00    +0.150 C 
ATOM     31  C   UNL     1       4.078   0.907  22.747  0.00  0.00    +0.130 A 
ENDBRANCH  18  20
ENDBRANCH   5  18
ENDBRANCH  12   5
BRANCH  14  16
ATOM     16  C   UNL     1      -3.240  -2.566  25.475  0.00  0.00    +0.140 C 
BRANCH  16   6
ATOM      3  O   UNL     1      -6.903   2.688  25.884  0.00  0.00    -0.377 OA
ATOM      4  O   UNL     1      -4.159  -0.714  23.565  0.00  0.00    -0.253 OA
ATOM      6  N   UNL     1      -3.945  -1.337  25.763  0.00  0.00    -0.297 N 
ATOM      7  N   UNL     1      -5.033   0.685  25.197  0.00  0.00    -0.281 N 
ATOM     21  C   UNL     1      -4.367  -0.473  24.759  0.00  0.00    +0.302 C 
ATOM     22  C   UNL     1      -5.185   1.121  26.592  0.00  0.00    +0.137 C 
ATOM     23  C   UNL     1      -5.506   1.654  24.207  0.00  0.00    +0.137 C 
ATOM     26  C   UNL     1      -6.586   1.673  26.837  0.00  0.00    +0.179 C 
ATOM     27  C   UNL     1      -6.897   2.158  24.558  0.00  0.00    +0.179 C 
ATOM     33  H   UNL     1      -4.139  -1.155  26.737  0.00  0.00    +0.150 HD
ENDBRANCH  16   6
ENDBRANCH  14  16
TORSDOF 8
ENDMDL
MODEL 6
REMARK VINA RESULT:       3.4      2.264      7.448
REMARK  Name = 75536490
REMARK  10 active torsions:
REMARK  status: ('A' for Active; 'I' for Inactive)
REMARK    1  A    between atoms: O_2  and  C_13
REMARK    2  A    between atoms: N_5  and  C_12
REMARK    3  A    between atoms: N_5  and  C_17
REMARK    4  A    between atoms: N_5  and  C_18
REMARK    5  A    between atoms: N_6  and  C_16
REMARK    6  A    between atoms: N_8  and  C_28
REMARK    7  A    between atoms: N_9  and  C_29
REMARK    8  A    between atoms: C_14  and  C_16
REMARK    9  A    between atoms: C_17  and  C_19
REMARK   10  A    between atoms: C_18  and  C_20
REMARK                            x       y       z     vdW  Elec       q    Type
REMARK                         _______ _______ _______ _____ _____    ______ ____
ROOT
ATOM      1  O   UNL     1      -1.347   0.948  22.549  0.00  0.00    -0.371 OA
ATOM     12  C   UNL     1      -2.204   1.406  24.716  0.00  0.00    +0.114 C 
ATOM     13  C   UNL     1      -1.303   0.187  24.787  0.00  0.00    +0.164 C 
ATOM     14  C   UNL     1      -0.469   0.364  23.525  0.00  0.00    +0.165 C 
ATOM     15  C   UNL     1      -2.501   1.473  23.227  0.00  0.00    +0.182 C 
ENDROOT
BRANCH  13   2
ATOM      2  O   UNL     1      -0.500   0.169  25.952  0.00  0.00    -0.388 OA
ATOM     32  H   UNL     1       0.344  -0.262  25.735  0.00  0.00    +0.210 HD
ENDBRANCH  13   2
BRANCH  12   5
ATOM      5  N   UNL     1      -3.403   1.293  25.528  0.00  0.00    -0.280 NA
BRANCH   5  17
ATOM     17  C   UNL     1      -4.463   0.592  24.798  0.00  0.00    +0.159 C 
BRANCH  17  19
ATOM      8  N   UNL     1      -3.647  -1.654  25.583  0.00  0.00    -0.336 N 
ATOM     10  N   UNL     1      -4.254  -1.521  23.451  0.00  0.00    -0.239 NA
ATOM     19  C   UNL     1      -4.130  -0.860  24.581  0.00  0.00    +0.124 A 
ATOM     24  C   UNL     1      -3.451  -2.902  25.059  0.00  0.00    +0.106 A 
ATOM     28  C   UNL     1      -3.387  -1.265  26.949  0.00  0.00    +0.150 C 
ATOM     30  C   UNL     1      -3.832  -2.794  23.743  0.00  0.00    +0.130 A 
ENDBRANCH  17  19
ENDBRANCH   5  17
BRANCH   5  18
ATOM     18  C   UNL     1      -3.874   2.615  25.949  0.00  0.00    +0.159 C 
BRANCH  18  20
ATOM      9  N   UNL     1      -3.181   4.509  24.444  0.00  0.00    -0.336 N 
ATOM     11  N   UNL     1      -1.794   4.021  26.109  0.00  0.00    -0.239 NA
ATOM     20  C   UNL     1      -2.929   3.709  25.524  0.00  0.00    +0.124 A 
ATOM     25  C   UNL     1      -2.140   5.387  24.335  0.00  0.00    +0.106 A 
ATOM     29  C   UNL     1      -4.329   4.452  23.571  0.00  0.00    +0.150 C 
ATOM     31  C   UNL     1      -1.297   5.066  25.373  0.00  0.00    +0.130 A 
ENDBRANCH  18  20
ENDBRANCH   5  18
ENDBRANCH  12   5
BRANCH  14  16
ATOM     16  C   UNL     1       0.098  -0.940  22.992  0.00  0.00    +0.140 C 
BRANCH  16   6
ATOM      3  O   UNL     1       6.380  -0.261  24.116  0.00  0.00    -0.377 OA
ATOM      4  O   UNL     1       1.938   1.111  22.422  0.00  0.00    -0.253 OA
ATOM      6  N   UNL     1       1.529  -1.014  23.186  0.00  0.00    -0.297 N 
ATOM      7  N   UNL     1       3.739  -0.177  23.114  0.00  0.00    -0.281 N 
ATOM     21  C   UNL     1       2.372   0.048  22.878  0.00  0.00    +0.302 C 
ATOM     22  C   UNL     1       4.352  -1.454  23.507  0.00  0.00    +0.137 C 
ATOM     23  C   UNL     1       4.700   0.885  22.812  0.00  0.00    +0.137 C 
ATOM     26  C   UNL     1       5.435  -1.234  24.559  0.00  0.00    +0.179 C 
ATOM     27  C   UNL     1       5.747   1.003  23.909  0.00  0.00    +0.179 C 
ATOM     33  H   UNL     1       1.879  -1.872  23.586  0.00  0.00    +0.150 HD
ENDBRANCH  16   6
ENDBRANCH  14  16
TORSDOF 8
ENDMDL
MODEL 7
REMARK VINA RESULT:       3.7      2.201      6.913
REMARK  Name = 75536490
REMARK  10 active torsions:
REMARK  status: ('A' for Active; 'I' for Inactive)
REMARK    1  A    between atoms: O_2  and  C_13
REMARK    2  A    between atoms: N_5  and  C_12
REMARK    3  A    between atoms: N_5  and  C_17
REMARK    4  A    between atoms: N_5  and  C_18
REMARK    5  A    between atoms: N_6  and  C_16
REMARK    6  A    between atoms: N_8  and  C_28
REMARK    7  A    between atoms: N_9  and  C_29
REMARK    8  A    between atoms: C_14  and  C_16
REMARK    9  A    between atoms: C_17  and  C_19
REMARK   10  A    between atoms: C_18  and  C_20
REMARK                            x       y       z     vdW  Elec       q    Type
REMARK                         _______ _______ _______ _____ _____    ______ ____
ROOT
ATOM      1  O   UNL     1      -1.463   0.434  22.607  0.00  0.00    -0.371 OA
ATOM     12  C   UNL     1      -2.621   1.630  24.301  0.00  0.00    +0.114 C 
ATOM     13  C   UNL     1      -1.809   0.522  24.945  0.00  0.00    +0.164 C 
ATOM     14  C   UNL     1      -0.781   0.241  23.857  0.00  0.00    +0.165 C 
ATOM     15  C   UNL     1      -2.679   1.160  22.856  0.00  0.00    +0.182 C 
ENDROOT
BRANCH  13   2
ATOM      2  O   UNL     1      -1.199   0.925  26.156  0.00  0.00    -0.388 OA
ATOM     32  H   UNL     1      -1.491   1.830  26.359  0.00  0.00    +0.210 HD
ENDBRANCH  13   2
BRANCH  12   5
ATOM      5  N   UNL     1      -3.937   1.808  24.891  0.00  0.00    -0.280 NA
BRANCH   5  17
ATOM     17  C   UNL     1      -4.000   3.057  25.658  0.00  0.00    +0.159 C 
BRANCH  17  19
ATOM      8  N   UNL     1      -2.796   4.896  24.436  0.00  0.00    -0.336 N 
ATOM     10  N   UNL     1      -1.658   3.883  26.051  0.00  0.00    -0.239 NA
ATOM     19  C   UNL     1      -2.801   3.932  25.404  0.00  0.00    +0.124 A 
ATOM     24  C   UNL     1      -1.571   5.502  24.467  0.00  0.00    +0.106 A 
ATOM     28  C   UNL     1      -3.876   5.229  23.536  0.00  0.00    +0.150 C 
ATOM     30  C   UNL     1      -0.886   4.860  25.472  0.00  0.00    +0.130 A 
ENDBRANCH  17  19
ENDBRANCH   5  17
BRANCH   5  18
ATOM     18  C   UNL     1      -4.280   0.673  25.752  0.00  0.00    +0.159 C 
BRANCH  18  20
ATOM      9  N   UNL     1      -3.544  -1.725  25.552  0.00  0.00    -0.336 N 
ATOM     11  N   UNL     1      -4.667  -0.895  23.825  0.00  0.00    -0.239 NA
ATOM     20  C   UNL     1      -4.179  -0.638  25.018  0.00  0.00    +0.124 A 
ATOM     25  C   UNL     1      -3.633  -2.739  24.641  0.00  0.00    +0.106 A 
ATOM     29  C   UNL     1      -2.894  -1.804  26.839  0.00  0.00    +0.150 C 
ATOM     31  C   UNL     1      -4.330  -2.203  23.584  0.00  0.00    +0.130 A 
ENDBRANCH  18  20
ENDBRANCH   5  18
ENDBRANCH  12   5
BRANCH  14  16
ATOM     16  C   UNL     1      -0.210  -1.164  23.919  0.00  0.00    +0.140 C 
BRANCH  16   6
ATOM      3  O   UNL     1       6.111  -0.099  23.601  0.00  0.00    -0.377 OA
ATOM      4  O   UNL     1       1.334   0.899  22.787  0.00  0.00    -0.253 OA
ATOM      6  N   UNL     1       1.232  -1.155  23.806  0.00  0.00    -0.297 N 
ATOM      7  N   UNL     1       3.319  -0.233  23.187  0.00  0.00    -0.281 N 
ATOM     21  C   UNL     1       1.922  -0.094  23.231  0.00  0.00    +0.302 C 
ATOM     22  C   UNL     1       4.082  -1.436  23.551  0.00  0.00    +0.137 C 
ATOM     23  C   UNL     1       4.125   0.835  22.592  0.00  0.00    +0.137 C 
ATOM     26  C   UNL     1       5.345  -1.065  24.321  0.00  0.00    +0.179 C 
ATOM     27  C   UNL     1       5.369   1.108  23.423  0.00  0.00    +0.179 C 
ATOM     33  H   UNL     1       1.713  -1.952  24.195  0.00  0.00    +0.150 HD
ENDBRANCH  16   6
ENDBRANCH  14  16
TORSDOF 8
ENDMDL
MODEL 8
REMARK VINA RESULT:       4.1      2.437      7.698
REMARK  Name = 75536490
REMARK  10 active torsions:
REMARK  status: ('A' for Active; 'I' for Inactive)
REMARK    1  A    between atoms: O_2  and  C_13
REMARK    2  A    between atoms: N_5  and  C_12
REMARK    3  A    between atoms: N_5  and  C_17
REMARK    4  A    between atoms: N_5  and  C_18
REMARK    5  A    between atoms: N_6  and  C_16
REMARK    6  A    between atoms: N_8  and  C_28
REMARK    7  A    between atoms: N_9  and  C_29
REMARK    8  A    between atoms: C_14  and  C_16
REMARK    9  A    between atoms: C_17  and  C_19
REMARK   10  A    between atoms: C_18  and  C_20
REMARK                            x       y       z     vdW  Elec       q    Type
REMARK                         _______ _______ _______ _____ _____    ______ ____
ROOT
ATOM      1  O   UNL     1      -0.364   3.586  24.157  0.00  0.00    -0.371 OA
ATOM     12  C   UNL     1      -1.813   1.762  24.619  0.00  0.00    +0.114 C 
ATOM     13  C   UNL     1      -0.544   1.236  23.975  0.00  0.00    +0.164 C 
ATOM     14  C   UNL     1       0.420   2.385  24.241  0.00  0.00    +0.165 C 
ATOM     15  C   UNL     1      -1.755   3.233  24.239  0.00  0.00    +0.182 C 
ENDROOT
BRANCH  13   2
ATOM      2  O   UNL     1      -0.097   0.027  24.558  0.00  0.00    -0.388 OA
ATOM     32  H   UNL     1       0.399   0.242  25.365  0.00  0.00    +0.210 HD
ENDBRANCH  13   2
BRANCH  12   5
ATOM      5  N   UNL     1      -3.021   1.103  24.153  0.00  0.00    -0.280 NA
BRANCH   5  17
ATOM     17  C   UNL     1      -4.054   2.087  23.816  0.00  0.00    +0.159 C 
BRANCH  17  19
ATOM      8  N   UNL     1      -5.046   3.074  25.906  0.00  0.00    -0.336 N 
ATOM     10  N   UNL     1      -6.196   1.429  24.956  0.00  0.00    -0.239 NA
ATOM     19  C   UNL     1      -5.115   2.174  24.880  0.00  0.00    +0.124 A 
ATOM     24  C   UNL     1      -6.154   2.892  26.686  0.00  0.00    +0.106 A 
ATOM     28  C   UNL     1      -4.004   4.046  26.138  0.00  0.00    +0.150 C 
ATOM     30  C   UNL     1      -6.847   1.871  26.081  0.00  0.00    +0.130 A 
ENDBRANCH  17  19
ENDBRANCH   5  17
BRANCH   5  18
ATOM     18  C   UNL     1      -3.527   0.169  25.162  0.00  0.00    +0.159 C 
BRANCH  18  20
ATOM      9  N   UNL     1      -2.666  -2.179  24.886  0.00  0.00    -0.336 N 
ATOM     11  N   UNL     1      -4.592  -1.716  23.882  0.00  0.00    -0.239 NA
ATOM     20  C   UNL     1      -3.622  -1.236  24.629  0.00  0.00    +0.124 A 
ATOM     25  C   UNL     1      -3.051  -3.332  24.263  0.00  0.00    +0.106 A 
ATOM     29  C   UNL     1      -1.464  -2.005  25.668  0.00  0.00    +0.150 C 
ATOM     31  C   UNL     1      -4.242  -3.022  23.651  0.00  0.00    +0.130 A 
ENDBRANCH  18  20
ENDBRANCH   5  18
ENDBRANCH  12   5
BRANCH  14  16
ATOM     16  C   UNL     1       1.566   2.448  23.248  0.00  0.00    +0.140 C 
BRANCH  16   6
ATOM      3  O   UNL     1       5.872  -2.277  23.811  0.00  0.00    -0.377 OA
ATOM      4  O   UNL     1       4.331   2.301  22.742  0.00  0.00    -0.253 OA
ATOM      6  N   UNL     1       2.368   1.246  23.288  0.00  0.00    -0.297 N 
ATOM      7  N   UNL     1       4.374   0.008  23.095  0.00  0.00    -0.281 N 
ATOM     21  C   UNL     1       3.733   1.257  23.025  0.00  0.00    +0.302 C 
ATOM     22  C   UNL     1       3.716  -1.294  23.272  0.00  0.00    +0.137 C 
ATOM     23  C   UNL     1       5.811  -0.073  22.825  0.00  0.00    +0.137 C 
ATOM     26  C   UNL     1       4.511  -2.177  24.229  0.00  0.00    +0.179 C 
ATOM     27  C   UNL     1       6.501  -0.994  23.818  0.00  0.00    +0.179 C 
ATOM     33  H   UNL     1       1.884   0.398  23.547  0.00  0.00    +0.150 HD
ENDBRANCH  16   6
ENDBRANCH  14  16
TORSDOF 8
ENDMDL
MODEL 9
REMARK VINA RESULT:       4.3      2.484      8.332
REMARK  Name = 75536490
REMARK  10 active torsions:
REMARK  status: ('A' for Active; 'I' for Inactive)
REMARK    1  A    between atoms: O_2  and  C_13
REMARK    2  A    between atoms: N_5  and  C_12
REMARK    3  A    between atoms: N_5  and  C_17
REMARK    4  A    between atoms: N_5  and  C_18
REMARK    5  A    between atoms: N_6  and  C_16
REMARK    6  A    between atoms: N_8  and  C_28
REMARK    7  A    between atoms: N_9  and  C_29
REMARK    8  A    between atoms: C_14  and  C_16
REMARK    9  A    between atoms: C_17  and  C_19
REMARK   10  A    between atoms: C_18  and  C_20
REMARK                            x       y       z     vdW  Elec       q    Type
REMARK                         _______ _______ _______ _____ _____    ______ ____
ROOT
ATOM      1  O   UNL     1      -0.540   3.689  24.102  0.00  0.00    -0.371 OA
ATOM     12  C   UNL     1      -1.770   1.832  24.925  0.00  0.00    +0.114 C 
ATOM     13  C   UNL     1      -0.468   1.335  24.325  0.00  0.00    +0.164 C 
ATOM     14  C   UNL     1       0.371   2.606  24.353  0.00  0.00    +0.165 C 
ATOM     15  C   UNL     1      -1.882   3.213  24.301  0.00  0.00    +0.182 C 
ENDROOT
BRANCH  13   2
ATOM      2  O   UNL     1       0.121   0.296  25.082  0.00  0.00    -0.388 OA
ATOM     32  H   UNL     1       1.074   0.280  24.889  0.00  0.00    +0.210 HD
ENDBRANCH  13   2
BRANCH  12   5
ATOM      5  N   UNL     1      -2.911   0.982  24.627  0.00  0.00    -0.280 NA
BRANCH   5  17
ATOM     17  C   UNL     1      -2.564  -0.021  23.616  0.00  0.00    +0.159 C 
BRANCH  17  19
ATOM      8  N   UNL     1      -2.491  -2.347  24.572  0.00  0.00    -0.336 N 
ATOM     10  N   UNL     1      -4.400  -1.739  23.613  0.00  0.00    -0.239 NA
ATOM     19  C   UNL     1      -3.179  -1.361  23.921  0.00  0.00    +0.124 A 
ATOM     24  C   UNL     1      -3.328  -3.422  24.689  0.00  0.00    +0.106 A 
ATOM     28  C   UNL     1      -1.133  -2.282  25.056  0.00  0.00    +0.150 C 
ATOM     30  C   UNL     1      -4.499  -3.023  24.089  0.00  0.00    +0.130 A 
ENDBRANCH  17  19
ENDBRANCH   5  17
BRANCH   5  18
ATOM     18  C   UNL     1      -4.052   1.781  24.172  0.00  0.00    +0.159 C 
BRANCH  18  20
ATOM      9  N   UNL     1      -5.517   3.112  25.724  0.00  0.00    -0.336 N 
ATOM     11  N   UNL     1      -5.757   0.905  25.799  0.00  0.00    -0.239 NA
ATOM     20  C   UNL     1      -5.112   1.902  25.234  0.00  0.00    +0.124 A 
ATOM     25  C   UNL     1      -6.481   2.871  26.662  0.00  0.00    +0.106 A 
ATOM     29  C   UNL     1      -5.028   4.414  25.335  0.00  0.00    +0.150 C 
ATOM     31  C   UNL     1      -6.611   1.503  26.691  0.00  0.00    +0.130 A 
ENDBRANCH  18  20
ENDBRANCH   5  18
ENDBRANCH  12   5
BRANCH  14  16
ATOM     16  C   UNL     1       1.480   2.616  23.316  0.00  0.00    +0.140 C 
BRANCH  16   6
ATOM      3  O   UNL     1       5.631  -2.255  23.792  0.00  0.00    -0.377 OA
ATOM      4  O   UNL     1       4.223   2.369  22.737  0.00  0.00    -0.253 OA
ATOM      6  N   UNL     1       2.240   1.386  23.342  0.00  0.00    -0.297 N 
ATOM      7  N   UNL     1       4.195   0.078  23.102  0.00  0.00    -0.281 N 
ATOM     21  C   UNL     1       3.596   1.348  23.041  0.00  0.00    +0.302 C 
ATOM     22  C   UNL     1       3.497  -1.199  23.305  0.00  0.00    +0.137 C 
ATOM     23  C   UNL     1       5.620  -0.056  22.794  0.00  0.00    +0.137 C 
ATOM     26  C   UNL     1       4.286  -2.105  24.245  0.00  0.00    +0.179 C 
ATOM     27  C   UNL     1       6.304  -0.995  23.774  0.00  0.00    +0.179 C 
ATOM     33  H   UNL     1       1.734   0.558  23.619  0.00  0.00    +0.150 HD
ENDBRANCH  16   6
ENDBRANCH  14  16
TORSDOF 8
ENDMDL
MODEL 10
REMARK VINA RESULT:       4.3      1.985      6.546
REMARK  Name = 75536490
REMARK  10 active torsions:
REMARK  status: ('A' for Active; 'I' for Inactive)
REMARK    1  A    between atoms: O_2  and  C_13
REMARK    2  A    between atoms: N_5  and  C_12
REMARK    3  A    between atoms: N_5  and  C_17
REMARK    4  A    between atoms: N_5  and  C_18
REMARK    5  A    between atoms: N_6  and  C_16
REMARK    6  A    between atoms: N_8  and  C_28
REMARK    7  A    between atoms: N_9  and  C_29
REMARK    8  A    between atoms: C_14  and  C_16
REMARK    9  A    between atoms: C_17  and  C_19
REMARK   10  A    between atoms: C_18  and  C_20
REMARK                            x       y       z     vdW  Elec       q    Type
REMARK                         _______ _______ _______ _____ _____    ______ ____
ROOT
ATOM      1  O   UNL     1      -0.238  -1.396  25.517  0.00  0.00    -0.371 OA
ATOM     12  C   UNL     1      -2.037   0.125  25.816  0.00  0.00    +0.114 C 
ATOM     13  C   UNL     1      -1.940  -0.243  24.348  0.00  0.00    +0.164 C 
ATOM     14  C   UNL     1      -1.158  -1.548  24.423  0.00  0.00    +0.165 C 
ATOM     15  C   UNL     1      -0.661  -0.281  26.320  0.00  0.00    +0.182 C 
ENDROOT
BRANCH  13   2
ATOM      2  O   UNL     1      -3.207  -0.422  23.745  0.00  0.00    -0.388 OA
ATOM     32  H   UNL     1      -3.071  -0.696  22.822  0.00  0.00    +0.210 HD
ENDBRANCH  13   2
BRANCH  12   5
ATOM      5  N   UNL     1      -2.333   1.529  26.047  0.00  0.00    -0.280 NA
BRANCH   5  17
ATOM     17  C   UNL     1      -2.985   2.124  24.877  0.00  0.00    +0.159 C 
BRANCH  17  19
ATOM      8  N   UNL     1      -5.134   3.253  25.536  0.00  0.00    -0.336 N 
ATOM     10  N   UNL     1      -5.317   1.201  24.708  0.00  0.00    -0.239 NA
ATOM     19  C   UNL     1      -4.482   2.164  25.029  0.00  0.00    +0.124 A 
ATOM     24  C   UNL     1      -6.470   2.966  25.538  0.00  0.00    +0.106 A 
ATOM     28  C   UNL     1      -4.537   4.487  25.990  0.00  0.00    +0.150 C 
ATOM     30  C   UNL     1      -6.559   1.695  25.024  0.00  0.00    +0.130 A 
ENDBRANCH  17  19
ENDBRANCH   5  17
BRANCH   5  18
ATOM     18  C   UNL     1      -1.112   2.272  26.374  0.00  0.00    +0.159 C 
BRANCH  18  20
ATOM      9  N   UNL     1      -0.136   3.457  24.380  0.00  0.00    -0.336 N 
ATOM     11  N   UNL     1      -1.501   4.652  25.661  0.00  0.00    -0.239 NA
ATOM     20  C   UNL     1      -0.936   3.478  25.489  0.00  0.00    +0.124 A 
ATOM     25  C   UNL     1      -0.197   4.696  23.809  0.00  0.00    +0.106 A 
ATOM     29  C   UNL     1       0.636   2.340  23.889  0.00  0.00    +0.150 C 
ATOM     31  C   UNL     1      -1.045   5.416  24.617  0.00  0.00    +0.130 A 
ENDBRANCH  18  20
ENDBRANCH   5  18
ENDBRANCH  12   5
BRANCH  14  16
ATOM     16  C   UNL     1      -0.395  -1.866  23.150  0.00  0.00    +0.140 C 
BRANCH  16   6
ATOM      3  O   UNL     1       5.625   0.305  23.643  0.00  0.00    -0.377 OA
ATOM      4  O   UNL     1       1.078   0.049  21.706  0.00  0.00    -0.253 OA
ATOM      6  N   UNL     1       1.018  -1.601  23.300  0.00  0.00    -0.297 N 
ATOM      7  N   UNL     1       3.050  -0.499  22.801  0.00  0.00    -0.281 N 
ATOM     21  C   UNL     1       1.674  -0.635  22.546  0.00  0.00    +0.302 C 
ATOM     22  C   UNL     1       3.860  -1.368  23.665  0.00  0.00    +0.137 C 
ATOM     23  C   UNL     1       3.821   0.491  22.047  0.00  0.00    +0.137 C 
ATOM     26  C   UNL     1       4.848  -0.545  24.487  0.00  0.00    +0.179 C 
ATOM     27  C   UNL     1       4.789   1.235  22.953  0.00  0.00    +0.179 C 
ATOM     33  H   UNL     1       1.498  -2.139  24.007  0.00  0.00    +0.150 HD
ENDBRANCH  16   6
ENDBRANCH  14  16
TORSDOF 8
ENDMDL
