MODEL 1
REMARK VINA RESULT:       2.8      0.000      0.000
REMARK  Name = 26761934
REMARK  6 active torsions:
REMARK  status: ('A' for Active; 'I' for Inactive)
REMARK    1  A    between atoms: O_4  and  C_29
REMARK    2  A    between atoms: N_6  and  C_16
REMARK    3  A    between atoms: C_11  and  C_17
REMARK    4  A    between atoms: C_16  and  C_18
REMARK    5  A    between atoms: C_22  and  C_26
REMARK    6  A    between atoms: C_25  and  C_29
REMARK                            x       y       z     vdW  Elec       q    Type
REMARK                         _______ _______ _______ _____ _____    ______ ____
ROOT
ATOM      6  N   UNL     1       2.041   1.304  23.586  0.00  0.00    -0.281 NA
ATOM      7  N   UNL     1       5.625   0.242  23.289  0.00  0.00    -0.347 N 
ATOM      8  N   UNL     1       4.855  -1.791  23.807  0.00  0.00    -0.240 NA
ATOM     11  C   UNL     1       1.503  -0.054  23.228  0.00  0.00    +0.152 C 
ATOM     12  C   UNL     1       2.383  -1.219  23.805  0.00  0.00    +0.086 C 
ATOM     13  C   UNL     1       3.421   1.521  23.063  0.00  0.00    +0.140 C 
ATOM     14  C   UNL     1       4.269   0.342  23.331  0.00  0.00    +0.053 A 
ATOM     15  C   UNL     1       3.820  -0.915  23.642  0.00  0.00    +0.065 A 
ATOM     19  C   UNL     1       5.931  -1.064  23.583  0.00  0.00    +0.197 A 
ATOM     33  H   UNL     1       6.284   0.980  23.078  0.00  0.00    +0.167 HD
ENDROOT
BRANCH  11  17
ATOM      3  O   UNL     1      -0.214  -1.511  24.201  0.00  0.00    -0.336 OA
ATOM      9  N   UNL     1      -0.961   0.524  23.637  0.00  0.00    -0.190 NA
ATOM     10  N   UNL     1      -1.574  -1.488  24.537  0.00  0.00    -0.056 NA
ATOM     17  C   UNL     1       0.065  -0.288  23.679  0.00  0.00    +0.245 A 
ATOM     22  C   UNL     1      -1.943  -0.256  24.174  0.00  0.00    +0.202 A 
BRANCH  22  26
ATOM      1 CL   UNL     1      -5.121   3.757  24.736  0.00  0.00    -0.081 Cl
ATOM      2  F   UNL     1      -7.152   1.599  24.797  0.00  0.00    -0.204 F 
ATOM     26  C   UNL     1      -3.284   0.227  24.335  0.00  0.00    +0.024 A 
ATOM     27  C   UNL     1      -3.525   1.596  24.445  0.00  0.00    +0.034 A 
ATOM     28  C   UNL     1      -4.348  -0.674  24.381  0.00  0.00    +0.014 A 
ATOM     30  C   UNL     1      -4.829   2.065  24.601  0.00  0.00    +0.077 A 
ATOM     31  C   UNL     1      -5.653  -0.206  24.538  0.00  0.00    +0.040 A 
ATOM     32  C   UNL     1      -5.893   1.164  24.648  0.00  0.00    +0.142 A 
ENDBRANCH  22  26
ENDBRANCH  11  17
BRANCH   6  16
ATOM     16  C   UNL     1       1.187   2.392  23.088  0.00  0.00    +0.120 C 
BRANCH  16  18
ATOM     18  C   UNL     1       0.209   2.860  24.133  0.00  0.00    -0.033 A 
ATOM     20  C   UNL     1      -0.704   3.870  23.830  0.00  0.00    +0.006 A 
ATOM     21  C   UNL     1       0.218   2.284  25.403  0.00  0.00    +0.006 A 
ATOM     23  C   UNL     1      -1.610   4.303  24.799  0.00  0.00    +0.015 A 
ATOM     24  C   UNL     1      -0.688   2.717  26.371  0.00  0.00    +0.015 A 
ATOM     25  C   UNL     1      -1.603   3.727  26.069  0.00  0.00    +0.059 A 
BRANCH  25  29
ATOM      5  O   UNL     1      -2.583   3.788  28.250  0.00  0.00    -0.245 OA
ATOM     29  C   UNL     1      -2.548   4.177  27.078  0.00  0.00    +0.337 C 
BRANCH  29   4
ATOM      4  O   UNL     1      -3.424   5.100  26.597  0.00  0.00    -0.477 OA
ATOM     34  H   UNL     1      -4.126   5.313  27.248  0.00  0.00    +0.295 HD
ENDBRANCH  29   4
ENDBRANCH  25  29
ENDBRANCH  16  18
ENDBRANCH   6  16
TORSDOF 6
ENDMDL
MODEL 2
REMARK VINA RESULT:       4.4      0.939      1.398
REMARK  Name = 26761934
REMARK  6 active torsions:
REMARK  status: ('A' for Active; 'I' for Inactive)
REMARK    1  A    between atoms: O_4  and  C_29
REMARK    2  A    between atoms: N_6  and  C_16
REMARK    3  A    between atoms: C_11  and  C_17
REMARK    4  A    between atoms: C_16  and  C_18
REMARK    5  A    between atoms: C_22  and  C_26
REMARK    6  A    between atoms: C_25  and  C_29
REMARK                            x       y       z     vdW  Elec       q    Type
REMARK                         _______ _______ _______ _____ _____    ______ ____
ROOT
ATOM      6  N   UNL     1       2.070   1.360  23.653  0.00  0.00    -0.281 NA
ATOM      7  N   UNL     1       5.536  -0.034  23.320  0.00  0.00    -0.347 N 
ATOM      8  N   UNL     1       4.574  -1.995  23.791  0.00  0.00    -0.240 NA
ATOM     11  C   UNL     1       1.405   0.069  23.264  0.00  0.00    +0.152 C 
ATOM     12  C   UNL     1       2.169  -1.189  23.811  0.00  0.00    +0.086 C 
ATOM     13  C   UNL     1       3.465   1.456  23.131  0.00  0.00    +0.140 C 
ATOM     14  C   UNL     1       4.195   0.195  23.368  0.00  0.00    +0.053 A 
ATOM     15  C   UNL     1       3.628  -1.021  23.650  0.00  0.00    +0.065 A 
ATOM     19  C   UNL     1       5.715  -1.370  23.582  0.00  0.00    +0.197 A 
ATOM     33  H   UNL     1       6.262   0.643  23.125  0.00  0.00    +0.167 HD
ENDROOT
BRANCH  11  17
ATOM      3  O   UNL     1      -0.436  -1.230  24.236  0.00  0.00    -0.336 OA
ATOM      9  N   UNL     1      -1.000   0.863  23.670  0.00  0.00    -0.190 NA
ATOM     10  N   UNL     1      -1.789  -1.087  24.570  0.00  0.00    -0.056 NA
ATOM     17  C   UNL     1      -0.049  -0.036  23.714  0.00  0.00    +0.245 A 
ATOM     22  C   UNL     1      -2.047   0.173  24.206  0.00  0.00    +0.202 A 
BRANCH  22  26
ATOM      1 CL   UNL     1      -6.291   0.747  27.065  0.00  0.00    -0.081 Cl
ATOM      2  F   UNL     1      -7.062   2.508  24.809  0.00  0.00    -0.204 F 
ATOM     26  C   UNL     1      -3.341   0.773  24.366  0.00  0.00    +0.024 A 
ATOM     27  C   UNL     1      -4.101   0.501  25.503  0.00  0.00    +0.034 A 
ATOM     28  C   UNL     1      -3.839   1.628  23.383  0.00  0.00    +0.014 A 
ATOM     30  C   UNL     1      -5.358   1.084  25.658  0.00  0.00    +0.077 A 
ATOM     31  C   UNL     1      -5.096   2.212  23.537  0.00  0.00    +0.040 A 
ATOM     32  C   UNL     1      -5.855   1.940  24.675  0.00  0.00    +0.142 A 
ENDBRANCH  22  26
ENDBRANCH  11  17
BRANCH   6  16
ATOM     16  C   UNL     1       1.325   2.537  23.184  0.00  0.00    +0.120 C 
BRANCH  16  18
ATOM     18  C   UNL     1       0.227   2.922  24.140  0.00  0.00    -0.033 A 
ATOM     20  C   UNL     1       0.246   2.448  25.452  0.00  0.00    +0.006 A 
ATOM     21  C   UNL     1      -0.809   3.752  23.713  0.00  0.00    +0.006 A 
ATOM     23  C   UNL     1      -0.771   2.805  26.336  0.00  0.00    +0.015 A 
ATOM     24  C   UNL     1      -1.826   4.109  24.598  0.00  0.00    +0.015 A 
ATOM     25  C   UNL     1      -1.807   3.636  25.910  0.00  0.00    +0.059 A 
BRANCH  25  29
ATOM      5  O   UNL     1      -2.759   4.069  28.062  0.00  0.00    -0.245 OA
ATOM     29  C   UNL     1      -2.867   4.010  26.833  0.00  0.00    +0.337 C 
BRANCH  29   4
ATOM      4  O   UNL     1      -4.035   4.299  26.196  0.00  0.00    -0.477 OA
ATOM     34  H   UNL     1      -4.188   3.709  25.428  0.00  0.00    +0.295 HD
ENDBRANCH  29   4
ENDBRANCH  25  29
ENDBRANCH  16  18
ENDBRANCH   6  16
TORSDOF 6
ENDMDL
MODEL 3
REMARK VINA RESULT:       4.5      3.998      7.361
REMARK  Name = 26761934
REMARK  6 active torsions:
REMARK  status: ('A' for Active; 'I' for Inactive)
REMARK    1  A    between atoms: O_4  and  C_29
REMARK    2  A    between atoms: N_6  and  C_16
REMARK    3  A    between atoms: C_11  and  C_17
REMARK    4  A    between atoms: C_16  and  C_18
REMARK    5  A    between atoms: C_22  and  C_26
REMARK    6  A    between atoms: C_25  and  C_29
REMARK                            x       y       z     vdW  Elec       q    Type
REMARK                         _______ _______ _______ _____ _____    ______ ____
ROOT
ATOM      6  N   UNL     1      -2.406   2.929  24.299  0.00  0.00    -0.281 NA
ATOM      7  N   UNL     1      -6.026   2.783  25.271  0.00  0.00    -0.347 N 
ATOM      8  N   UNL     1      -5.867   0.613  24.758  0.00  0.00    -0.240 NA
ATOM     11  C   UNL     1      -2.151   1.488  24.645  0.00  0.00    +0.152 C 
ATOM     12  C   UNL     1      -3.372   0.563  24.301  0.00  0.00    +0.086 C 
ATOM     13  C   UNL     1      -3.578   3.487  25.036  0.00  0.00    +0.140 C 
ATOM     14  C   UNL     1      -4.715   2.546  24.992  0.00  0.00    +0.053 A 
ATOM     15  C   UNL     1      -4.642   1.212  24.688  0.00  0.00    +0.065 A 
ATOM     19  C   UNL     1      -6.681   1.586  25.117  0.00  0.00    +0.197 A 
ATOM     33  H   UNL     1      -6.441   3.664  25.545  0.00  0.00    +0.167 HD
ENDROOT
BRANCH  11  17
ATOM      3  O   UNL     1      -1.139   0.051  22.933  0.00  0.00    -0.336 OA
ATOM      9  N   UNL     1       0.350   1.091  24.244  0.00  0.00    -0.190 NA
ATOM     10  N   UNL     1       0.125  -0.353  22.483  0.00  0.00    -0.056 NA
ATOM     17  C   UNL     1      -0.916   0.900  23.970  0.00  0.00    +0.245 A 
ATOM     22  C   UNL     1       0.950   0.302  23.307  0.00  0.00    +0.202 A 
BRANCH  22  26
ATOM      1 CL   UNL     1       5.177  -2.555  24.000  0.00  0.00    -0.081 Cl
ATOM      2  F   UNL     1       6.487  -0.111  22.952  0.00  0.00    -0.204 F 
ATOM     26  C   UNL     1       2.377   0.191  23.217  0.00  0.00    +0.024 A 
ATOM     27  C   UNL     1       3.012  -0.988  23.606  0.00  0.00    +0.034 A 
ATOM     28  C   UNL     1       3.131   1.264  22.740  0.00  0.00    +0.014 A 
ATOM     30  C   UNL     1       4.399  -1.096  23.519  0.00  0.00    +0.077 A 
ATOM     31  C   UNL     1       4.519   1.157  22.652  0.00  0.00    +0.040 A 
ATOM     32  C   UNL     1       5.153  -0.023  23.042  0.00  0.00    +0.142 A 
ENDBRANCH  22  26
ENDBRANCH  11  17
BRANCH   6  16
ATOM     16  C   UNL     1      -1.244   3.784  24.574  0.00  0.00    +0.120 C 
BRANCH  16  18
ATOM     18  C   UNL     1      -0.569   3.414  25.868  0.00  0.00    -0.033 A 
ATOM     20  C   UNL     1       0.822   3.321  25.927  0.00  0.00    +0.006 A 
ATOM     21  C   UNL     1      -1.335   3.164  27.006  0.00  0.00    +0.006 A 
ATOM     23  C   UNL     1       1.446   2.978  27.127  0.00  0.00    +0.015 A 
ATOM     24  C   UNL     1      -0.710   2.821  28.205  0.00  0.00    +0.015 A 
ATOM     25  C   UNL     1       0.681   2.728  28.266  0.00  0.00    +0.059 A 
BRANCH  25  29
ATOM      5  O   UNL     1       0.828   2.471  30.640  0.00  0.00    -0.245 OA
ATOM     29  C   UNL     1       1.332   2.372  29.516  0.00  0.00    +0.337 C 
BRANCH  29   4
ATOM      4  O   UNL     1       2.596   1.902  29.331  0.00  0.00    -0.477 OA
ATOM     34  H   UNL     1       2.605   0.937  29.152  0.00  0.00    +0.295 HD
ENDBRANCH  29   4
ENDBRANCH  25  29
ENDBRANCH  16  18
ENDBRANCH   6  16
TORSDOF 6
ENDMDL
MODEL 4
REMARK VINA RESULT:       5.1      2.458      4.140
REMARK  Name = 26761934
REMARK  6 active torsions:
REMARK  status: ('A' for Active; 'I' for Inactive)
REMARK    1  A    between atoms: O_4  and  C_29
REMARK    2  A    between atoms: N_6  and  C_16
REMARK    3  A    between atoms: C_11  and  C_17
REMARK    4  A    between atoms: C_16  and  C_18
REMARK    5  A    between atoms: C_22  and  C_26
REMARK    6  A    between atoms: C_25  and  C_29
REMARK                            x       y       z     vdW  Elec       q    Type
REMARK                         _______ _______ _______ _____ _____    ______ ____
ROOT
ATOM      6  N   UNL     1       1.562  -1.089  24.352  0.00  0.00    -0.281 NA
ATOM      7  N   UNL     1       5.180  -1.238  23.379  0.00  0.00    -0.347 N 
ATOM      8  N   UNL     1       4.717   0.574  22.155  0.00  0.00    -0.240 NA
ATOM     11  C   UNL     1       1.463   0.397  24.147  0.00  0.00    +0.152 C 
ATOM     12  C   UNL     1       2.323   0.893  22.931  0.00  0.00    +0.086 C 
ATOM     13  C   UNL     1       2.962  -1.531  24.618  0.00  0.00    +0.140 C 
ATOM     14  C   UNL     1       3.896  -0.893  23.669  0.00  0.00    +0.053 A 
ATOM     15  C   UNL     1       3.638   0.221  22.914  0.00  0.00    +0.065 A 
ATOM     19  C   UNL     1       5.633  -0.322  22.460  0.00  0.00    +0.197 A 
ATOM     33  H   UNL     1       5.706  -2.011  23.765  0.00  0.00    +0.167 HD
ENDROOT
BRANCH  11  17
ATOM      3  O   UNL     1      -0.561   0.572  22.772  0.00  0.00    -0.336 OA
ATOM      9  N   UNL     1      -0.711   1.615  24.749  0.00  0.00    -0.190 NA
ATOM     10  N   UNL     1      -1.843   1.137  22.819  0.00  0.00    -0.056 NA
ATOM     17  C   UNL     1       0.037   0.900  23.947  0.00  0.00    +0.245 A 
ATOM     22  C   UNL     1      -1.854   1.734  24.014  0.00  0.00    +0.202 A 
BRANCH  22  26
ATOM      1 CL   UNL     1      -6.927   1.855  24.890  0.00  0.00    -0.081 Cl
ATOM      2  F   UNL     1      -6.258   4.553  25.920  0.00  0.00    -0.204 F 
ATOM     26  C   UNL     1      -2.993   2.457  24.504  0.00  0.00    +0.024 A 
ATOM     27  C   UNL     1      -4.259   1.876  24.464  0.00  0.00    +0.034 A 
ATOM     28  C   UNL     1      -2.832   3.743  25.021  0.00  0.00    +0.014 A 
ATOM     30  C   UNL     1      -5.365   2.579  24.941  0.00  0.00    +0.077 A 
ATOM     31  C   UNL     1      -3.938   4.447  25.498  0.00  0.00    +0.040 A 
ATOM     32  C   UNL     1      -5.204   3.864  25.458  0.00  0.00    +0.142 A 
ENDBRANCH  22  26
ENDBRANCH  11  17
BRANCH   6  16
ATOM     16  C   UNL     1       0.716  -1.558  25.459  0.00  0.00    +0.120 C 
BRANCH  16  18
ATOM     18  C   UNL     1      -0.716  -1.741  25.032  0.00  0.00    -0.033 A 
ATOM     20  C   UNL     1      -1.742  -1.135  25.757  0.00  0.00    +0.006 A 
ATOM     21  C   UNL     1      -1.016  -2.517  23.913  0.00  0.00    +0.006 A 
ATOM     23  C   UNL     1      -3.069  -1.305  25.361  0.00  0.00    +0.015 A 
ATOM     24  C   UNL     1      -2.342  -2.687  23.517  0.00  0.00    +0.015 A 
ATOM     25  C   UNL     1      -3.369  -2.081  24.241  0.00  0.00    +0.059 A 
BRANCH  25  29
ATOM      5  O   UNL     1      -5.229  -3.291  23.347  0.00  0.00    -0.245 OA
ATOM     29  C   UNL     1      -4.752  -2.257  23.827  0.00  0.00    +0.337 C 
BRANCH  29   4
ATOM      4  O   UNL     1      -5.502  -1.139  24.024  0.00  0.00    -0.477 OA
ATOM     34  H   UNL     1      -5.323  -0.727  24.896  0.00  0.00    +0.295 HD
ENDBRANCH  29   4
ENDBRANCH  25  29
ENDBRANCH  16  18
ENDBRANCH   6  16
TORSDOF 6
ENDMDL
MODEL 5
REMARK VINA RESULT:       5.9      4.296      8.056
REMARK  Name = 26761934
REMARK  6 active torsions:
REMARK  status: ('A' for Active; 'I' for Inactive)
REMARK    1  A    between atoms: O_4  and  C_29
REMARK    2  A    between atoms: N_6  and  C_16
REMARK    3  A    between atoms: C_11  and  C_17
REMARK    4  A    between atoms: C_16  and  C_18
REMARK    5  A    between atoms: C_22  and  C_26
REMARK    6  A    between atoms: C_25  and  C_29
REMARK                            x       y       z     vdW  Elec       q    Type
REMARK                         _______ _______ _______ _____ _____    ______ ____
ROOT
ATOM      6  N   UNL     1      -1.932   1.799  25.526  0.00  0.00    -0.281 NA
ATOM      7  N   UNL     1      -4.631   4.403  25.469  0.00  0.00    -0.347 N 
ATOM      8  N   UNL     1      -3.817   4.911  23.450  0.00  0.00    -0.240 NA
ATOM     11  C   UNL     1      -1.889   1.666  24.029  0.00  0.00    +0.152 C 
ATOM     12  C   UNL     1      -2.115   3.036  23.298  0.00  0.00    +0.086 C 
ATOM     13  C   UNL     1      -3.243   2.323  26.009  0.00  0.00    +0.140 C 
ATOM     14  C   UNL     1      -3.674   3.475  25.192  0.00  0.00    +0.053 A 
ATOM     15  C   UNL     1      -3.197   3.802  23.950  0.00  0.00    +0.065 A 
ATOM     19  C   UNL     1      -4.680   5.248  24.387  0.00  0.00    +0.197 A 
ATOM     33  H   UNL     1      -5.200   4.461  26.303  0.00  0.00    +0.167 HD
ENDROOT
BRANCH  11  17
ATOM      3  O   UNL     1      -0.705   0.222  22.437  0.00  0.00    -0.336 OA
ATOM      9  N   UNL     1       0.635   1.230  23.921  0.00  0.00    -0.190 NA
ATOM     10  N   UNL     1       0.597  -0.200  22.136  0.00  0.00    -0.056 NA
ATOM     17  C   UNL     1      -0.592   1.062  23.500  0.00  0.00    +0.245 A 
ATOM     22  C   UNL     1       1.329   0.438  23.055  0.00  0.00    +0.202 A 
BRANCH  22  26
ATOM      1 CL   UNL     1       5.406  -2.545  24.053  0.00  0.00    -0.081 Cl
ATOM      2  F   UNL     1       6.863  -0.062  23.349  0.00  0.00    -0.204 F 
ATOM     26  C   UNL     1       2.755   0.304  23.132  0.00  0.00    +0.024 A 
ATOM     27  C   UNL     1       3.323  -0.912  23.511  0.00  0.00    +0.034 A 
ATOM     28  C   UNL     1       3.574   1.392  22.828  0.00  0.00    +0.014 A 
ATOM     30  C   UNL     1       4.709  -1.041  23.586  0.00  0.00    +0.077 A 
ATOM     31  C   UNL     1       4.961   1.263  22.903  0.00  0.00    +0.040 A 
ATOM     32  C   UNL     1       5.528   0.046  23.282  0.00  0.00    +0.142 A 
ENDBRANCH  22  26
ENDBRANCH  11  17
BRANCH   6  16
ATOM     16  C   UNL     1      -1.670   0.524  26.209  0.00  0.00    +0.120 C 
BRANCH  16  18
ATOM     18  C   UNL     1      -2.291  -0.639  25.483  0.00  0.00    -0.033 A 
ATOM     20  C   UNL     1      -3.647  -0.612  25.154  0.00  0.00    +0.006 A 
ATOM     21  C   UNL     1      -1.512  -1.743  25.140  0.00  0.00    +0.006 A 
ATOM     23  C   UNL     1      -4.222  -1.690  24.482  0.00  0.00    +0.015 A 
ATOM     24  C   UNL     1      -2.087  -2.821  24.467  0.00  0.00    +0.015 A 
ATOM     25  C   UNL     1      -3.443  -2.795  24.138  0.00  0.00    +0.059 A 
BRANCH  25  29
ATOM      5  O   UNL     1      -3.445  -4.939  23.076  0.00  0.00    -0.245 OA
ATOM     29  C   UNL     1      -4.042  -3.918  23.436  0.00  0.00    +0.337 C 
BRANCH  29   4
ATOM      4  O   UNL     1      -5.370  -3.737  23.200  0.00  0.00    -0.477 OA
ATOM     34  H   UNL     1      -5.734  -4.430  22.609  0.00  0.00    +0.295 HD
ENDBRANCH  29   4
ENDBRANCH  25  29
ENDBRANCH  16  18
ENDBRANCH   6  16
TORSDOF 6
ENDMDL
