MODEL 1
REMARK VINA RESULT:      -5.9      0.000      0.000
REMARK  Name = 75536516
REMARK  10 active torsions:
REMARK  status: ('A' for Active; 'I' for Inactive)
REMARK    1  A    between atoms: O_2  and  C_8
REMARK    2  A    between atoms: N_4  and  C_7
REMARK    3  A    between atoms: N_4  and  C_9
REMARK    4  A    between atoms: N_6  and  C_14
REMARK    5  A    between atoms: C_10  and  C_14
REMARK    6  A    between atoms: C_17  and  C_18
REMARK    7  A    between atoms: C_17  and  C_20
REMARK    8  A    between atoms: C_17  and  C_21
REMARK    9  A    between atoms: C_17  and  C_22
REMARK   10  A    between atoms: C_18  and  C_19
REMARK                            x       y       z     vdW  Elec       q    Type
REMARK                         _______ _______ _______ _____ _____    ______ ____
ROOT
ATOM      1  O   UNL     1      -0.666   1.765  22.962  0.00  0.00    -0.371 OA
ATOM      7  C   UNL     1      -1.085   3.068  24.903  0.00  0.00    +0.111 C 
ATOM      8  C   UNL     1      -0.172   1.913  25.270  0.00  0.00    +0.164 C 
ATOM     10  C   UNL     1       0.395   1.542  23.906  0.00  0.00    +0.165 C 
ATOM     11  C   UNL     1      -1.672   2.582  23.588  0.00  0.00    +0.181 C 
ENDROOT
BRANCH   8   2
ATOM      2  O   UNL     1       0.845   2.289  26.179  0.00  0.00    -0.388 OA
ATOM     25  H   UNL     1       1.617   2.585  25.669  0.00  0.00    +0.210 HD
ENDBRANCH   8   2
BRANCH   7   4
ATOM      4  N   UNL     1      -2.100   3.349  25.905  0.00  0.00    -0.306 NA
ATOM     23  H   UNL     1      -1.945   4.272  26.311  0.00  0.00    +0.123 HD
BRANCH   4   9
ATOM      5  N   UNL     1      -6.304   2.745  25.649  0.00  0.00    -0.316 NA
ATOM      9  C   UNL     1      -3.442   3.283  25.329  0.00  0.00    +0.056 C 
ATOM     12  C   UNL     1      -4.386   4.273  26.021  0.00  0.00    +0.034 C 
ATOM     13  C   UNL     1      -3.997   1.860  25.438  0.00  0.00    +0.034 C 
ATOM     15  C   UNL     1      -5.815   4.118  25.498  0.00  0.00    +0.082 C 
ATOM     16  C   UNL     1      -5.441   1.799  24.938  0.00  0.00    +0.082 C 
ATOM     24  H   UNL     1      -7.251   2.683  25.275  0.00  0.00    +0.122 HD
ENDBRANCH   4   9
ENDBRANCH   7   4
BRANCH  10  14
ATOM     14  C   UNL     1       0.863   0.100  23.822  0.00  0.00    +0.138 C 
BRANCH  14   6
ATOM      3  O   UNL     1      -0.214  -1.743  25.778  0.00  0.00    -0.276 OA
ATOM      6  N   UNL     1      -0.248  -0.807  23.651  0.00  0.00    -0.313 N 
ATOM     19  C   UNL     1      -0.694  -1.656  24.650  0.00  0.00    +0.214 C 
ATOM     26  H   UNL     1      -0.722  -0.805  22.753  0.00  0.00    +0.149 HD
BRANCH  19  18
ATOM     18  C   UNL     1      -1.872  -2.516  24.218  0.00  0.00    +0.102 C 
BRANCH  18  17
ATOM     17  C   UNL     1      -3.258  -1.858  24.413  0.00  0.00    -0.029 C 
ATOM     20  C   UNL     1      -3.483  -1.439  25.875  0.00  0.00    +0.011 C 
ATOM     21  C   UNL     1      -3.421  -0.629  23.503  0.00  0.00    +0.011 C 
ATOM     22  C   UNL     1      -4.335  -2.893  24.032  0.00  0.00    +0.011 C 
ENDBRANCH  18  17
ENDBRANCH  19  18
ENDBRANCH  14   6
ENDBRANCH  10  14
TORSDOF 7
ENDMDL
MODEL 2
REMARK VINA RESULT:      -5.2      2.350      4.557
REMARK  Name = 75536516
REMARK  10 active torsions:
REMARK  status: ('A' for Active; 'I' for Inactive)
REMARK    1  A    between atoms: O_2  and  C_8
REMARK    2  A    between atoms: N_4  and  C_7
REMARK    3  A    between atoms: N_4  and  C_9
REMARK    4  A    between atoms: N_6  and  C_14
REMARK    5  A    between atoms: C_10  and  C_14
REMARK    6  A    between atoms: C_17  and  C_18
REMARK    7  A    between atoms: C_17  and  C_20
REMARK    8  A    between atoms: C_17  and  C_21
REMARK    9  A    between atoms: C_17  and  C_22
REMARK   10  A    between atoms: C_18  and  C_19
REMARK                            x       y       z     vdW  Elec       q    Type
REMARK                         _______ _______ _______ _____ _____    ______ ____
ROOT
ATOM      1  O   UNL     1      -5.644   3.120  25.974  0.00  0.00    -0.371 OA
ATOM      7  C   UNL     1      -3.882   4.098  24.718  0.00  0.00    +0.111 C 
ATOM      8  C   UNL     1      -4.108   2.679  24.231  0.00  0.00    +0.164 C 
ATOM     10  C   UNL     1      -5.526   2.422  24.724  0.00  0.00    +0.165 C 
ATOM     11  C   UNL     1      -4.562   4.063  26.077  0.00  0.00    +0.181 C 
ENDROOT
BRANCH   8   2
ATOM      2  O   UNL     1      -4.009   2.562  22.825  0.00  0.00    -0.388 OA
ATOM     25  H   UNL     1      -3.118   2.244  22.606  0.00  0.00    +0.210 HD
ENDBRANCH   8   2
BRANCH   7   4
ATOM      4  N   UNL     1      -2.479   4.471  24.797  0.00  0.00    -0.306 NA
ATOM     23  H   UNL     1      -2.331   5.116  25.573  0.00  0.00    +0.123 HD
BRANCH   4   9
ATOM      5  N   UNL     1       0.979   2.135  25.625  0.00  0.00    -0.316 NA
ATOM      9  C   UNL     1      -1.630   3.294  24.965  0.00  0.00    +0.056 C 
ATOM     12  C   UNL     1      -1.129   3.180  26.410  0.00  0.00    +0.034 C 
ATOM     13  C   UNL     1      -0.443   3.352  23.998  0.00  0.00    +0.034 C 
ATOM     15  C   UNL     1      -0.147   2.017  26.555  0.00  0.00    +0.082 C 
ATOM     16  C   UNL     1       0.512   2.182  24.237  0.00  0.00    +0.082 C 
ATOM     24  H   UNL     1       1.599   1.335  25.744  0.00  0.00    +0.122 HD
ENDBRANCH   4   9
ENDBRANCH   7   4
BRANCH  10  14
ATOM     14  C   UNL     1      -5.835   0.949  24.926  0.00  0.00    +0.138 C 
BRANCH  14   6
ATOM      3  O   UNL     1      -4.685  -1.512  23.923  0.00  0.00    -0.276 OA
ATOM      6  N   UNL     1      -4.693   0.238  25.452  0.00  0.00    -0.313 N 
ATOM     19  C   UNL     1      -4.213  -0.939  24.903  0.00  0.00    +0.214 C 
ATOM     26  H   UNL     1      -4.223   0.637  26.260  0.00  0.00    +0.149 HD
BRANCH  19  18
ATOM     18  C   UNL     1      -3.008  -1.495  25.645  0.00  0.00    +0.102 C 
BRANCH  18  17
ATOM     17  C   UNL     1      -1.694  -1.503  24.828  0.00  0.00    -0.029 C 
ATOM     20  C   UNL     1      -1.606  -0.288  23.890  0.00  0.00    +0.011 C 
ATOM     21  C   UNL     1      -0.466  -1.519  25.755  0.00  0.00    +0.011 C 
ATOM     22  C   UNL     1      -1.674  -2.783  23.971  0.00  0.00    +0.011 C 
ENDBRANCH  18  17
ENDBRANCH  19  18
ENDBRANCH  14   6
ENDBRANCH  10  14
TORSDOF 7
ENDMDL
MODEL 3
REMARK VINA RESULT:      -4.6      1.688      4.972
REMARK  Name = 75536516
REMARK  10 active torsions:
REMARK  status: ('A' for Active; 'I' for Inactive)
REMARK    1  A    between atoms: O_2  and  C_8
REMARK    2  A    between atoms: N_4  and  C_7
REMARK    3  A    between atoms: N_4  and  C_9
REMARK    4  A    between atoms: N_6  and  C_14
REMARK    5  A    between atoms: C_10  and  C_14
REMARK    6  A    between atoms: C_17  and  C_18
REMARK    7  A    between atoms: C_17  and  C_20
REMARK    8  A    between atoms: C_17  and  C_21
REMARK    9  A    between atoms: C_17  and  C_22
REMARK   10  A    between atoms: C_18  and  C_19
REMARK                            x       y       z     vdW  Elec       q    Type
REMARK                         _______ _______ _______ _____ _____    ______ ____
ROOT
ATOM      1  O   UNL     1      -1.053   2.595  26.488  0.00  0.00    -0.371 OA
ATOM      7  C   UNL     1      -0.211   1.217  24.747  0.00  0.00    +0.111 C 
ATOM      8  C   UNL     1      -0.685   2.530  24.153  0.00  0.00    +0.164 C 
ATOM     10  C   UNL     1      -0.673   3.430  25.382  0.00  0.00    +0.165 C 
ATOM     11  C   UNL     1      -0.923   1.219  26.090  0.00  0.00    +0.181 C 
ENDROOT
BRANCH   8   2
ATOM      2  O   UNL     1       0.174   3.012  23.138  0.00  0.00    -0.388 OA
ATOM     25  H   UNL     1      -0.348   3.560  22.529  0.00  0.00    +0.210 HD
ENDBRANCH   8   2
BRANCH   7   4
ATOM      4  N   UNL     1      -0.539   0.057  23.935  0.00  0.00    -0.306 NA
ATOM     23  H   UNL     1       0.236  -0.606  23.942  0.00  0.00    +0.123 HD
BRANCH   4   9
ATOM      5  N   UNL     1      -3.862  -2.597  24.044  0.00  0.00    -0.316 NA
ATOM      9  C   UNL     1      -1.753  -0.597  24.416  0.00  0.00    +0.056 C 
ATOM     12  C   UNL     1      -1.512  -2.092  24.658  0.00  0.00    +0.034 C 
ATOM     13  C   UNL     1      -2.895  -0.402  23.415  0.00  0.00    +0.034 C 
ATOM     15  C   UNL     1      -2.812  -2.797  25.048  0.00  0.00    +0.082 C 
ATOM     16  C   UNL     1      -4.141  -1.172  23.852  0.00  0.00    +0.082 C 
ATOM     24  H   UNL     1      -4.713  -3.069  24.350  0.00  0.00    +0.122 HD
ENDBRANCH   4   9
ENDBRANCH   7   4
BRANCH  10  14
ATOM     14  C   UNL     1      -1.626   4.607  25.275  0.00  0.00    +0.138 C 
BRANCH  14   6
ATOM      3  O   UNL     1      -3.912   3.740  23.723  0.00  0.00    -0.276 OA
ATOM      6  N   UNL     1      -2.941   4.268  25.767  0.00  0.00    -0.313 N 
ATOM     19  C   UNL     1      -3.978   3.862  24.945  0.00  0.00    +0.214 C 
ATOM     26  H   UNL     1      -3.096   4.327  26.769  0.00  0.00    +0.149 HD
BRANCH  19  18
ATOM     18  C   UNL     1      -5.263   3.573  25.704  0.00  0.00    +0.102 C 
BRANCH  18  17
ATOM     17  C   UNL     1      -5.708   2.091  25.680  0.00  0.00    -0.029 C 
ATOM     20  C   UNL     1      -6.618   1.796  24.477  0.00  0.00    +0.011 C 
ATOM     21  C   UNL     1      -4.493   1.149  25.641  0.00  0.00    +0.011 C 
ATOM     22  C   UNL     1      -6.501   1.811  26.972  0.00  0.00    +0.011 C 
ENDBRANCH  18  17
ENDBRANCH  19  18
ENDBRANCH  14   6
ENDBRANCH  10  14
TORSDOF 7
ENDMDL
MODEL 4
REMARK VINA RESULT:      -4.5      2.241      5.253
REMARK  Name = 75536516
REMARK  10 active torsions:
REMARK  status: ('A' for Active; 'I' for Inactive)
REMARK    1  A    between atoms: O_2  and  C_8
REMARK    2  A    between atoms: N_4  and  C_7
REMARK    3  A    between atoms: N_4  and  C_9
REMARK    4  A    between atoms: N_6  and  C_14
REMARK    5  A    between atoms: C_10  and  C_14
REMARK    6  A    between atoms: C_17  and  C_18
REMARK    7  A    between atoms: C_17  and  C_20
REMARK    8  A    between atoms: C_17  and  C_21
REMARK    9  A    between atoms: C_17  and  C_22
REMARK   10  A    between atoms: C_18  and  C_19
REMARK                            x       y       z     vdW  Elec       q    Type
REMARK                         _______ _______ _______ _____ _____    ______ ____
ROOT
ATOM      1  O   UNL     1      -3.838   3.658  24.006  0.00  0.00    -0.371 OA
ATOM      7  C   UNL     1      -5.482   2.019  24.507  0.00  0.00    +0.111 C 
ATOM      8  C   UNL     1      -4.907   2.556  25.805  0.00  0.00    +0.164 C 
ATOM     10  C   UNL     1      -4.323   3.884  25.340  0.00  0.00    +0.165 C 
ATOM     11  C   UNL     1      -4.415   2.437  23.509  0.00  0.00    +0.181 C 
ENDROOT
BRANCH   8   2
ATOM      2  O   UNL     1      -5.891   2.735  26.805  0.00  0.00    -0.388 OA
ATOM     25  H   UNL     1      -6.730   2.369  26.479  0.00  0.00    +0.210 HD
ENDBRANCH   8   2
BRANCH   7   4
ATOM      4  N   UNL     1      -5.713   0.584  24.521  0.00  0.00    -0.306 NA
ATOM     23  H   UNL     1      -6.222   0.303  23.683  0.00  0.00    +0.123 HD
BRANCH   4   9
ATOM      5  N   UNL     1      -2.988  -2.578  25.342  0.00  0.00    -0.316 NA
ATOM      9  C   UNL     1      -4.453  -0.151  24.602  0.00  0.00    +0.056 C 
ATOM     12  C   UNL     1      -4.505  -1.427  23.753  0.00  0.00    +0.034 C 
ATOM     13  C   UNL     1      -4.133  -0.499  26.059  0.00  0.00    +0.034 C 
ATOM     15  C   UNL     1      -3.232  -2.253  23.933  0.00  0.00    +0.082 C 
ATOM     16  C   UNL     1      -2.874  -1.361  26.150  0.00  0.00    +0.082 C 
ATOM     24  H   UNL     1      -2.124  -3.114  25.418  0.00  0.00    +0.122 HD
ENDBRANCH   4   9
ENDBRANCH   7   4
BRANCH  10  14
ATOM     14  C   UNL     1      -3.191   4.383  26.221  0.00  0.00    +0.138 C 
BRANCH  14   6
ATOM      3  O   UNL     1      -0.725   4.888  24.790  0.00  0.00    -0.276 OA
ATOM      6  N   UNL     1      -2.036   3.521  26.137  0.00  0.00    -0.313 N 
ATOM     19  C   UNL     1      -0.895   3.848  25.424  0.00  0.00    +0.214 C 
ATOM     26  H   UNL     1      -2.072   2.637  26.637  0.00  0.00    +0.149 HD
BRANCH  19  18
ATOM     18  C   UNL     1       0.175   2.770  25.484  0.00  0.00    +0.102 C 
BRANCH  18  17
ATOM     17  C   UNL     1       0.000   1.628  24.456  0.00  0.00    -0.029 C 
ATOM     20  C   UNL     1      -1.028   1.996  23.374  0.00  0.00    +0.011 C 
ATOM     21  C   UNL     1       1.339   1.276  23.785  0.00  0.00    +0.011 C 
ATOM     22  C   UNL     1      -0.509   0.383  25.208  0.00  0.00    +0.011 C 
ENDBRANCH  18  17
ENDBRANCH  19  18
ENDBRANCH  14   6
ENDBRANCH  10  14
TORSDOF 7
ENDMDL
MODEL 5
REMARK VINA RESULT:      -4.4      2.122      4.690
REMARK  Name = 75536516
REMARK  10 active torsions:
REMARK  status: ('A' for Active; 'I' for Inactive)
REMARK    1  A    between atoms: O_2  and  C_8
REMARK    2  A    between atoms: N_4  and  C_7
REMARK    3  A    between atoms: N_4  and  C_9
REMARK    4  A    between atoms: N_6  and  C_14
REMARK    5  A    between atoms: C_10  and  C_14
REMARK    6  A    between atoms: C_17  and  C_18
REMARK    7  A    between atoms: C_17  and  C_20
REMARK    8  A    between atoms: C_17  and  C_21
REMARK    9  A    between atoms: C_17  and  C_22
REMARK   10  A    between atoms: C_18  and  C_19
REMARK                            x       y       z     vdW  Elec       q    Type
REMARK                         _______ _______ _______ _____ _____    ______ ____
ROOT
ATOM      1  O   UNL     1      -2.662   4.666  25.751  0.00  0.00    -0.371 OA
ATOM      7  C   UNL     1      -1.062   3.693  24.289  0.00  0.00    +0.111 C 
ATOM      8  C   UNL     1      -2.424   3.088  24.006  0.00  0.00    +0.164 C 
ATOM     10  C   UNL     1      -3.345   4.146  24.599  0.00  0.00    +0.165 C 
ATOM     11  C   UNL     1      -1.277   4.282  25.674  0.00  0.00    +0.181 C 
ENDROOT
BRANCH   8   2
ATOM      2  O   UNL     1      -2.661   2.899  22.624  0.00  0.00    -0.388 OA
ATOM     25  H   UNL     1      -3.589   3.118  22.439  0.00  0.00    +0.210 HD
ENDBRANCH   8   2
BRANCH   7   4
ATOM      4  N   UNL     1       0.024   2.729  24.247  0.00  0.00    -0.306 NA
ATOM     23  H   UNL     1       0.711   2.944  24.969  0.00  0.00    +0.123 HD
BRANCH   4   9
ATOM      5  N   UNL     1      -0.032  -1.381  25.345  0.00  0.00    -0.316 NA
ATOM      9  C   UNL     1      -0.473   1.367  24.429  0.00  0.00    +0.056 C 
ATOM     12  C   UNL     1      -0.502   0.986  25.914  0.00  0.00    +0.034 C 
ATOM     13  C   UNL     1       0.395   0.376  23.648  0.00  0.00    +0.034 C 
ATOM     15  C   UNL     1      -0.909  -0.477  26.093  0.00  0.00    +0.082 C 
ATOM     16  C   UNL     1      -0.046  -1.064  23.915  0.00  0.00    +0.082 C 
ATOM     24  H   UNL     1      -0.347  -2.342  25.479  0.00  0.00    +0.122 HD
ENDBRANCH   4   9
ENDBRANCH   7   4
BRANCH  10  14
ATOM     14  C   UNL     1      -4.702   3.601  25.009  0.00  0.00    +0.138 C 
BRANCH  14   6
ATOM      3  O   UNL     1      -6.016   1.391  26.341  0.00  0.00    -0.276 OA
ATOM      6  N   UNL     1      -4.914   2.269  24.493  0.00  0.00    -0.313 N 
ATOM     19  C   UNL     1      -5.556   1.271  25.207  0.00  0.00    +0.214 C 
ATOM     26  H   UNL     1      -4.578   2.070  23.555  0.00  0.00    +0.149 HD
BRANCH  19  18
ATOM     18  C   UNL     1      -5.644  -0.043  24.448  0.00  0.00    +0.102 C 
BRANCH  18  17
ATOM     17  C   UNL     1      -4.313  -0.826  24.354  0.00  0.00    -0.029 C 
ATOM     20  C   UNL     1      -4.541  -2.270  23.880  0.00  0.00    +0.011 C 
ATOM     21  C   UNL     1      -3.328  -0.129  23.400  0.00  0.00    +0.011 C 
ATOM     22  C   UNL     1      -3.683  -0.867  25.759  0.00  0.00    +0.011 C 
ENDBRANCH  18  17
ENDBRANCH  19  18
ENDBRANCH  14   6
ENDBRANCH  10  14
TORSDOF 7
ENDMDL
MODEL 6
REMARK VINA RESULT:      -4.4      2.704      4.791
REMARK  Name = 75536516
REMARK  10 active torsions:
REMARK  status: ('A' for Active; 'I' for Inactive)
REMARK    1  A    between atoms: O_2  and  C_8
REMARK    2  A    between atoms: N_4  and  C_7
REMARK    3  A    between atoms: N_4  and  C_9
REMARK    4  A    between atoms: N_6  and  C_14
REMARK    5  A    between atoms: C_10  and  C_14
REMARK    6  A    between atoms: C_17  and  C_18
REMARK    7  A    between atoms: C_17  and  C_20
REMARK    8  A    between atoms: C_17  and  C_21
REMARK    9  A    between atoms: C_17  and  C_22
REMARK   10  A    between atoms: C_18  and  C_19
REMARK                            x       y       z     vdW  Elec       q    Type
REMARK                         _______ _______ _______ _____ _____    ______ ____
ROOT
ATOM      1  O   UNL     1       0.120   1.819  24.367  0.00  0.00    -0.371 OA
ATOM      7  C   UNL     1      -2.230   1.969  24.062  0.00  0.00    +0.111 C 
ATOM      8  C   UNL     1      -1.752   0.618  23.562  0.00  0.00    +0.164 C 
ATOM     10  C   UNL     1      -0.421   0.490  24.293  0.00  0.00    +0.165 C 
ATOM     11  C   UNL     1      -0.932   2.759  24.085  0.00  0.00    +0.181 C 
ENDROOT
BRANCH   8   2
ATOM      2  O   UNL     1      -2.639  -0.432  23.895  0.00  0.00    -0.388 OA
ATOM     25  H   UNL     1      -2.157  -1.080  24.435  0.00  0.00    +0.210 HD
ENDBRANCH   8   2
BRANCH   7   4
ATOM      4  N   UNL     1      -3.247   2.576  23.218  0.00  0.00    -0.306 NA
ATOM     23  H   UNL     1      -3.425   1.986  22.405  0.00  0.00    +0.123 HD
BRANCH   4   9
ATOM      5  N   UNL     1      -5.954   2.752  26.495  0.00  0.00    -0.316 NA
ATOM      9  C   UNL     1      -4.489   2.785  23.958  0.00  0.00    +0.056 C 
ATOM     12  C   UNL     1      -4.323   3.887  25.010  0.00  0.00    +0.034 C 
ATOM     13  C   UNL     1      -4.936   1.481  24.626  0.00  0.00    +0.034 C 
ATOM     15  C   UNL     1      -5.586   4.022  25.861  0.00  0.00    +0.082 C 
ATOM     16  C   UNL     1      -6.175   1.708  25.491  0.00  0.00    +0.082 C 
ATOM     24  H   UNL     1      -6.807   2.883  27.038  0.00  0.00    +0.122 HD
ENDBRANCH   4   9
ENDBRANCH   7   4
BRANCH  10  14
ATOM     14  C   UNL     1       0.564  -0.428  23.590  0.00  0.00    +0.138 C 
BRANCH  14   6
ATOM      3  O   UNL     1       2.374  -0.212  21.341  0.00  0.00    -0.276 OA
ATOM      6  N   UNL     1       1.897   0.129  23.590  0.00  0.00    -0.313 N 
ATOM     19  C   UNL     1       2.693   0.189  22.459  0.00  0.00    +0.214 C 
ATOM     26  H   UNL     1       2.251   0.499  24.467  0.00  0.00    +0.149 HD
BRANCH  19  18
ATOM     18  C   UNL     1       4.055   0.811  22.721  0.00  0.00    +0.102 C 
BRANCH  18  17
ATOM     17  C   UNL     1       5.059  -0.115  23.448  0.00  0.00    -0.029 C 
ATOM     20  C   UNL     1       4.421  -1.466  23.808  0.00  0.00    +0.011 C 
ATOM     21  C   UNL     1       6.310  -0.358  22.587  0.00  0.00    +0.011 C 
ATOM     22  C   UNL     1       5.493   0.583  24.751  0.00  0.00    +0.011 C 
ENDBRANCH  18  17
ENDBRANCH  19  18
ENDBRANCH  14   6
ENDBRANCH  10  14
TORSDOF 7
ENDMDL
MODEL 7
REMARK VINA RESULT:      -3.9      1.930      4.241
REMARK  Name = 75536516
REMARK  10 active torsions:
REMARK  status: ('A' for Active; 'I' for Inactive)
REMARK    1  A    between atoms: O_2  and  C_8
REMARK    2  A    between atoms: N_4  and  C_7
REMARK    3  A    between atoms: N_4  and  C_9
REMARK    4  A    between atoms: N_6  and  C_14
REMARK    5  A    between atoms: C_10  and  C_14
REMARK    6  A    between atoms: C_17  and  C_18
REMARK    7  A    between atoms: C_17  and  C_20
REMARK    8  A    between atoms: C_17  and  C_21
REMARK    9  A    between atoms: C_17  and  C_22
REMARK   10  A    between atoms: C_18  and  C_19
REMARK                            x       y       z     vdW  Elec       q    Type
REMARK                         _______ _______ _______ _____ _____    ______ ____
ROOT
ATOM      1  O   UNL     1      -1.370  -2.008  23.507  0.00  0.00    -0.371 OA
ATOM      7  C   UNL     1       0.059  -0.495  24.652  0.00  0.00    +0.111 C 
ATOM      8  C   UNL     1      -1.173  -0.750  25.500  0.00  0.00    +0.164 C 
ATOM     10  C   UNL     1      -1.668  -2.065  24.912  0.00  0.00    +0.165 C 
ATOM     11  C   UNL     1      -0.418  -0.952  23.284  0.00  0.00    +0.181 C 
ENDROOT
BRANCH   8   2
ATOM      2  O   UNL     1      -0.873  -0.869  26.878  0.00  0.00    -0.388 OA
ATOM     25  H   UNL     1      -0.032  -1.346  26.968  0.00  0.00    +0.210 HD
ENDBRANCH   8   2
BRANCH   7   4
ATOM      4  N   UNL     1       0.498   0.891  24.664  0.00  0.00    -0.306 NA
ATOM     23  H   UNL     1       0.979   1.113  23.793  0.00  0.00    +0.123 HD
BRANCH   4   9
ATOM      5  N   UNL     1      -1.641   4.511  25.310  0.00  0.00    -0.316 NA
ATOM      9  C   UNL     1      -0.631   1.800  24.850  0.00  0.00    +0.056 C 
ATOM     12  C   UNL     1      -0.678   2.853  23.738  0.00  0.00    +0.034 C 
ATOM     13  C   UNL     1      -0.544   2.482  26.219  0.00  0.00    +0.034 C 
ATOM     15  C   UNL     1      -1.787   3.873  23.999  0.00  0.00    +0.082 C 
ATOM     16  C   UNL     1      -1.658   3.515  26.385  0.00  0.00    +0.082 C 
ATOM     24  H   UNL     1      -2.407   5.170  25.450  0.00  0.00    +0.122 HD
ENDBRANCH   4   9
ENDBRANCH   7   4
BRANCH  10  14
ATOM     14  C   UNL     1      -3.155  -2.292  25.113  0.00  0.00    +0.138 C 
BRANCH  14   6
ATOM      3  O   UNL     1      -3.944   0.121  23.721  0.00  0.00    -0.276 OA
ATOM      6  N   UNL     1      -3.796  -1.126  25.676  0.00  0.00    -0.313 N 
ATOM     19  C   UNL     1      -4.138  -0.013  24.927  0.00  0.00    +0.214 C 
ATOM     26  H   UNL     1      -4.009  -1.141  26.669  0.00  0.00    +0.149 HD
BRANCH  19  18
ATOM     18  C   UNL     1      -4.793   1.083  25.753  0.00  0.00    +0.102 C 
BRANCH  18  17
ATOM     17  C   UNL     1      -5.343   2.271  24.930  0.00  0.00    -0.029 C 
ATOM     20  C   UNL     1      -5.399   3.559  25.767  0.00  0.00    +0.011 C 
ATOM     21  C   UNL     1      -4.489   2.518  23.675  0.00  0.00    +0.011 C 
ATOM     22  C   UNL     1      -6.775   1.918  24.483  0.00  0.00    +0.011 C 
ENDBRANCH  18  17
ENDBRANCH  19  18
ENDBRANCH  14   6
ENDBRANCH  10  14
TORSDOF 7
ENDMDL
MODEL 8
REMARK VINA RESULT:      -3.8      1.825      4.789
REMARK  Name = 75536516
REMARK  10 active torsions:
REMARK  status: ('A' for Active; 'I' for Inactive)
REMARK    1  A    between atoms: O_2  and  C_8
REMARK    2  A    between atoms: N_4  and  C_7
REMARK    3  A    between atoms: N_4  and  C_9
REMARK    4  A    between atoms: N_6  and  C_14
REMARK    5  A    between atoms: C_10  and  C_14
REMARK    6  A    between atoms: C_17  and  C_18
REMARK    7  A    between atoms: C_17  and  C_20
REMARK    8  A    between atoms: C_17  and  C_21
REMARK    9  A    between atoms: C_17  and  C_22
REMARK   10  A    between atoms: C_18  and  C_19
REMARK                            x       y       z     vdW  Elec       q    Type
REMARK                         _______ _______ _______ _____ _____    ______ ____
ROOT
ATOM      1  O   UNL     1      -0.432   3.043  25.753  0.00  0.00    -0.371 OA
ATOM      7  C   UNL     1      -0.239   0.685  25.961  0.00  0.00    +0.111 C 
ATOM      8  C   UNL     1      -0.390   1.041  24.494  0.00  0.00    +0.164 C 
ATOM     10  C   UNL     1       0.029   2.505  24.502  0.00  0.00    +0.165 C 
ATOM     11  C   UNL     1      -0.749   1.949  26.632  0.00  0.00    +0.181 C 
ENDROOT
BRANCH   8   2
ATOM      2  O   UNL     1       0.438   0.260  23.654  0.00  0.00    -0.388 OA
ATOM     25  H   UNL     1       1.255   0.757  23.482  0.00  0.00    +0.210 HD
ENDBRANCH   8   2
BRANCH   7   4
ATOM      4  N   UNL     1      -0.981  -0.502  26.353  0.00  0.00    -0.306 NA
ATOM     23  H   UNL     1      -1.572  -0.296  27.158  0.00  0.00    +0.123 HD
BRANCH   4   9
ATOM      5  N   UNL     1      -3.808  -2.881  24.244  0.00  0.00    -0.316 NA
ATOM      9  C   UNL     1      -1.803  -0.997  25.251  0.00  0.00    +0.056 C 
ATOM     12  C   UNL     1      -3.295  -0.848  25.569  0.00  0.00    +0.034 C 
ATOM     13  C   UNL     1      -1.470  -2.463  24.956  0.00  0.00    +0.034 C 
ATOM     15  C   UNL     1      -4.151  -1.474  24.467  0.00  0.00    +0.082 C 
ATOM     16  C   UNL     1      -2.396  -3.026  23.878  0.00  0.00    +0.082 C 
ATOM     24  H   UNL     1      -4.389  -3.254  23.494  0.00  0.00    +0.122 HD
ENDBRANCH   4   9
ENDBRANCH   7   4
BRANCH  10  14
ATOM     14  C   UNL     1      -0.556   3.305  23.352  0.00  0.00    +0.138 C 
BRANCH  14   6
ATOM      3  O   UNL     1      -2.990   1.802  22.904  0.00  0.00    -0.276 OA
ATOM      6  N   UNL     1      -1.909   3.725  23.634  0.00  0.00    -0.313 N 
ATOM     19  C   UNL     1      -3.017   2.933  23.384  0.00  0.00    +0.214 C 
ATOM     26  H   UNL     1      -2.038   4.645  24.045  0.00  0.00    +0.149 HD
BRANCH  19  18
ATOM     18  C   UNL     1      -4.327   3.606  23.761  0.00  0.00    +0.102 C 
BRANCH  18  17
ATOM     17  C   UNL     1      -4.768   3.386  25.228  0.00  0.00    -0.029 C 
ATOM     20  C   UNL     1      -5.260   1.948  25.459  0.00  0.00    +0.011 C 
ATOM     21  C   UNL     1      -3.619   3.693  26.203  0.00  0.00    +0.011 C 
ATOM     22  C   UNL     1      -5.931   4.353  25.526  0.00  0.00    +0.011 C 
ENDBRANCH  18  17
ENDBRANCH  19  18
ENDBRANCH  14   6
ENDBRANCH  10  14
TORSDOF 7
ENDMDL
MODEL 9
REMARK VINA RESULT:      -3.8     14.243     16.502
REMARK  Name = 75536516
REMARK  10 active torsions:
REMARK  status: ('A' for Active; 'I' for Inactive)
REMARK    1  A    between atoms: O_2  and  C_8
REMARK    2  A    between atoms: N_4  and  C_7
REMARK    3  A    between atoms: N_4  and  C_9
REMARK    4  A    between atoms: N_6  and  C_14
REMARK    5  A    between atoms: C_10  and  C_14
REMARK    6  A    between atoms: C_17  and  C_18
REMARK    7  A    between atoms: C_17  and  C_20
REMARK    8  A    between atoms: C_17  and  C_21
REMARK    9  A    between atoms: C_17  and  C_22
REMARK   10  A    between atoms: C_18  and  C_19
REMARK                            x       y       z     vdW  Elec       q    Type
REMARK                         _______ _______ _______ _____ _____    ______ ____
ROOT
ATOM      1  O   UNL     1      -3.331 -10.326  15.764  0.00  0.00    -0.371 OA
ATOM      7  C   UNL     1      -4.148 -10.100  13.545  0.00  0.00    +0.111 C 
ATOM      8  C   UNL     1      -5.302 -10.452  14.464  0.00  0.00    +0.164 C 
ATOM     10  C   UNL     1      -4.737 -10.039  15.817  0.00  0.00    +0.165 C 
ATOM     11  C   UNL     1      -2.954 -10.516  14.388  0.00  0.00    +0.181 C 
ENDROOT
BRANCH   8   2
ATOM      2  O   UNL     1      -6.486  -9.745  14.149  0.00  0.00    -0.388 OA
ATOM     25  H   UNL     1      -6.891  -9.441  14.978  0.00  0.00    +0.210 HD
ENDBRANCH   8   2
BRANCH   7   4
ATOM      4  N   UNL     1      -4.197 -10.778  12.260  0.00  0.00    -0.306 NA
ATOM     23  H   UNL     1      -4.864 -11.549  12.297  0.00  0.00    +0.123 HD
BRANCH   4   9
ATOM      5  N   UNL     1      -4.829  -9.276   8.330  0.00  0.00    -0.316 NA
ATOM      9  C   UNL     1      -4.568  -9.854  11.191  0.00  0.00    +0.056 C 
ATOM     12  C   UNL     1      -5.711 -10.425  10.344  0.00  0.00    +0.034 C 
ATOM     13  C   UNL     1      -3.356  -9.552  10.305  0.00  0.00    +0.034 C 
ATOM     15  C   UNL     1      -6.017  -9.512   9.156  0.00  0.00    +0.082 C 
ATOM     16  C   UNL     1      -3.752  -8.673   9.119  0.00  0.00    +0.082 C 
ATOM     24  H   UNL     1      -5.073  -8.652   7.561  0.00  0.00    +0.122 HD
ENDBRANCH   4   9
ENDBRANCH   7   4
BRANCH  10  14
ATOM     14  C   UNL     1      -5.369 -10.778  16.983  0.00  0.00    +0.138 C 
BRANCH  14   6
ATOM      3  O   UNL     1      -7.253  -9.630  18.859  0.00  0.00    -0.276 OA
ATOM      6  N   UNL     1      -6.810 -10.781  16.889  0.00  0.00    -0.313 N 
ATOM     19  C   UNL     1      -7.634 -10.203  17.840  0.00  0.00    +0.214 C 
ATOM     26  H   UNL     1      -7.226 -11.223  16.075  0.00  0.00    +0.149 HD
BRANCH  19  18
ATOM     18  C   UNL     1      -9.112 -10.348  17.516  0.00  0.00    +0.102 C 
BRANCH  18  17
ATOM     17  C   UNL     1      -9.741  -9.123  16.810  0.00  0.00    -0.029 C 
ATOM     20  C   UNL     1     -10.716  -9.551  15.701  0.00  0.00    +0.011 C 
ATOM     21  C   UNL     1     -10.481  -8.224  17.815  0.00  0.00    +0.011 C 
ATOM     22  C   UNL     1      -8.603  -8.305  16.170  0.00  0.00    +0.011 C 
ENDBRANCH  18  17
ENDBRANCH  19  18
ENDBRANCH  14   6
ENDBRANCH  10  14
TORSDOF 7
ENDMDL
MODEL 10
REMARK VINA RESULT:      -3.8      2.215      5.329
REMARK  Name = 75536516
REMARK  10 active torsions:
REMARK  status: ('A' for Active; 'I' for Inactive)
REMARK    1  A    between atoms: O_2  and  C_8
REMARK    2  A    between atoms: N_4  and  C_7
REMARK    3  A    between atoms: N_4  and  C_9
REMARK    4  A    between atoms: N_6  and  C_14
REMARK    5  A    between atoms: C_10  and  C_14
REMARK    6  A    between atoms: C_17  and  C_18
REMARK    7  A    between atoms: C_17  and  C_20
REMARK    8  A    between atoms: C_17  and  C_21
REMARK    9  A    between atoms: C_17  and  C_22
REMARK   10  A    between atoms: C_18  and  C_19
REMARK                            x       y       z     vdW  Elec       q    Type
REMARK                         _______ _______ _______ _____ _____    ______ ____
ROOT
ATOM      1  O   UNL     1      -2.153   3.809  25.676  0.00  0.00    -0.371 OA
ATOM      7  C   UNL     1      -0.287   2.770  24.638  0.00  0.00    +0.111 C 
ATOM      8  C   UNL     1      -1.552   2.352  23.913  0.00  0.00    +0.164 C 
ATOM     10  C   UNL     1      -2.509   3.463  24.328  0.00  0.00    +0.165 C 
ATOM     11  C   UNL     1      -0.848   3.273  25.958  0.00  0.00    +0.181 C 
ENDROOT
BRANCH   8   2
ATOM      2  O   UNL     1      -1.385   2.298  22.509  0.00  0.00    -0.388 OA
ATOM     25  H   UNL     1      -1.433   1.369  22.231  0.00  0.00    +0.210 HD
ENDBRANCH   8   2
BRANCH   7   4
ATOM      4  N   UNL     1       0.672   1.691  24.806  0.00  0.00    -0.306 NA
ATOM     23  H   UNL     1       0.211   0.871  25.200  0.00  0.00    +0.123 HD
BRANCH   4   9
ATOM      5  N   UNL     1       3.044  -0.428  21.980  0.00  0.00    -0.316 NA
ATOM      9  C   UNL     1       1.299   1.341  23.534  0.00  0.00    +0.056 C 
ATOM     12  C   UNL     1       0.844  -0.044  23.059  0.00  0.00    +0.034 C 
ATOM     13  C   UNL     1       2.825   1.378  23.666  0.00  0.00    +0.034 C 
ATOM     15  C   UNL     1       1.591  -0.457  21.791  0.00  0.00    +0.082 C 
ATOM     16  C   UNL     1       3.495   0.910  22.374  0.00  0.00    +0.082 C 
ATOM     24  H   UNL     1       3.502  -0.694  21.109  0.00  0.00    +0.122 HD
ENDBRANCH   4   9
ENDBRANCH   7   4
BRANCH  10  14
ATOM     14  C   UNL     1      -3.969   3.051  24.270  0.00  0.00    +0.138 C 
BRANCH  14   6
ATOM      3  O   UNL     1      -5.252   1.039  25.911  0.00  0.00    -0.276 OA
ATOM      6  N   UNL     1      -4.110   1.644  23.979  0.00  0.00    -0.313 N 
ATOM     19  C   UNL     1      -4.743   0.752  24.829  0.00  0.00    +0.214 C 
ATOM     26  H   UNL     1      -3.730   1.306  23.100  0.00  0.00    +0.149 HD
BRANCH  19  18
ATOM     18  C   UNL     1      -4.752  -0.672  24.299  0.00  0.00    +0.102 C 
BRANCH  18  17
ATOM     17  C   UNL     1      -3.549  -1.536  24.747  0.00  0.00    -0.029 C 
ATOM     20  C   UNL     1      -3.735  -3.010  24.352  0.00  0.00    +0.011 C 
ATOM     21  C   UNL     1      -2.235  -1.012  24.142  0.00  0.00    +0.011 C 
ATOM     22  C   UNL     1      -3.446  -1.452  26.282  0.00  0.00    +0.011 C 
ENDBRANCH  18  17
ENDBRANCH  19  18
ENDBRANCH  14   6
ENDBRANCH  10  14
TORSDOF 7
ENDMDL
