MODEL 1
REMARK VINA RESULT:      -4.5      0.000      0.000
REMARK  Name = 45784269
REMARK  4 active torsions:
REMARK  status: ('A' for Active; 'I' for Inactive)
REMARK    1  A    between atoms: N_4  and  C_13
REMARK    2  A    between atoms: C_8  and  C_12
REMARK    3  A    between atoms: C_13  and  C_15
REMARK    4  A    between atoms: C_20  and  C_24
REMARK                            x       y       z     vdW  Elec       q    Type
REMARK                         _______ _______ _______ _____ _____    ______ ____
ROOT
ATOM      5  N   UNL     1      17.064  -5.340  26.315  0.00  0.00    -0.342 N 
ATOM      6  N   UNL     1      17.405  -3.830  27.911  0.00  0.00    -0.232 NA
ATOM     12  C   UNL     1      17.285  -5.111  27.645  0.00  0.00    +0.113 A 
ATOM     14  C   UNL     1      17.037  -4.124  25.681  0.00  0.00    +0.067 A 
ATOM     16  C   UNL     1      17.252  -3.198  26.698  0.00  0.00    +0.089 A 
ATOM     17  C   UNL     1      16.850  -3.766  24.346  0.00  0.00    +0.040 A 
ATOM     18  C   UNL     1      17.286  -1.829  26.383  0.00  0.00    +0.030 A 
ATOM     20  C   UNL     1      16.886  -2.399  24.050  0.00  0.00    +0.057 A 
ATOM     22  C   UNL     1      17.100  -1.446  25.049  0.00  0.00    +0.014 A 
ATOM     26  H   UNL     1      16.940  -6.242  25.874  0.00  0.00    +0.167 HD
ENDROOT
BRANCH  12   8
ATOM      4  N   UNL     1      16.068  -7.820  29.791  0.00  0.00    -0.297 NA
ATOM      8  C   UNL     1      17.371  -6.252  28.634  0.00  0.00    +0.070 C 
ATOM      9  C   UNL     1      17.256  -5.836  30.111  0.00  0.00    +0.028 C 
ATOM     10  C   UNL     1      16.266  -7.298  28.437  0.00  0.00    +0.096 C 
ATOM     11  C   UNL     1      16.085  -6.642  30.657  0.00  0.00    +0.085 C 
BRANCH   4  13
ATOM     13  C   UNL     1      14.835  -8.584  29.917  0.00  0.00    +0.121 C 
BRANCH  13  15
ATOM      7  N   UNL     1      12.653  -7.645  32.865  0.00  0.00    -0.263 NA
ATOM     15  C   UNL     1      13.812  -7.863  30.754  0.00  0.00    -0.015 A 
ATOM     19  C   UNL     1      13.092  -6.791  30.239  0.00  0.00    +0.008 A 
ATOM     21  C   UNL     1      13.558  -8.248  32.061  0.00  0.00    +0.115 A 
ATOM     23  C   UNL     1      12.152  -6.146  31.035  0.00  0.00    +0.020 A 
ATOM     25  C   UNL     1      11.972  -6.607  32.330  0.00  0.00    +0.111 A 
ENDBRANCH  13  15
ENDBRANCH   4  13
ENDBRANCH  12   8
BRANCH  20  24
ATOM      1  F   UNL     1      17.405  -2.699  21.749  0.00  0.00    -0.166 F 
ATOM      2  F   UNL     1      15.394  -2.021  22.219  0.00  0.00    -0.166 F 
ATOM      3  F   UNL     1      17.068  -0.658  22.420  0.00  0.00    -0.166 F 
ATOM     24  C   UNL     1      16.691  -1.951  22.638  0.00  0.00    +0.417 C 
ENDBRANCH  20  24
TORSDOF 4
ENDMDL
MODEL 2
REMARK VINA RESULT:      -3.7      1.795      2.314
REMARK  Name = 45784269
REMARK  4 active torsions:
REMARK  status: ('A' for Active; 'I' for Inactive)
REMARK    1  A    between atoms: N_4  and  C_13
REMARK    2  A    between atoms: C_8  and  C_12
REMARK    3  A    between atoms: C_13  and  C_15
REMARK    4  A    between atoms: C_20  and  C_24
REMARK                            x       y       z     vdW  Elec       q    Type
REMARK                         _______ _______ _______ _____ _____    ______ ____
ROOT
ATOM      5  N   UNL     1      17.317  -4.209  27.781  0.00  0.00    -0.342 N 
ATOM      6  N   UNL     1      16.912  -2.080  28.276  0.00  0.00    -0.232 NA
ATOM     12  C   UNL     1      17.204  -3.265  28.763  0.00  0.00    +0.113 A 
ATOM     14  C   UNL     1      17.081  -3.591  26.579  0.00  0.00    +0.067 A 
ATOM     16  C   UNL     1      16.830  -2.264  26.915  0.00  0.00    +0.089 A 
ATOM     17  C   UNL     1      17.066  -4.066  25.267  0.00  0.00    +0.040 A 
ATOM     18  C   UNL     1      16.547  -1.340  25.895  0.00  0.00    +0.030 A 
ATOM     20  C   UNL     1      16.781  -3.133  24.264  0.00  0.00    +0.057 A 
ATOM     22  C   UNL     1      16.526  -1.794  24.570  0.00  0.00    +0.014 A 
ATOM     26  H   UNL     1      17.534  -5.188  27.912  0.00  0.00    +0.167 HD
ENDROOT
BRANCH  12   8
ATOM      4  N   UNL     1      16.584  -4.985  31.939  0.00  0.00    -0.297 NA
ATOM      8  C   UNL     1      17.405  -3.620  30.219  0.00  0.00    +0.070 C 
ATOM      9  C   UNL     1      16.594  -2.767  31.210  0.00  0.00    +0.028 C 
ATOM     10  C   UNL     1      17.016  -5.068  30.542  0.00  0.00    +0.096 C 
ATOM     11  C   UNL     1      15.775  -3.769  32.013  0.00  0.00    +0.085 C 
BRANCH   4  13
ATOM     13  C   UNL     1      15.849  -6.168  32.364  0.00  0.00    +0.121 C 
BRANCH  13  15
ATOM      7  N   UNL     1      12.182  -5.268  32.090  0.00  0.00    -0.263 NA
ATOM     15  C   UNL     1      14.424  -6.147  31.879  0.00  0.00    -0.015 A 
ATOM     19  C   UNL     1      14.018  -6.947  30.816  0.00  0.00    +0.008 A 
ATOM     21  C   UNL     1      13.476  -5.333  32.477  0.00  0.00    +0.115 A 
ATOM     23  C   UNL     1      12.696  -6.908  30.390  0.00  0.00    +0.020 A 
ATOM     25  C   UNL     1      11.824  -6.060  31.055  0.00  0.00    +0.111 A 
ENDBRANCH  13  15
ENDBRANCH   4  13
ENDBRANCH  12   8
BRANCH  20  24
ATOM      1  F   UNL     1      17.398  -2.716  22.006  0.00  0.00    -0.166 F 
ATOM      2  F   UNL     1      17.334  -4.796  22.636  0.00  0.00    -0.166 F 
ATOM      3  F   UNL     1      15.486  -3.700  22.334  0.00  0.00    -0.166 F 
ATOM     24  C   UNL     1      16.749  -3.579  22.838  0.00  0.00    +0.417 C 
ENDBRANCH  20  24
TORSDOF 4
ENDMDL
MODEL 3
REMARK VINA RESULT:      -2.8      1.796      3.126
REMARK  Name = 45784269
REMARK  4 active torsions:
REMARK  status: ('A' for Active; 'I' for Inactive)
REMARK    1  A    between atoms: N_4  and  C_13
REMARK    2  A    between atoms: C_8  and  C_12
REMARK    3  A    between atoms: C_13  and  C_15
REMARK    4  A    between atoms: C_20  and  C_24
REMARK                            x       y       z     vdW  Elec       q    Type
REMARK                         _______ _______ _______ _____ _____    ______ ____
ROOT
ATOM      5  N   UNL     1      16.739  -5.048  27.730  0.00  0.00    -0.342 N 
ATOM      6  N   UNL     1      17.269  -3.084  28.627  0.00  0.00    -0.232 NA
ATOM     12  C   UNL     1      16.988  -4.344  28.875  0.00  0.00    +0.113 A 
ATOM     14  C   UNL     1      16.866  -4.185  26.672  0.00  0.00    +0.067 A 
ATOM     16  C   UNL     1      17.197  -2.966  27.258  0.00  0.00    +0.089 A 
ATOM     17  C   UNL     1      16.725  -4.360  25.295  0.00  0.00    +0.040 A 
ATOM     18  C   UNL     1      17.404  -1.844  26.437  0.00  0.00    +0.030 A 
ATOM     20  C   UNL     1      16.934  -3.233  24.493  0.00  0.00    +0.057 A 
ATOM     22  C   UNL     1      17.267  -1.997  25.052  0.00  0.00    +0.014 A 
ATOM     26  H   UNL     1      16.501  -6.029  27.669  0.00  0.00    +0.167 HD
ENDROOT
BRANCH  12   8
ATOM      4  N   UNL     1      16.420  -7.031  31.301  0.00  0.00    -0.297 NA
ATOM      8  C   UNL     1      16.928  -5.007  30.232  0.00  0.00    +0.070 C 
ATOM      9  C   UNL     1      15.574  -4.882  30.954  0.00  0.00    +0.028 C 
ATOM     10  C   UNL     1      17.201  -6.515  30.174  0.00  0.00    +0.096 C 
ATOM     11  C   UNL     1      15.145  -6.316  31.236  0.00  0.00    +0.085 C 
BRANCH   4  13
ATOM     13  C   UNL     1      16.249  -8.475  31.244  0.00  0.00    +0.121 C 
BRANCH  13  15
ATOM      7  N   UNL     1      15.153  -9.025  27.663  0.00  0.00    -0.263 NA
ATOM     15  C   UNL     1      16.229  -8.983  29.827  0.00  0.00    -0.015 A 
ATOM     19  C   UNL     1      17.215  -9.846  29.362  0.00  0.00    +0.008 A 
ATOM     21  C   UNL     1      15.229  -8.606  28.947  0.00  0.00    +0.115 A 
ATOM     23  C   UNL     1      17.170 -10.299  28.049  0.00  0.00    +0.020 A 
ATOM     25  C   UNL     1      16.127  -9.864  27.247  0.00  0.00    +0.111 A 
ENDBRANCH  13  15
ENDBRANCH   4  13
ENDBRANCH  12   8
BRANCH  20  24
ATOM      1  F   UNL     1      15.495  -3.422  22.609  0.00  0.00    -0.166 F 
ATOM      2  F   UNL     1      17.340  -2.307  22.325  0.00  0.00    -0.166 F 
ATOM      3  F   UNL     1      17.399  -4.468  22.498  0.00  0.00    -0.166 F 
ATOM     24  C   UNL     1      16.797  -3.355  23.010  0.00  0.00    +0.417 C 
ENDBRANCH  20  24
TORSDOF 4
ENDMDL
MODEL 4
REMARK VINA RESULT:      -1.9     16.282     17.936
REMARK  Name = 45784269
REMARK  4 active torsions:
REMARK  status: ('A' for Active; 'I' for Inactive)
REMARK    1  A    between atoms: N_4  and  C_13
REMARK    2  A    between atoms: C_8  and  C_12
REMARK    3  A    between atoms: C_13  and  C_15
REMARK    4  A    between atoms: C_20  and  C_24
REMARK                            x       y       z     vdW  Elec       q    Type
REMARK                         _______ _______ _______ _____ _____    ______ ____
ROOT
ATOM      5  N   UNL     1       0.938   1.925  24.459  0.00  0.00    -0.342 N 
ATOM      6  N   UNL     1      -0.137   0.830  22.851  0.00  0.00    -0.232 NA
ATOM     12  C   UNL     1      -0.261   1.668  23.856  0.00  0.00    +0.113 A 
ATOM     14  C   UNL     1       1.901   1.205  23.799  0.00  0.00    +0.067 A 
ATOM     16  C   UNL     1       1.205   0.530  22.801  0.00  0.00    +0.089 A 
ATOM     17  C   UNL     1       3.279   1.090  23.985  0.00  0.00    +0.040 A 
ATOM     18  C   UNL     1       1.909  -0.315  21.925  0.00  0.00    +0.030 A 
ATOM     20  C   UNL     1       3.964   0.245  23.105  0.00  0.00    +0.057 A 
ATOM     22  C   UNL     1       3.293  -0.446  22.094  0.00  0.00    +0.014 A 
ATOM     26  H   UNL     1       1.093   2.536  25.250  0.00  0.00    +0.167 HD
ENDROOT
BRANCH  12   8
ATOM      4  N   UNL     1      -3.777   1.848  24.873  0.00  0.00    -0.297 NA
ATOM      8  C   UNL     1      -1.539   2.309  24.345  0.00  0.00    +0.070 C 
ATOM      9  C   UNL     1      -2.454   2.857  23.235  0.00  0.00    +0.028 C 
ATOM     10  C   UNL     1      -2.428   1.343  25.139  0.00  0.00    +0.096 C 
ATOM     11  C   UNL     1      -3.789   2.155  23.443  0.00  0.00    +0.085 C 
BRANCH   4  13
ATOM     13  C   UNL     1      -4.811   0.893  25.243  0.00  0.00    +0.121 C 
BRANCH  13  15
ATOM      7  N   UNL     1      -4.295  -2.478  23.601  0.00  0.00    -0.263 NA
ATOM     15  C   UNL     1      -4.365  -0.529  25.028  0.00  0.00    -0.015 A 
ATOM     19  C   UNL     1      -3.639  -1.207  26.002  0.00  0.00    +0.008 A 
ATOM     21  C   UNL     1      -4.665  -1.203  23.856  0.00  0.00    +0.115 A 
ATOM     23  C   UNL     1      -3.242  -2.519  25.776  0.00  0.00    +0.020 A 
ATOM     25  C   UNL     1      -3.592  -3.105  24.570  0.00  0.00    +0.111 A 
ENDBRANCH  13  15
ENDBRANCH   4  13
ENDBRANCH  12   8
BRANCH  20  24
ATOM      1  F   UNL     1       6.047   1.196  23.748  0.00  0.00    -0.166 F 
ATOM      2  F   UNL     1       5.793  -0.936  24.096  0.00  0.00    -0.166 F 
ATOM      3  F   UNL     1       6.079  -0.196  22.077  0.00  0.00    -0.166 F 
ATOM     24  C   UNL     1       5.442   0.078  23.253  0.00  0.00    +0.417 C 
ENDBRANCH  20  24
TORSDOF 4
ENDMDL
MODEL 5
REMARK VINA RESULT:      -1.6     16.646     18.376
REMARK  Name = 45784269
REMARK  4 active torsions:
REMARK  status: ('A' for Active; 'I' for Inactive)
REMARK    1  A    between atoms: N_4  and  C_13
REMARK    2  A    between atoms: C_8  and  C_12
REMARK    3  A    between atoms: C_13  and  C_15
REMARK    4  A    between atoms: C_20  and  C_24
REMARK                            x       y       z     vdW  Elec       q    Type
REMARK                         _______ _______ _______ _____ _____    ______ ____
ROOT
ATOM      5  N   UNL     1       0.404  -1.437  24.122  0.00  0.00    -0.342 N 
ATOM      6  N   UNL     1      -0.471   0.546  23.629  0.00  0.00    -0.232 NA
ATOM     12  C   UNL     1      -0.732  -0.685  24.009  0.00  0.00    +0.113 A 
ATOM     14  C   UNL     1       1.469  -0.639  23.791  0.00  0.00    +0.067 A 
ATOM     16  C   UNL     1       0.897   0.594  23.487  0.00  0.00    +0.089 A 
ATOM     17  C   UNL     1       2.842  -0.882  23.733  0.00  0.00    +0.040 A 
ATOM     18  C   UNL     1       1.728   1.659  23.102  0.00  0.00    +0.030 A 
ATOM     20  C   UNL     1       3.654   0.190  23.347  0.00  0.00    +0.057 A 
ATOM     22  C   UNL     1       3.109   1.438  23.036  0.00  0.00    +0.014 A 
ATOM     26  H   UNL     1       0.455  -2.409  24.398  0.00  0.00    +0.167 HD
ENDROOT
BRANCH  12   8
ATOM      4  N   UNL     1      -4.343  -0.693  24.630  0.00  0.00    -0.297 NA
ATOM      8  C   UNL     1      -2.094  -1.270  24.305  0.00  0.00    +0.070 C 
ATOM      9  C   UNL     1      -2.441  -1.375  25.801  0.00  0.00    +0.028 C 
ATOM     10  C   UNL     1      -3.241  -0.454  23.696  0.00  0.00    +0.096 C 
ATOM     11  C   UNL     1      -3.740  -0.595  25.959  0.00  0.00    +0.085 C 
BRANCH   4  13
ATOM     13  C   UNL     1      -5.440   0.246  24.448  0.00  0.00    +0.121 C 
BRANCH  13  15
ATOM      7  N   UNL     1      -5.303   3.663  26.070  0.00  0.00    -0.263 NA
ATOM     15  C   UNL     1      -5.022   1.661  24.745  0.00  0.00    -0.015 A 
ATOM     19  C   UNL     1      -4.012   2.278  24.014  0.00  0.00    +0.008 A 
ATOM     21  C   UNL     1      -5.630   2.390  25.753  0.00  0.00    +0.115 A 
ATOM     23  C   UNL     1      -3.648   3.587  24.310  0.00  0.00    +0.020 A 
ATOM     25  C   UNL     1      -4.318   4.230  25.338  0.00  0.00    +0.111 A 
ENDBRANCH  13  15
ENDBRANCH   4  13
ENDBRANCH  12   8
BRANCH  20  24
ATOM      1  F   UNL     1       5.826   0.951  23.945  0.00  0.00    -0.166 F 
ATOM      2  F   UNL     1       5.553  -1.200  23.779  0.00  0.00    -0.166 F 
ATOM      3  F   UNL     1       5.617   0.023  21.989  0.00  0.00    -0.166 F 
ATOM     24  C   UNL     1       5.133  -0.007  23.265  0.00  0.00    +0.417 C 
ENDBRANCH  20  24
TORSDOF 4
ENDMDL
