MODEL 1
REMARK VINA RESULT:      -1.4      0.000      0.000
REMARK  Name = 45784407
REMARK  14 active torsions:
REMARK  status: ('A' for Active; 'I' for Inactive)
REMARK    1  A    between atoms: O_1  and  C_11
REMARK    2  A    between atoms: O_4  and  C_24
REMARK    3  A    between atoms: O_4  and  C_28
REMARK    4  A    between atoms: N_5  and  C_15
REMARK    5  A    between atoms: N_6  and  C_25
REMARK    6  A    between atoms: N_6  and  C_26
REMARK    7  A    between atoms: C_8  and  C_18
REMARK    8  A    between atoms: C_10  and  C_20
REMARK    9  A    between atoms: C_13  and  C_19
REMARK   10  A    between atoms: C_19  and  C_21
REMARK   11  A    between atoms: C_19  and  C_22
REMARK   12  A    between atoms: C_23  and  C_24
REMARK   13  A    between atoms: C_25  and  C_27
REMARK   14  A    between atoms: C_27  and  C_29
REMARK                            x       y       z     vdW  Elec       q    Type
REMARK                         _______ _______ _______ _____ _____    ______ ____
ROOT
ATOM      8  C   UNL     1      -1.681  -1.056  25.183  0.00  0.00    -0.027 C 
ATOM      9  C   UNL     1      -1.639   0.153  24.190  0.00  0.00    +0.028 C 
ATOM     10  C   UNL     1      -0.167   0.667  23.998  0.00  0.00    +0.012 C 
ATOM     11  C   UNL     1      -2.681   1.241  24.581  0.00  0.00    +0.122 C 
ATOM     12  C   UNL     1      -3.124  -1.608  25.262  0.00  0.00    +0.007 C 
ATOM     13  C   UNL     1      -4.104   0.663  24.760  0.00  0.00    +0.029 C 
ATOM     14  C   UNL     1      -0.774  -2.185  24.642  0.00  0.00    +0.009 C 
ATOM     15  C   UNL     1       0.752  -0.495  23.526  0.00  0.00    +0.076 C 
ATOM     16  C   UNL     1      -4.142  -0.556  25.683  0.00  0.00    +0.007 C 
ATOM     17  C   UNL     1       0.662  -1.738  24.410  0.00  0.00    +0.023 C 
ATOM     18  C   UNL     1      -1.218  -0.669  26.610  0.00  0.00    +0.011 C 
ATOM     20  C   UNL     1      -0.048   1.839  23.010  0.00  0.00    +0.010 C 
ENDROOT
BRANCH  15   5
ATOM      3  O   UNL     1       2.345  -0.155  21.136  0.00  0.00    -0.273 OA
ATOM      5  N   UNL     1       2.138  -0.085  23.450  0.00  0.00    -0.310 N 
ATOM     23  C   UNL     1       2.817   0.049  22.251  0.00  0.00    +0.239 C 
ATOM     30  H   UNL     1       2.645   0.047  24.321  0.00  0.00    +0.149 HD
BRANCH  23  24
ATOM     24  C   UNL     1       4.248   0.490  22.466  0.00  0.00    +0.255 C 
BRANCH  24   4
ATOM      4  O   UNL     1       4.579   0.463  23.838  0.00  0.00    -0.374 OA
ATOM     28  C   UNL     1       5.536  -0.550  24.135  0.00  0.00    +0.194 C 
ENDBRANCH  24   4
ENDBRANCH  23  24
ENDBRANCH  15   5
BRANCH  11   1
ATOM      1  O   UNL     1      -2.764   2.216  23.542  0.00  0.00    -0.391 OA
ATOM     31  H   UNL     1      -3.702   2.437  23.408  0.00  0.00    +0.210 HD
ENDBRANCH  11   1
BRANCH  13  19
ATOM     19  C   UNL     1      -5.088   1.723  25.271  0.00  0.00    +0.078 C 
ATOM     21  C   UNL     1      -6.514   1.175  25.191  0.00  0.00    +0.017 C 
BRANCH  19  22
ATOM      2  O   UNL     1      -5.395   3.040  23.295  0.00  0.00    -0.275 OA
ATOM      6  N   UNL     1      -4.281   4.086  25.032  0.00  0.00    -0.303 N 
ATOM     22  C   UNL     1      -4.944   3.003  24.445  0.00  0.00    +0.219 C 
ATOM     26  C   UNL     1      -4.108   5.315  24.263  0.00  0.00    +0.132 C 
BRANCH   6  25
ATOM     25  C   UNL     1      -3.751   4.138  26.392  0.00  0.00    +0.122 C 
BRANCH  25  27
ATOM     27  C   UNL     1      -2.291   3.703  26.465  0.00  0.00    +0.137 C 
BRANCH  27  29
ATOM      7  N   UNL     1      -0.771   5.093  24.830  0.00  0.00    -0.197 NA
ATOM     29  C   UNL     1      -1.442   4.480  25.552  0.00  0.00    +0.064 C 
ENDBRANCH  27  29
ENDBRANCH  25  27
ENDBRANCH   6  25
ENDBRANCH  19  22
ENDBRANCH  13  19
TORSDOF 9
ENDMDL
MODEL 2
REMARK VINA RESULT:       1.1      1.634      2.010
REMARK  Name = 45784407
REMARK  14 active torsions:
REMARK  status: ('A' for Active; 'I' for Inactive)
REMARK    1  A    between atoms: O_1  and  C_11
REMARK    2  A    between atoms: O_4  and  C_24
REMARK    3  A    between atoms: O_4  and  C_28
REMARK    4  A    between atoms: N_5  and  C_15
REMARK    5  A    between atoms: N_6  and  C_25
REMARK    6  A    between atoms: N_6  and  C_26
REMARK    7  A    between atoms: C_8  and  C_18
REMARK    8  A    between atoms: C_10  and  C_20
REMARK    9  A    between atoms: C_13  and  C_19
REMARK   10  A    between atoms: C_19  and  C_21
REMARK   11  A    between atoms: C_19  and  C_22
REMARK   12  A    between atoms: C_23  and  C_24
REMARK   13  A    between atoms: C_25  and  C_27
REMARK   14  A    between atoms: C_27  and  C_29
REMARK                            x       y       z     vdW  Elec       q    Type
REMARK                         _______ _______ _______ _____ _____    ______ ____
ROOT
ATOM      8  C   UNL     1      -1.514  -0.661  24.504  0.00  0.00    -0.027 C 
ATOM      9  C   UNL     1      -1.352   0.886  24.329  0.00  0.00    +0.028 C 
ATOM     10  C   UNL     1       0.156   1.308  24.455  0.00  0.00    +0.012 C 
ATOM     11  C   UNL     1      -2.342   1.664  25.243  0.00  0.00    +0.122 C 
ATOM     12  C   UNL     1      -2.990  -1.055  24.262  0.00  0.00    +0.007 C 
ATOM     13  C   UNL     1      -3.805   1.192  25.072  0.00  0.00    +0.029 C 
ATOM     14  C   UNL     1      -0.654  -1.382  23.440  0.00  0.00    +0.009 C 
ATOM     15  C   UNL     1       1.022   0.522  23.431  0.00  0.00    +0.076 C 
ATOM     16  C   UNL     1      -3.960  -0.325  25.182  0.00  0.00    +0.007 C 
ATOM     17  C   UNL     1       0.816  -0.991  23.496  0.00  0.00    +0.023 C 
ATOM     18  C   UNL     1      -1.094  -1.146  25.914  0.00  0.00    +0.011 C 
ATOM     20  C   UNL     1       0.392   2.815  24.264  0.00  0.00    +0.010 C 
ENDROOT
BRANCH  15   5
ATOM      3  O   UNL     1       3.116   0.162  21.469  0.00  0.00    -0.273 OA
ATOM      5  N   UNL     1       2.433   0.799  23.598  0.00  0.00    -0.310 N 
ATOM     23  C   UNL     1       3.362   0.592  22.593  0.00  0.00    +0.239 C 
ATOM     30  H   UNL     1       2.756   1.099  24.514  0.00  0.00    +0.149 HD
BRANCH  23  24
ATOM     24  C   UNL     1       4.759   0.967  23.038  0.00  0.00    +0.255 C 
BRANCH  24   4
ATOM      4  O   UNL     1       5.079   0.338  24.261  0.00  0.00    -0.374 OA
ATOM     28  C   UNL     1       5.312  -1.058  24.097  0.00  0.00    +0.194 C 
ENDBRANCH  24   4
ENDBRANCH  23  24
ENDBRANCH  15   5
BRANCH  11   1
ATOM      1  O   UNL     1      -2.318   3.050  24.902  0.00  0.00    -0.391 OA
ATOM     31  H   UNL     1      -2.127   3.125  23.951  0.00  0.00    +0.210 HD
ENDBRANCH  11   1
BRANCH  13  19
ATOM     19  C   UNL     1      -4.744   1.877  26.072  0.00  0.00    +0.078 C 
ATOM     21  C   UNL     1      -6.164   1.340  25.887  0.00  0.00    +0.017 C 
BRANCH  19  22
ATOM      2  O   UNL     1      -4.621   4.137  26.853  0.00  0.00    -0.275 OA
ATOM      6  N   UNL     1      -4.771   3.879  24.559  0.00  0.00    -0.303 N 
ATOM     22  C   UNL     1      -4.700   3.394  25.869  0.00  0.00    +0.219 C 
ATOM     26  C   UNL     1      -4.754   5.320  24.332  0.00  0.00    +0.132 C 
BRANCH   6  25
ATOM     25  C   UNL     1      -4.830   3.071  23.342  0.00  0.00    +0.122 C 
BRANCH  25  27
ATOM     27  C   UNL     1      -3.898   3.589  22.253  0.00  0.00    +0.137 C 
BRANCH  27  29
ATOM      7  N   UNL     1      -2.296   1.707  21.355  0.00  0.00    -0.197 NA
ATOM     29  C   UNL     1      -3.004   2.537  21.751  0.00  0.00    +0.064 C 
ENDBRANCH  27  29
ENDBRANCH  25  27
ENDBRANCH   6  25
ENDBRANCH  19  22
ENDBRANCH  13  19
TORSDOF 9
ENDMDL
