MODEL 1
REMARK VINA RESULT:      -3.7      0.000      0.000
REMARK  Name = 45784013
REMARK  5 active torsions:
REMARK  status: ('A' for Active; 'I' for Inactive)
REMARK    1  A    between atoms: N_5  and  C_14
REMARK    2  A    between atoms: C_6  and  C_10
REMARK    3  A    between atoms: C_14  and  C_19
REMARK    4  A    between atoms: C_14  and  C_20
REMARK    5  A    between atoms: C_17  and  C_21
REMARK                            x       y       z     vdW  Elec       q    Type
REMARK                         _______ _______ _______ _____ _____    ______ ____
ROOT
ATOM      1  O   UNL     1      17.279  -2.782  26.147  0.00  0.00    -0.253 OA
ATOM      2  N   UNL     1      16.756  -5.007  26.451  0.00  0.00    -0.285 N 
ATOM      5  N   UNL     1      16.067  -3.877  24.519  0.00  0.00    -0.297 N 
ATOM      6  C   UNL     1      16.898  -6.437  28.345  0.00  0.00    +0.074 C 
ATOM      7  C   UNL     1      16.659  -7.281  27.086  0.00  0.00    +0.032 C 
ATOM      8  C   UNL     1      17.405  -5.117  27.752  0.00  0.00    +0.120 C 
ATOM      9  C   UNL     1      16.154  -6.278  26.056  0.00  0.00    +0.110 C 
ATOM     11  C   UNL     1      16.741  -3.812  25.734  0.00  0.00    +0.302 C 
ATOM     23  H   UNL     1      15.557  -4.719  24.274  0.00  0.00    +0.150 HD
ENDROOT
BRANCH   6  10
ATOM      3  N   UNL     1      14.767  -7.399  29.277  0.00  0.00    -0.342 N 
ATOM      4  N   UNL     1      15.281  -5.350  29.965  0.00  0.00    -0.232 NA
ATOM     10  C   UNL     1      15.652  -6.360  29.211  0.00  0.00    +0.113 A 
ATOM     12  C   UNL     1      13.757  -7.036  30.129  0.00  0.00    +0.066 A 
ATOM     13  C   UNL     1      14.100  -5.753  30.546  0.00  0.00    +0.089 A 
ATOM     15  C   UNL     1      12.607  -7.699  30.559  0.00  0.00    +0.031 A 
ATOM     16  C   UNL     1      13.259  -5.076  31.445  0.00  0.00    +0.030 A 
ATOM     17  C   UNL     1      11.780  -7.011  31.454  0.00  0.00    -0.048 A 
ATOM     18  C   UNL     1      12.098  -5.723  31.890  0.00  0.00    +0.005 A 
ATOM     21  C   UNL     1      10.535  -7.669  31.952  0.00  0.00    +0.044 C 
ATOM     22  H   UNL     1      14.841  -8.279  28.783  0.00  0.00    +0.167 HD
ENDBRANCH   6  10
BRANCH   5  14
ATOM     14  C   UNL     1      15.944  -2.738  23.640  0.00  0.00    +0.068 C 
ATOM     19  C   UNL     1      14.754  -2.914  22.708  0.00  0.00    +0.027 C 
ATOM     20  C   UNL     1      17.233  -2.525  22.855  0.00  0.00    +0.027 C 
ENDBRANCH   5  14
TORSDOF 2
ENDMDL
MODEL 2
REMARK VINA RESULT:      -0.5     15.815     17.831
REMARK  Name = 45784013
REMARK  5 active torsions:
REMARK  status: ('A' for Active; 'I' for Inactive)
REMARK    1  A    between atoms: N_5  and  C_14
REMARK    2  A    between atoms: C_6  and  C_10
REMARK    3  A    between atoms: C_14  and  C_19
REMARK    4  A    between atoms: C_14  and  C_20
REMARK    5  A    between atoms: C_17  and  C_21
REMARK                            x       y       z     vdW  Elec       q    Type
REMARK                         _______ _______ _______ _____ _____    ______ ____
ROOT
ATOM      1  O   UNL     1      -3.536   1.846  23.145  0.00  0.00    -0.253 OA
ATOM      2  N   UNL     1      -2.266   0.463  24.484  0.00  0.00    -0.285 N 
ATOM      5  N   UNL     1      -3.271   2.381  25.373  0.00  0.00    -0.297 N 
ATOM      6  C   UNL     1      -0.785  -1.328  23.979  0.00  0.00    +0.074 C 
ATOM      7  C   UNL     1      -1.096  -1.331  25.483  0.00  0.00    +0.032 C 
ATOM      8  C   UNL     1      -1.931  -0.476  23.419  0.00  0.00    +0.120 C 
ATOM      9  C   UNL     1      -1.656   0.061  25.749  0.00  0.00    +0.110 C 
ATOM     11  C   UNL     1      -3.061   1.584  24.254  0.00  0.00    +0.302 C 
ATOM     23  H   UNL     1      -2.776   2.177  26.234  0.00  0.00    +0.150 HD
ENDROOT
BRANCH   6  10
ATOM      3  N   UNL     1       1.718  -1.584  24.046  0.00  0.00    -0.342 N 
ATOM      4  N   UNL     1       0.966   0.295  23.129  0.00  0.00    -0.232 NA
ATOM     10  C   UNL     1       0.626  -0.838  23.702  0.00  0.00    +0.113 A 
ATOM     12  C   UNL     1       2.837  -0.887  23.672  0.00  0.00    +0.066 A 
ATOM     13  C   UNL     1       2.342   0.282  23.102  0.00  0.00    +0.089 A 
ATOM     15  C   UNL     1       4.199  -1.170  23.779  0.00  0.00    +0.031 A 
ATOM     16  C   UNL     1       3.243   1.238  22.604  0.00  0.00    +0.030 A 
ATOM     17  C   UNL     1       5.084  -0.208  23.278  0.00  0.00    -0.048 A 
ATOM     18  C   UNL     1       4.616   0.976  22.701  0.00  0.00    +0.005 A 
ATOM     21  C   UNL     1       6.555  -0.452  23.363  0.00  0.00    +0.044 C 
ATOM     22  H   UNL     1       1.705  -2.489  24.498  0.00  0.00    +0.167 HD
ENDBRANCH   6  10
BRANCH   5  14
ATOM     14  C   UNL     1      -4.067   3.586  25.326  0.00  0.00    +0.068 C 
ATOM     19  C   UNL     1      -3.470   4.650  26.237  0.00  0.00    +0.027 C 
ATOM     20  C   UNL     1      -5.513   3.287  25.701  0.00  0.00    +0.027 C 
ENDBRANCH   5  14
TORSDOF 2
ENDMDL
MODEL 3
REMARK VINA RESULT:      -0.1      2.195      2.989
REMARK  Name = 45784013
REMARK  5 active torsions:
REMARK  status: ('A' for Active; 'I' for Inactive)
REMARK    1  A    between atoms: N_5  and  C_14
REMARK    2  A    between atoms: C_6  and  C_10
REMARK    3  A    between atoms: C_14  and  C_19
REMARK    4  A    between atoms: C_14  and  C_20
REMARK    5  A    between atoms: C_17  and  C_21
REMARK                            x       y       z     vdW  Elec       q    Type
REMARK                         _______ _______ _______ _____ _____    ______ ____
ROOT
ATOM      1  O   UNL     1      15.870  -1.421  27.276  0.00  0.00    -0.253 OA
ATOM      2  N   UNL     1      16.645  -2.745  28.999  0.00  0.00    -0.285 N 
ATOM      5  N   UNL     1      17.244  -3.206  26.783  0.00  0.00    -0.297 N 
ATOM      6  C   UNL     1      16.034  -2.903  31.291  0.00  0.00    +0.074 C 
ATOM      7  C   UNL     1      17.354  -3.653  31.062  0.00  0.00    +0.032 C 
ATOM      8  C   UNL     1      15.960  -2.004  30.051  0.00  0.00    +0.120 C 
ATOM      9  C   UNL     1      17.405  -3.862  29.553  0.00  0.00    +0.110 C 
ATOM     11  C   UNL     1      16.539  -2.386  27.656  0.00  0.00    +0.302 C 
ATOM     23  H   UNL     1      17.694  -4.044  27.135  0.00  0.00    +0.150 HD
ENDROOT
BRANCH   6  10
ATOM      3  N   UNL     1      14.823  -5.067  30.863  0.00  0.00    -0.342 N 
ATOM      4  N   UNL     1      13.837  -3.678  32.289  0.00  0.00    -0.232 NA
ATOM     10  C   UNL     1      14.876  -3.863  31.506  0.00  0.00    +0.113 A 
ATOM     12  C   UNL     1      13.673  -5.702  31.256  0.00  0.00    +0.066 A 
ATOM     13  C   UNL     1      13.075  -4.815  32.146  0.00  0.00    +0.089 A 
ATOM     15  C   UNL     1      13.122  -6.939  30.919  0.00  0.00    +0.031 A 
ATOM     16  C   UNL     1      11.854  -5.165  32.746  0.00  0.00    +0.030 A 
ATOM     17  C   UNL     1      11.906  -7.272  31.526  0.00  0.00    -0.048 A 
ATOM     18  C   UNL     1      11.281  -6.403  32.424  0.00  0.00    +0.005 A 
ATOM     21  C   UNL     1      11.265  -8.583  31.208  0.00  0.00    +0.044 C 
ATOM     22  H   UNL     1      15.507  -5.428  30.210  0.00  0.00    +0.167 HD
ENDBRANCH   6  10
BRANCH   5  14
ATOM     14  C   UNL     1      17.250  -2.992  25.354  0.00  0.00    +0.068 C 
ATOM     19  C   UNL     1      17.173  -1.504  25.042  0.00  0.00    +0.027 C 
ATOM     20  C   UNL     1      16.108  -3.754  24.694  0.00  0.00    +0.027 C 
ENDBRANCH   5  14
TORSDOF 2
ENDMDL
