MODEL 1
REMARK VINA RESULT:       0.7      0.000      0.000
REMARK  Name = 45361456
REMARK  10 active torsions:
REMARK  status: ('A' for Active; 'I' for Inactive)
REMARK    1  A    between atoms: O_1  and  C_10
REMARK    2  A    between atoms: N_5  and  C_14
REMARK    3  A    between atoms: N_6  and  C_29
REMARK    4  A    between atoms: C_7  and  C_17
REMARK    5  A    between atoms: C_9  and  C_19
REMARK    6  A    between atoms: C_13  and  C_18
REMARK    7  A    between atoms: C_18  and  C_20
REMARK    8  A    between atoms: C_18  and  C_21
REMARK    9  A    between atoms: C_22  and  C_23
REMARK   10  A    between atoms: C_29  and  C_30
REMARK                            x       y       z     vdW  Elec       q    Type
REMARK                         _______ _______ _______ _____ _____    ______ ____
ROOT
ATOM      7  C   UNL     1      -2.078  -0.859  25.277  0.00  0.00    -0.027 C 
ATOM      8  C   UNL     1      -2.337   0.058  24.036  0.00  0.00    +0.028 C 
ATOM      9  C   UNL     1      -0.981   0.518  23.388  0.00  0.00    +0.012 C 
ATOM     10  C   UNL     1      -3.336   1.201  24.377  0.00  0.00    +0.122 C 
ATOM     11  C   UNL     1      -3.427  -1.384  25.820  0.00  0.00    +0.007 C 
ATOM     12  C   UNL     1      -1.241  -2.081  24.835  0.00  0.00    +0.009 C 
ATOM     13  C   UNL     1      -4.643   0.677  25.017  0.00  0.00    +0.029 C 
ATOM     14  C   UNL     1      -0.116  -0.718  23.016  0.00  0.00    +0.076 C 
ATOM     15  C   UNL     1      -4.394  -0.268  26.192  0.00  0.00    +0.007 C 
ATOM     16  C   UNL     1       0.075  -1.697  24.175  0.00  0.00    +0.023 C 
ATOM     17  C   UNL     1      -1.336  -0.118  26.419  0.00  0.00    +0.011 C 
ATOM     19  C   UNL     1      -1.163   1.402  22.143  0.00  0.00    +0.010 C 
ENDROOT
BRANCH  14   5
ATOM      3  O   UNL     1       1.706   1.219  24.183  0.00  0.00    -0.276 OA
ATOM      5  N   UNL     1       1.189  -0.330  22.524  0.00  0.00    -0.312 N 
ATOM     22  C   UNL     1       1.986   0.608  23.154  0.00  0.00    +0.216 C 
ATOM     34  H   UNL     1       1.500  -0.737  21.646  0.00  0.00    +0.149 HD
BRANCH  22  23
ATOM     23  C   UNL     1       3.297   0.804  22.449  0.00  0.00    +0.075 C 
ATOM     24  C   UNL     1       4.258   1.639  23.298  0.00  0.00    +0.013 C 
ATOM     25  C   UNL     1       3.885  -0.549  22.045  0.00  0.00    +0.013 C 
ATOM     26  C   UNL     1       4.888   0.856  24.449  0.00  0.00    +0.001 C 
ATOM     27  C   UNL     1       4.501  -1.308  23.220  0.00  0.00    +0.001 C 
ATOM     28  C   UNL     1       5.511  -0.452  23.976  0.00  0.00    +0.000 C 
ENDBRANCH  22  23
ENDBRANCH  14   5
BRANCH  10   1
ATOM      1  O   UNL     1      -3.713   1.880  23.178  0.00  0.00    -0.391 OA
ATOM     35  H   UNL     1      -4.683   1.940  23.157  0.00  0.00    +0.210 HD
ENDBRANCH  10   1
BRANCH  13  18
ATOM     18  C   UNL     1      -5.557   1.823  25.466  0.00  0.00    +0.077 C 
ATOM     20  C   UNL     1      -6.818   1.857  24.608  0.00  0.00    +0.017 C 
BRANCH  18  21
ATOM      2  O   UNL     1      -4.921   3.931  24.457  0.00  0.00    -0.276 OA
ATOM      6  N   UNL     1      -3.986   3.351  26.498  0.00  0.00    -0.308 N 
ATOM     21  C   UNL     1      -4.803   3.147  25.397  0.00  0.00    +0.217 C 
ATOM     36  H   UNL     1      -3.927   2.635  27.216  0.00  0.00    +0.149 HD
BRANCH   6  29
ATOM     29  C   UNL     1      -3.170   4.532  26.658  0.00  0.00    +0.178 C 
BRANCH  29  30
ATOM      4  O   UNL     1      -1.209   3.344  25.853  0.00  0.00    -0.466 OA
ATOM     30  C   UNL     1      -1.940   4.488  25.798  0.00  0.00    +0.122 A 
ATOM     31  C   UNL     1      -1.366   5.388  24.930  0.00  0.00    +0.046 A 
ATOM     32  C   UNL     1      -0.207   4.755  24.419  0.00  0.00    +0.041 A 
ATOM     33  C   UNL     1      -0.156   3.514  25.010  0.00  0.00    +0.195 A 
ENDBRANCH  29  30
ENDBRANCH   6  29
ENDBRANCH  18  21
ENDBRANCH  13  18
TORSDOF 7
ENDMDL
MODEL 2
REMARK VINA RESULT:       4.6      1.714      4.021
REMARK  Name = 45361456
REMARK  10 active torsions:
REMARK  status: ('A' for Active; 'I' for Inactive)
REMARK    1  A    between atoms: O_1  and  C_10
REMARK    2  A    between atoms: N_5  and  C_14
REMARK    3  A    between atoms: N_6  and  C_29
REMARK    4  A    between atoms: C_7  and  C_17
REMARK    5  A    between atoms: C_9  and  C_19
REMARK    6  A    between atoms: C_13  and  C_18
REMARK    7  A    between atoms: C_18  and  C_20
REMARK    8  A    between atoms: C_18  and  C_21
REMARK    9  A    between atoms: C_22  and  C_23
REMARK   10  A    between atoms: C_29  and  C_30
REMARK                            x       y       z     vdW  Elec       q    Type
REMARK                         _______ _______ _______ _____ _____    ______ ____
ROOT
ATOM      7  C   UNL     1      -1.258   3.677  25.779  0.00  0.00    -0.027 C 
ATOM      8  C   UNL     1      -1.719   2.379  25.035  0.00  0.00    +0.028 C 
ATOM      9  C   UNL     1      -0.622   1.901  24.016  0.00  0.00    +0.012 C 
ATOM     10  C   UNL     1      -3.151   2.542  24.449  0.00  0.00    +0.122 C 
ATOM     11  C   UNL     1      -2.306   4.055  26.851  0.00  0.00    +0.007 C 
ATOM     12  C   UNL     1       0.078   3.396  26.504  0.00  0.00    +0.009 C 
ATOM     13  C   UNL     1      -4.174   3.021  25.505  0.00  0.00    +0.029 C 
ATOM     14  C   UNL     1       0.736   1.693  24.743  0.00  0.00    +0.076 C 
ATOM     15  C   UNL     1      -3.701   4.254  26.276  0.00  0.00    +0.007 C 
ATOM     16  C   UNL     1       1.173   2.903  25.569  0.00  0.00    +0.023 C 
ATOM     17  C   UNL     1      -1.074   4.879  24.818  0.00  0.00    +0.011 C 
ATOM     19  C   UNL     1      -0.999   0.610  23.268  0.00  0.00    +0.010 C 
ENDROOT
BRANCH  14   5
ATOM      3  O   UNL     1       1.364  -0.916  23.636  0.00  0.00    -0.276 OA
ATOM      5  N   UNL     1       1.796   1.365  23.814  0.00  0.00    -0.312 N 
ATOM     22  C   UNL     1       2.016   0.084  23.342  0.00  0.00    +0.216 C 
ATOM     34  H   UNL     1       2.431   2.110  23.543  0.00  0.00    +0.149 HD
BRANCH  22  23
ATOM     23  C   UNL     1       3.162   0.026  22.374  0.00  0.00    +0.075 C 
ATOM     24  C   UNL     1       4.099   1.221  22.560  0.00  0.00    +0.013 C 
ATOM     25  C   UNL     1       3.884  -1.318  22.493  0.00  0.00    +0.013 C 
ATOM     26  C   UNL     1       5.005   1.098  23.785  0.00  0.00    +0.001 C 
ATOM     27  C   UNL     1       4.776  -1.410  23.730  0.00  0.00    +0.001 C 
ATOM     28  C   UNL     1       5.743  -0.235  23.816  0.00  0.00    +0.000 C 
ENDBRANCH  22  23
ENDBRANCH  14   5
BRANCH  10   1
ATOM      1  O   UNL     1      -3.618   1.280  23.972  0.00  0.00    -0.391 OA
ATOM     35  H   UNL     1      -4.134   1.435  23.163  0.00  0.00    +0.210 HD
ENDBRANCH  10   1
BRANCH  13  18
ATOM     18  C   UNL     1      -5.546   3.302  24.881  0.00  0.00    +0.077 C 
ATOM     20  C   UNL     1      -6.369   4.197  25.802  0.00  0.00    +0.017 C 
BRANCH  18  21
ATOM      2  O   UNL     1      -7.467   1.931  24.338  0.00  0.00    -0.276 OA
ATOM      6  N   UNL     1      -5.419   0.893  24.663  0.00  0.00    -0.308 N 
ATOM     21  C   UNL     1      -6.267   1.989  24.595  0.00  0.00    +0.217 C 
ATOM     36  H   UNL     1      -4.444   1.029  24.912  0.00  0.00    +0.149 HD
BRANCH   6  29
ATOM     29  C   UNL     1      -5.871  -0.460  24.432  0.00  0.00    +0.178 C 
BRANCH  29  30
ATOM      4  O   UNL     1      -3.795  -1.275  25.400  0.00  0.00    -0.466 OA
ATOM     30  C   UNL     1      -4.734  -1.440  24.431  0.00  0.00    +0.122 A 
ATOM     31  C   UNL     1      -4.420  -2.515  23.632  0.00  0.00    +0.046 A 
ATOM     32  C   UNL     1      -3.210  -3.044  24.144  0.00  0.00    +0.041 A 
ATOM     33  C   UNL     1      -2.872  -2.254  25.218  0.00  0.00    +0.195 A 
ENDBRANCH  29  30
ENDBRANCH   6  29
ENDBRANCH  18  21
ENDBRANCH  13  18
TORSDOF 7
ENDMDL
