MODEL 1
REMARK VINA RESULT:       2.1      0.000      0.000
REMARK  Name = 7155405
REMARK  7 active torsions:
REMARK  status: ('A' for Active; 'I' for Inactive)
REMARK    1  A    between atoms: S_1  and  C_28
REMARK    2  A    between atoms: S_1  and  C_30
REMARK    3  A    between atoms: O_4  and  C_29
REMARK    4  A    between atoms: N_5  and  C_14
REMARK    5  A    between atoms: C_14  and  C_19
REMARK    6  A    between atoms: C_15  and  C_20
REMARK    7  A    between atoms: C_24  and  C_29
REMARK                            x       y       z     vdW  Elec       q    Type
REMARK                         _______ _______ _______ _____ _____    ______ ____
ROOT
ATOM      2  O   UNL     1      -3.603   4.551  27.501  0.00  0.00    -0.268 OA
ATOM      5  N   UNL     1      -4.487   0.737  24.414  0.00  0.00    -0.294 NA
ATOM      6  N   UNL     1      -3.155   3.413  25.503  0.00  0.00    -0.311 N 
ATOM      7  C   UNL     1      -4.955   3.089  23.703  0.00  0.00    +0.024 C 
ATOM      8  C   UNL     1      -2.715   2.162  23.370  0.00  0.00    +0.051 C 
ATOM      9  C   UNL     1      -3.776   3.065  22.745  0.00  0.00    +0.017 C 
ATOM     10  C   UNL     1      -5.507   1.664  23.911  0.00  0.00    +0.090 C 
ATOM     11  C   UNL     1      -3.296   0.739  23.553  0.00  0.00    +0.094 C 
ATOM     12  C   UNL     1      -4.503   3.738  25.013  0.00  0.00    +0.130 C 
ATOM     13  C   UNL     1      -2.220   2.725  24.705  0.00  0.00    +0.034 A 
ATOM     15  C   UNL     1      -0.943   2.569  25.141  0.00  0.00    +0.002 A 
ATOM     16  C   UNL     1      -2.830   3.930  26.770  0.00  0.00    +0.252 A 
ATOM     17  C   UNL     1      -0.572   3.085  26.444  0.00  0.00    +0.015 A 
ATOM     18  C   UNL     1      -1.441   3.716  27.234  0.00  0.00    +0.071 A 
ENDROOT
BRANCH  15  20
ATOM     20  C   UNL     1       0.077   1.872  24.328  0.00  0.00    -0.016 A 
ATOM     22  C   UNL     1       1.283   2.505  24.043  0.00  0.00    +0.009 A 
ATOM     23  C   UNL     1      -0.176   0.589  23.853  0.00  0.00    +0.009 A 
ATOM     26  C   UNL     1       2.245   1.848  23.276  0.00  0.00    +0.015 A 
ATOM     27  C   UNL     1       0.786  -0.068  23.087  0.00  0.00    +0.015 A 
ATOM     28  C   UNL     1       1.996   0.562  22.797  0.00  0.00    +0.008 A 
BRANCH  28   1
ATOM      1  S   UNL     1       3.226  -0.278  21.818  0.00  0.00    -0.129 S 
ATOM     30  C   UNL     1       4.749   0.102  22.730  0.00  0.00    +0.090 C 
ENDBRANCH  28   1
ENDBRANCH  15  20
BRANCH   5  14
ATOM     14  C   UNL     1      -5.029  -0.612  24.553  0.00  0.00    +0.158 C 
BRANCH  14  19
ATOM      3  O   UNL     1      -2.811  -1.340  25.121  0.00  0.00    -0.461 OA
ATOM     19  C   UNL     1      -3.955  -1.659  24.489  0.00  0.00    +0.119 A 
ATOM     21  C   UNL     1      -3.911  -2.881  23.908  0.00  0.00    +0.046 A 
ATOM     24  C   UNL     1      -1.990  -2.408  24.940  0.00  0.00    +0.131 A 
ATOM     25  C   UNL     1      -2.620  -3.383  24.201  0.00  0.00    +0.047 A 
BRANCH  24  29
ATOM     29  C   UNL     1      -0.654  -2.311  25.544  0.00  0.00    +0.230 C 
BRANCH  29   4
ATOM      4  O   UNL     1      -0.621  -1.138  26.361  0.00  0.00    -0.387 OA
ATOM     31  H   UNL     1      -1.508  -1.026  26.746  0.00  0.00    +0.210 HD
ENDBRANCH  29   4
ENDBRANCH  24  29
ENDBRANCH  14  19
ENDBRANCH   5  14
TORSDOF 6
ENDMDL
