MODEL 1
REMARK VINA RESULT:       3.4      0.000      0.000
REMARK  Name = 11912989
REMARK  6 active torsions:
REMARK  status: ('A' for Active; 'I' for Inactive)
REMARK    1  A    between atoms: N_4  and  C_10
REMARK    2  A    between atoms: N_4  and  C_14
REMARK    3  A    between atoms: N_5  and  C_11
REMARK    4  A    between atoms: C_14  and  C_16
REMARK    5  A    between atoms: C_19  and  C_25
REMARK    6  A    between atoms: C_23  and  C_26
REMARK                            x       y       z     vdW  Elec       q    Type
REMARK                         _______ _______ _______ _____ _____    ______ ____
ROOT
ATOM      1  O   UNL     1      -1.461   3.057  26.754  0.00  0.00    -0.370 OA
ATOM      2  O   UNL     1      -0.892   4.421  24.000  0.00  0.00    -0.370 OA
ATOM      8  C   UNL     1      -2.084   3.913  24.623  0.00  0.00    +0.168 C 
ATOM      9  C   UNL     1      -1.695   2.666  25.390  0.00  0.00    +0.171 C 
ATOM     10  C   UNL     1      -2.564   4.868  25.689  0.00  0.00    +0.111 C 
ATOM     11  C   UNL     1      -0.404   2.220  24.744  0.00  0.00    +0.130 C 
ATOM     12  C   UNL     1      -1.751   4.455  26.899  0.00  0.00    +0.181 C 
ATOM     13  C   UNL     1       0.198   3.530  24.271  0.00  0.00    +0.185 C 
ENDROOT
BRANCH  11   5
ATOM      5  N   UNL     1      -0.686   1.362  23.615  0.00  0.00    -0.306 N 
ATOM      6  N   UNL     1       1.560   0.720  23.399  0.00  0.00    -0.211 NA
ATOM      7  N   UNL     1      -0.123  -0.145  21.907  0.00  0.00    -0.223 NA
ATOM     15  C   UNL     1       0.279   0.623  22.954  0.00  0.00    +0.216 A 
ATOM     19  C   UNL     1       2.475  -0.014  22.733  0.00  0.00    +0.111 A 
ATOM     22  C   UNL     1       0.844  -0.853  21.286  0.00  0.00    +0.116 A 
ATOM     24  C   UNL     1       2.172  -0.826  21.659  0.00  0.00    +0.051 A 
ATOM     36  H   UNL     1      -1.646   1.242  23.308  0.00  0.00    +0.149 HD
BRANCH  19  25
ATOM      3  O   UNL     1       4.314  -0.996  23.842  0.00  0.00    -0.461 OA
ATOM     25  C   UNL     1       3.820   0.108  23.226  0.00  0.00    +0.153 A 
ATOM     27  C   UNL     1       4.751   1.119  23.220  0.00  0.00    +0.051 A 
ATOM     30  C   UNL     1       5.894   0.603  23.874  0.00  0.00    +0.042 A 
ATOM     31  C   UNL     1       5.579  -0.686  24.234  0.00  0.00    +0.196 A 
ENDBRANCH  19  25
ENDBRANCH  11   5
BRANCH  10   4
ATOM      4  N   UNL     1      -4.005   4.636  25.955  0.00  0.00    -0.305 NA
ATOM     35  H   UNL     1      -4.432   5.520  26.230  0.00  0.00    +0.123 HD
BRANCH   4  14
ATOM     14  C   UNL     1      -4.671   4.120  24.768  0.00  0.00    +0.116 C 
BRANCH  14  16
ATOM     16  C   UNL     1      -4.427   2.646  24.584  0.00  0.00    -0.034 A 
ATOM     17  C   UNL     1      -4.771   1.765  25.599  0.00  0.00    +0.005 A 
ATOM     18  C   UNL     1      -3.861   2.190  23.402  0.00  0.00    +0.005 A 
ATOM     20  C   UNL     1      -4.544   0.399  25.429  0.00  0.00    +0.009 A 
ATOM     21  C   UNL     1      -3.634   0.825  23.231  0.00  0.00    +0.009 A 
ATOM     23  C   UNL     1      -3.976  -0.071  24.245  0.00  0.00    -0.018 A 
BRANCH  23  26
ATOM     26  C   UNL     1      -3.741  -1.488  24.068  0.00  0.00    -0.018 A 
ATOM     28  C   UNL     1      -4.752  -2.304  23.561  0.00  0.00    +0.008 A 
ATOM     29  C   UNL     1      -2.504  -2.038  24.404  0.00  0.00    +0.008 A 
ATOM     32  C   UNL     1      -4.525  -3.670  23.390  0.00  0.00    +0.001 A 
ATOM     33  C   UNL     1      -2.277  -3.404  24.233  0.00  0.00    +0.001 A 
ATOM     34  C   UNL     1      -3.289  -4.220  23.725  0.00  0.00    +0.000 A 
ENDBRANCH  23  26
ENDBRANCH  14  16
ENDBRANCH   4  14
ENDBRANCH  10   4
TORSDOF 6
ENDMDL
MODEL 2
REMARK VINA RESULT:       3.8      1.551      2.199
REMARK  Name = 11912989
REMARK  6 active torsions:
REMARK  status: ('A' for Active; 'I' for Inactive)
REMARK    1  A    between atoms: N_4  and  C_10
REMARK    2  A    between atoms: N_4  and  C_14
REMARK    3  A    between atoms: N_5  and  C_11
REMARK    4  A    between atoms: C_14  and  C_16
REMARK    5  A    between atoms: C_19  and  C_25
REMARK    6  A    between atoms: C_23  and  C_26
REMARK                            x       y       z     vdW  Elec       q    Type
REMARK                         _______ _______ _______ _____ _____    ______ ____
ROOT
ATOM      1  O   UNL     1      -1.491   5.102  26.191  0.00  0.00    -0.370 OA
ATOM      2  O   UNL     1      -0.625   3.359  23.746  0.00  0.00    -0.370 OA
ATOM      8  C   UNL     1      -1.902   3.746  24.280  0.00  0.00    +0.168 C 
ATOM      9  C   UNL     1      -1.777   3.752  25.790  0.00  0.00    +0.171 C 
ATOM     10  C   UNL     1      -2.201   5.184  23.928  0.00  0.00    +0.111 C 
ATOM     11  C   UNL     1      -0.589   2.859  26.067  0.00  0.00    +0.130 C 
ATOM     12  C   UNL     1      -1.502   5.950  25.033  0.00  0.00    +0.181 C 
ATOM     13  C   UNL     1       0.266   3.052  24.828  0.00  0.00    +0.185 C 
ENDROOT
BRANCH  11   5
ATOM      5  N   UNL     1      -1.018   1.483  26.170  0.00  0.00    -0.306 N 
ATOM      6  N   UNL     1       0.532   0.762  24.563  0.00  0.00    -0.211 NA
ATOM      7  N   UNL     1      -0.964  -0.799  25.628  0.00  0.00    -0.223 NA
ATOM     15  C   UNL     1      -0.467   0.451  25.431  0.00  0.00    +0.216 A 
ATOM     19  C   UNL     1       1.047  -0.268  23.861  0.00  0.00    +0.111 A 
ATOM     22  C   UNL     1      -0.402  -1.782  24.892  0.00  0.00    +0.116 A 
ATOM     24  C   UNL     1       0.616  -1.573  23.984  0.00  0.00    +0.051 A 
ATOM     36  H   UNL     1      -1.726   1.231  26.852  0.00  0.00    +0.149 HD
BRANCH  19  25
ATOM      3  O   UNL     1       3.046   0.925  23.458  0.00  0.00    -0.461 OA
ATOM     25  C   UNL     1       2.101   0.092  22.951  0.00  0.00    +0.153 A 
ATOM     27  C   UNL     1       2.382  -0.223  21.643  0.00  0.00    +0.051 A 
ATOM     30  C   UNL     1       3.578   0.462  21.324  0.00  0.00    +0.042 A 
ATOM     31  C   UNL     1       3.942   1.145  22.459  0.00  0.00    +0.196 A 
ENDBRANCH  19  25
ENDBRANCH  11   5
BRANCH  10   4
ATOM      4  N   UNL     1      -3.663   5.422  24.005  0.00  0.00    -0.305 NA
ATOM     35  H   UNL     1      -3.846   6.400  23.778  0.00  0.00    +0.123 HD
BRANCH   4  14
ATOM     14  C   UNL     1      -4.375   4.563  23.071  0.00  0.00    +0.116 C 
BRANCH  14  16
ATOM     16  C   UNL     1      -4.245   3.108  23.435  0.00  0.00    -0.034 A 
ATOM     17  C   UNL     1      -3.441   2.281  22.664  0.00  0.00    +0.005 A 
ATOM     18  C   UNL     1      -4.930   2.616  24.537  0.00  0.00    +0.005 A 
ATOM     20  C   UNL     1      -3.321   0.932  23.001  0.00  0.00    +0.009 A 
ATOM     21  C   UNL     1      -4.810   1.268  24.874  0.00  0.00    +0.009 A 
ATOM     23  C   UNL     1      -4.005   0.426  24.106  0.00  0.00    -0.018 A 
BRANCH  23  26
ATOM     26  C   UNL     1      -3.880  -0.972  24.457  0.00  0.00    -0.018 A 
ATOM     28  C   UNL     1      -4.048  -1.953  23.481  0.00  0.00    +0.008 A 
ATOM     29  C   UNL     1      -3.592  -1.338  25.772  0.00  0.00    +0.008 A 
ATOM     32  C   UNL     1      -3.927  -3.301  23.819  0.00  0.00    +0.001 A 
ATOM     33  C   UNL     1      -3.471  -2.687  26.110  0.00  0.00    +0.001 A 
ATOM     34  C   UNL     1      -3.638  -3.668  25.133  0.00  0.00    +0.000 A 
ENDBRANCH  23  26
ENDBRANCH  14  16
ENDBRANCH   4  14
ENDBRANCH  10   4
TORSDOF 6
ENDMDL
MODEL 3
REMARK VINA RESULT:       4.8      2.349      8.052
REMARK  Name = 11912989
REMARK  6 active torsions:
REMARK  status: ('A' for Active; 'I' for Inactive)
REMARK    1  A    between atoms: N_4  and  C_10
REMARK    2  A    between atoms: N_4  and  C_14
REMARK    3  A    between atoms: N_5  and  C_11
REMARK    4  A    between atoms: C_14  and  C_16
REMARK    5  A    between atoms: C_19  and  C_25
REMARK    6  A    between atoms: C_23  and  C_26
REMARK                            x       y       z     vdW  Elec       q    Type
REMARK                         _______ _______ _______ _____ _____    ______ ____
ROOT
ATOM      1  O   UNL     1      -1.248  -1.052  26.514  0.00  0.00    -0.370 OA
ATOM      2  O   UNL     1      -2.674  -2.209  23.985  0.00  0.00    -0.370 OA
ATOM      8  C   UNL     1      -1.985  -0.976  24.253  0.00  0.00    +0.168 C 
ATOM      9  C   UNL     1      -2.315  -0.576  25.677  0.00  0.00    +0.171 C 
ATOM     10  C   UNL     1      -0.493  -1.204  24.269  0.00  0.00    +0.111 C 
ATOM     11  C   UNL     1      -3.595  -1.319  25.983  0.00  0.00    +0.130 C 
ATOM     12  C   UNL     1      -0.240  -1.659  25.693  0.00  0.00    +0.181 C 
ATOM     13  C   UNL     1      -3.469  -2.564  25.125  0.00  0.00    +0.185 C 
ENDROOT
BRANCH  11   5
ATOM      5  N   UNL     1      -4.735  -0.535  25.566  0.00  0.00    -0.306 N 
ATOM      6  N   UNL     1      -3.450   1.412  25.326  0.00  0.00    -0.211 NA
ATOM      7  N   UNL     1      -5.814   1.426  24.863  0.00  0.00    -0.223 NA
ATOM     15  C   UNL     1      -4.664   0.808  25.242  0.00  0.00    +0.216 A 
ATOM     19  C   UNL     1      -3.416   2.722  25.001  0.00  0.00    +0.111 A 
ATOM     22  C   UNL     1      -5.708   2.736  24.553  0.00  0.00    +0.116 A 
ATOM     24  C   UNL     1      -4.524   3.442  24.605  0.00  0.00    +0.051 A 
ATOM     36  H   UNL     1      -5.636  -0.988  25.449  0.00  0.00    +0.149 HD
BRANCH  19  25
ATOM      3  O   UNL     1      -1.093   2.481  25.355  0.00  0.00    -0.461 OA
ATOM     25  C   UNL     1      -2.118   3.333  25.100  0.00  0.00    +0.153 A 
ATOM     27  C   UNL     1      -1.662   4.625  24.994  0.00  0.00    +0.051 A 
ATOM     30  C   UNL     1      -0.263   4.563  25.195  0.00  0.00    +0.042 A 
ATOM     31  C   UNL     1       0.034   3.238  25.411  0.00  0.00    +0.196 A 
ENDBRANCH  19  25
ENDBRANCH  11   5
BRANCH  10   4
ATOM      4  N   UNL     1       0.210   0.079  24.025  0.00  0.00    -0.305 NA
ATOM     35  H   UNL     1       0.909   0.212  24.756  0.00  0.00    +0.123 HD
BRANCH   4  14
ATOM     14  C   UNL     1       0.861   0.071  22.724  0.00  0.00    +0.116 C 
BRANCH  14  16
ATOM     16  C   UNL     1       2.361   0.063  22.848  0.00  0.00    -0.034 A 
ATOM     17  C   UNL     1       3.080   1.201  22.509  0.00  0.00    +0.005 A 
ATOM     18  C   UNL     1       3.004  -1.081  23.298  0.00  0.00    +0.005 A 
ATOM     20  C   UNL     1       4.470   1.194  22.623  0.00  0.00    +0.009 A 
ATOM     21  C   UNL     1       4.393  -1.089  23.412  0.00  0.00    +0.009 A 
ATOM     23  C   UNL     1       5.127   0.049  23.075  0.00  0.00    -0.018 A 
BRANCH  23  26
ATOM     26  C   UNL     1       6.569   0.041  23.194  0.00  0.00    -0.018 A 
ATOM     28  C   UNL     1       7.316  -0.952  22.561  0.00  0.00    +0.008 A 
ATOM     29  C   UNL     1       7.212   1.027  23.942  0.00  0.00    +0.008 A 
ATOM     32  C   UNL     1       8.706  -0.959  22.676  0.00  0.00    +0.001 A 
ATOM     33  C   UNL     1       8.603   1.020  24.057  0.00  0.00    +0.001 A 
ATOM     34  C   UNL     1       9.349   0.026  23.424  0.00  0.00    +0.000 A 
ENDBRANCH  23  26
ENDBRANCH  14  16
ENDBRANCH   4  14
ENDBRANCH  10   4
TORSDOF 6
ENDMDL
MODEL 4
REMARK VINA RESULT:       5.3      2.860      5.834
REMARK  Name = 11912989
REMARK  6 active torsions:
REMARK  status: ('A' for Active; 'I' for Inactive)
REMARK    1  A    between atoms: N_4  and  C_10
REMARK    2  A    between atoms: N_4  and  C_14
REMARK    3  A    between atoms: N_5  and  C_11
REMARK    4  A    between atoms: C_14  and  C_16
REMARK    5  A    between atoms: C_19  and  C_25
REMARK    6  A    between atoms: C_23  and  C_26
REMARK                            x       y       z     vdW  Elec       q    Type
REMARK                         _______ _______ _______ _____ _____    ______ ____
ROOT
ATOM      1  O   UNL     1      -0.868  -2.989  23.875  0.00  0.00    -0.370 OA
ATOM      2  O   UNL     1      -1.928  -0.846  25.888  0.00  0.00    -0.370 OA
ATOM      8  C   UNL     1      -2.442  -1.387  24.660  0.00  0.00    +0.168 C 
ATOM      9  C   UNL     1      -1.262  -1.613  23.737  0.00  0.00    +0.171 C 
ATOM     10  C   UNL     1      -3.001  -2.770  24.892  0.00  0.00    +0.111 C 
ATOM     11  C   UNL     1      -0.186  -0.703  24.281  0.00  0.00    +0.130 C 
ATOM     12  C   UNL     1      -1.774  -3.651  24.770  0.00  0.00    +0.181 C 
ATOM     13  C   UNL     1      -0.512  -0.653  25.762  0.00  0.00    +0.185 C 
ENDROOT
BRANCH  11   5
ATOM      5  N   UNL     1      -0.310   0.614  23.697  0.00  0.00    -0.306 N 
ATOM      6  N   UNL     1       0.302   1.681  25.694  0.00  0.00    -0.211 NA
ATOM      7  N   UNL     1      -0.222   2.958  23.720  0.00  0.00    -0.223 NA
ATOM     15  C   UNL     1      -0.070   1.786  24.391  0.00  0.00    +0.216 A 
ATOM     19  C   UNL     1       0.529   2.843  26.341  0.00  0.00    +0.111 A 
ATOM     22  C   UNL     1       0.021   4.082  24.427  0.00  0.00    +0.116 A 
ATOM     24  C   UNL     1       0.403   4.085  25.753  0.00  0.00    +0.051 A 
ATOM     36  H   UNL     1      -0.535   0.703  22.711  0.00  0.00    +0.149 HD
BRANCH  19  25
ATOM      3  O   UNL     1       2.233   2.930  27.974  0.00  0.00    -0.461 OA
ATOM     25  C   UNL     1       0.920   2.700  27.718  0.00  0.00    +0.153 A 
ATOM     27  C   UNL     1       0.249   2.371  28.871  0.00  0.00    +0.051 A 
ATOM     30  C   UNL     1       1.212   2.402  29.906  0.00  0.00    +0.042 A 
ATOM     31  C   UNL     1       2.403   2.746  29.311  0.00  0.00    +0.196 A 
ENDBRANCH  19  25
ENDBRANCH  11   5
BRANCH  10   4
ATOM      4  N   UNL     1      -3.963  -3.106  23.814  0.00  0.00    -0.305 NA
ATOM     35  H   UNL     1      -4.267  -4.072  23.938  0.00  0.00    +0.123 HD
BRANCH   4  14
ATOM     14  C   UNL     1      -5.118  -2.222  23.860  0.00  0.00    +0.116 C 
BRANCH  14  16
ATOM     16  C   UNL     1      -4.719  -0.790  24.094  0.00  0.00    -0.034 A 
ATOM     17  C   UNL     1      -5.125  -0.149  25.256  0.00  0.00    +0.005 A 
ATOM     18  C   UNL     1      -3.952  -0.130  23.144  0.00  0.00    +0.005 A 
ATOM     20  C   UNL     1      -4.755   1.179  25.473  0.00  0.00    +0.009 A 
ATOM     21  C   UNL     1      -3.582   1.197  23.360  0.00  0.00    +0.009 A 
ATOM     23  C   UNL     1      -3.984   1.852  24.525  0.00  0.00    -0.018 A 
BRANCH  23  26
ATOM     26  C   UNL     1      -3.600   3.229  24.750  0.00  0.00    -0.018 A 
ATOM     28  C   UNL     1      -3.246   3.653  26.030  0.00  0.00    +0.008 A 
ATOM     29  C   UNL     1      -3.585   4.131  23.686  0.00  0.00    +0.008 A 
ATOM     32  C   UNL     1      -2.876   4.981  26.246  0.00  0.00    +0.001 A 
ATOM     33  C   UNL     1      -3.215   5.458  23.903  0.00  0.00    +0.001 A 
ATOM     34  C   UNL     1      -2.860   5.883  25.184  0.00  0.00    +0.000 A 
ENDBRANCH  23  26
ENDBRANCH  14  16
ENDBRANCH   4  14
ENDBRANCH  10   4
TORSDOF 6
ENDMDL
MODEL 5
REMARK VINA RESULT:       5.8      2.178      5.413
REMARK  Name = 11912989
REMARK  6 active torsions:
REMARK  status: ('A' for Active; 'I' for Inactive)
REMARK    1  A    between atoms: N_4  and  C_10
REMARK    2  A    between atoms: N_4  and  C_14
REMARK    3  A    between atoms: N_5  and  C_11
REMARK    4  A    between atoms: C_14  and  C_16
REMARK    5  A    between atoms: C_19  and  C_25
REMARK    6  A    between atoms: C_23  and  C_26
REMARK                            x       y       z     vdW  Elec       q    Type
REMARK                         _______ _______ _______ _____ _____    ______ ____
ROOT
ATOM      1  O   UNL     1      -1.171  -2.727  24.909  0.00  0.00    -0.370 OA
ATOM      2  O   UNL     1      -3.256  -1.682  26.990  0.00  0.00    -0.370 OA
ATOM      8  C   UNL     1      -3.173  -1.615  25.556  0.00  0.00    +0.168 C 
ATOM      9  C   UNL     1      -1.712  -1.427  25.198  0.00  0.00    +0.171 C 
ATOM     10  C   UNL     1      -3.533  -2.949  24.950  0.00  0.00    +0.111 C 
ATOM     11  C   UNL     1      -1.090  -0.868  26.456  0.00  0.00    +0.130 C 
ATOM     12  C   UNL     1      -2.220  -3.704  24.995  0.00  0.00    +0.181 C 
ATOM     13  C   UNL     1      -1.951  -1.474  27.548  0.00  0.00    +0.185 C 
ENDROOT
BRANCH  11   5
ATOM      5  N   UNL     1      -1.208   0.573  26.468  0.00  0.00    -0.306 N 
ATOM      6  N   UNL     1       0.399   0.829  24.777  0.00  0.00    -0.211 NA
ATOM      7  N   UNL     1      -0.684   2.746  25.756  0.00  0.00    -0.223 NA
ATOM     15  C   UNL     1      -0.475   1.408  25.642  0.00  0.00    +0.216 A 
ATOM     19  C   UNL     1       1.095   1.672  23.987  0.00  0.00    +0.111 A 
ATOM     22  C   UNL     1       0.045   3.531  24.934  0.00  0.00    +0.116 A 
ATOM     24  C   UNL     1       0.959   3.045  24.022  0.00  0.00    +0.051 A 
ATOM     36  H   UNL     1      -1.894   1.013  27.072  0.00  0.00    +0.149 HD
BRANCH  19  25
ATOM      3  O   UNL     1       3.286   1.497  23.123  0.00  0.00    -0.461 OA
ATOM     25  C   UNL     1       2.012   1.031  23.083  0.00  0.00    +0.153 A 
ATOM     27  C   UNL     1       1.891   0.023  22.156  0.00  0.00    +0.051 A 
ATOM     30  C   UNL     1       3.176  -0.143  21.589  0.00  0.00    +0.042 A 
ATOM     31  C   UNL     1       3.990   0.776  22.209  0.00  0.00    +0.196 A 
ENDBRANCH  19  25
ENDBRANCH  11   5
BRANCH  10   4
ATOM      4  N   UNL     1      -3.950  -2.759  23.538  0.00  0.00    -0.305 NA
ATOM     35  H   UNL     1      -4.236  -3.661  23.158  0.00  0.00    +0.123 HD
BRANCH   4  14
ATOM     14  C   UNL     1      -5.057  -1.820  23.450  0.00  0.00    +0.116 C 
BRANCH  14  16
ATOM     16  C   UNL     1      -4.629  -0.415  23.780  0.00  0.00    -0.034 A 
ATOM     17  C   UNL     1      -5.305   0.291  24.765  0.00  0.00    +0.005 A 
ATOM     18  C   UNL     1      -3.565   0.155  23.094  0.00  0.00    +0.005 A 
ATOM     20  C   UNL     1      -4.908   1.593  25.071  0.00  0.00    +0.009 A 
ATOM     21  C   UNL     1      -3.169   1.456  23.399  0.00  0.00    +0.009 A 
ATOM     23  C   UNL     1      -3.841   2.176  24.388  0.00  0.00    -0.018 A 
BRANCH  23  26
ATOM     26  C   UNL     1      -3.429   3.526  24.706  0.00  0.00    -0.018 A 
ATOM     28  C   UNL     1      -3.394   3.950  26.034  0.00  0.00    +0.008 A 
ATOM     29  C   UNL     1      -3.067   4.404  23.684  0.00  0.00    +0.008 A 
ATOM     32  C   UNL     1      -2.997   5.252  26.340  0.00  0.00    +0.001 A 
ATOM     33  C   UNL     1      -2.670   5.706  23.990  0.00  0.00    +0.001 A 
ATOM     34  C   UNL     1      -2.635   6.129  25.319  0.00  0.00    +0.000 A 
ENDBRANCH  23  26
ENDBRANCH  14  16
ENDBRANCH   4  14
ENDBRANCH  10   4
TORSDOF 6
ENDMDL
MODEL 6
REMARK VINA RESULT:       5.8      2.263      6.437
REMARK  Name = 11912989
REMARK  6 active torsions:
REMARK  status: ('A' for Active; 'I' for Inactive)
REMARK    1  A    between atoms: N_4  and  C_10
REMARK    2  A    between atoms: N_4  and  C_14
REMARK    3  A    between atoms: N_5  and  C_11
REMARK    4  A    between atoms: C_14  and  C_16
REMARK    5  A    between atoms: C_19  and  C_25
REMARK    6  A    between atoms: C_23  and  C_26
REMARK                            x       y       z     vdW  Elec       q    Type
REMARK                         _______ _______ _______ _____ _____    ______ ____
ROOT
ATOM      1  O   UNL     1      -4.284   0.274  26.253  0.00  0.00    -0.370 OA
ATOM      2  O   UNL     1      -6.554   1.009  24.235  0.00  0.00    -0.370 OA
ATOM      8  C   UNL     1      -5.139   0.801  24.096  0.00  0.00    +0.168 C 
ATOM      9  C   UNL     1      -4.476   1.365  25.337  0.00  0.00    +0.171 C 
ATOM     10  C   UNL     1      -4.821  -0.674  24.145  0.00  0.00    +0.111 C 
ATOM     11  C   UNL     1      -5.489   2.341  25.888  0.00  0.00    +0.130 C 
ATOM     12  C   UNL     1      -4.718  -0.945  25.633  0.00  0.00    +0.181 C 
ATOM     13  C   UNL     1      -6.808   1.732  25.448  0.00  0.00    +0.185 C 
ENDROOT
BRANCH  11   5
ATOM      5  N   UNL     1      -5.309   3.639  25.278  0.00  0.00    -0.306 N 
ATOM      6  N   UNL     1      -2.970   3.486  25.381  0.00  0.00    -0.211 NA
ATOM      7  N   UNL     1      -4.043   5.432  24.448  0.00  0.00    -0.223 NA
ATOM     15  C   UNL     1      -4.070   4.202  25.028  0.00  0.00    +0.216 A 
ATOM     19  C   UNL     1      -1.779   4.064  25.122  0.00  0.00    +0.111 A 
ATOM     22  C   UNL     1      -2.818   5.951  24.218  0.00  0.00    +0.116 A 
ATOM     24  C   UNL     1      -1.640   5.306  24.538  0.00  0.00    +0.051 A 
ATOM     36  H   UNL     1      -6.121   4.159  24.963  0.00  0.00    +0.149 HD
BRANCH  19  25
ATOM      3  O   UNL     1      -0.499   3.069  26.840  0.00  0.00    -0.461 OA
ATOM     25  C   UNL     1      -0.634   3.283  25.506  0.00  0.00    +0.153 A 
ATOM     27  C   UNL     1       0.390   2.685  24.812  0.00  0.00    +0.051 A 
ATOM     30  C   UNL     1       1.208   2.061  25.782  0.00  0.00    +0.042 A 
ATOM     31  C   UNL     1       0.626   2.323  27.000  0.00  0.00    +0.196 A 
ENDBRANCH  19  25
ENDBRANCH  11   5
BRANCH  10   4
ATOM      4  N   UNL     1      -3.507  -0.922  23.503  0.00  0.00    -0.305 NA
ATOM     35  H   UNL     1      -3.072  -0.023  23.291  0.00  0.00    +0.123 HD
BRANCH   4  14
ATOM     14  C   UNL     1      -2.638  -1.687  24.384  0.00  0.00    +0.116 C 
BRANCH  14  16
ATOM     16  C   UNL     1      -1.185  -1.366  24.156  0.00  0.00    -0.034 A 
ATOM     17  C   UNL     1      -0.218  -1.991  24.932  0.00  0.00    +0.005 A 
ATOM     18  C   UNL     1      -0.833  -0.451  23.174  0.00  0.00    +0.005 A 
ATOM     20  C   UNL     1       1.128  -1.693  24.721  0.00  0.00    +0.009 A 
ATOM     21  C   UNL     1       0.513  -0.153  22.964  0.00  0.00    +0.009 A 
ATOM     23  C   UNL     1       1.494  -0.774  23.737  0.00  0.00    -0.018 A 
BRANCH  23  26
ATOM     26  C   UNL     1       2.891  -0.466  23.518  0.00  0.00    -0.018 A 
ATOM     28  C   UNL     1       3.251   0.723  22.885  0.00  0.00    +0.008 A 
ATOM     29  C   UNL     1       3.877  -1.358  23.941  0.00  0.00    +0.008 A 
ATOM     32  C   UNL     1       4.598   1.020  22.674  0.00  0.00    +0.001 A 
ATOM     33  C   UNL     1       5.223  -1.061  23.730  0.00  0.00    +0.001 A 
ATOM     34  C   UNL     1       5.583   0.129  23.096  0.00  0.00    +0.000 A 
ENDBRANCH  23  26
ENDBRANCH  14  16
ENDBRANCH   4  14
ENDBRANCH  10   4
TORSDOF 6
ENDMDL
MODEL 7
REMARK VINA RESULT:       6.1      1.819      7.715
REMARK  Name = 11912989
REMARK  6 active torsions:
REMARK  status: ('A' for Active; 'I' for Inactive)
REMARK    1  A    between atoms: N_4  and  C_10
REMARK    2  A    between atoms: N_4  and  C_14
REMARK    3  A    between atoms: N_5  and  C_11
REMARK    4  A    between atoms: C_14  and  C_16
REMARK    5  A    between atoms: C_19  and  C_25
REMARK    6  A    between atoms: C_23  and  C_26
REMARK                            x       y       z     vdW  Elec       q    Type
REMARK                         _______ _______ _______ _____ _____    ______ ____
ROOT
ATOM      1  O   UNL     1      -1.058   2.703  23.046  0.00  0.00    -0.370 OA
ATOM      2  O   UNL     1      -0.835   3.736  25.987  0.00  0.00    -0.370 OA
ATOM      8  C   UNL     1      -1.182   2.466  25.410  0.00  0.00    +0.168 C 
ATOM      9  C   UNL     1      -1.977   2.745  24.151  0.00  0.00    +0.171 C 
ATOM     10  C   UNL     1       0.058   1.761  24.916  0.00  0.00    +0.111 C 
ATOM     11  C   UNL     1      -2.500   4.149  24.346  0.00  0.00    +0.130 C 
ATOM     12  C   UNL     1       0.244   2.344  23.529  0.00  0.00    +0.181 C 
ATOM     13  C   UNL     1      -1.426   4.785  25.208  0.00  0.00    +0.185 C 
ENDROOT
BRANCH  11   5
ATOM      5  N   UNL     1      -3.758   4.114  25.057  0.00  0.00    -0.306 N 
ATOM      6  N   UNL     1      -3.886   1.774  24.942  0.00  0.00    -0.211 NA
ATOM      7  N   UNL     1      -5.614   3.056  26.027  0.00  0.00    -0.223 NA
ATOM     15  C   UNL     1      -4.440   2.946  25.351  0.00  0.00    +0.216 A 
ATOM     19  C   UNL     1      -4.577   0.656  25.247  0.00  0.00    +0.111 A 
ATOM     22  C   UNL     1      -6.252   1.898  26.298  0.00  0.00    +0.116 A 
ATOM     24  C   UNL     1      -5.776   0.656  25.928  0.00  0.00    +0.051 A 
ATOM     36  H   UNL     1      -4.154   4.978  25.412  0.00  0.00    +0.149 HD
BRANCH  19  25
ATOM      3  O   UNL     1      -2.814  -0.905  25.435  0.00  0.00    -0.461 OA
ATOM     25  C   UNL     1      -3.966  -0.568  24.802  0.00  0.00    +0.153 A 
ATOM     27  C   UNL     1      -4.290  -1.506  23.850  0.00  0.00    +0.051 A 
ATOM     30  C   UNL     1      -3.271  -2.484  23.903  0.00  0.00    +0.042 A 
ATOM     31  C   UNL     1      -2.397  -2.075  24.882  0.00  0.00    +0.196 A 
ENDBRANCH  19  25
ENDBRANCH  11   5
BRANCH  10   4
ATOM      4  N   UNL     1      -0.204   0.305  24.812  0.00  0.00    -0.305 NA
ATOM     35  H   UNL     1      -1.210   0.149  24.884  0.00  0.00    +0.123 HD
BRANCH   4  14
ATOM     14  C   UNL     1       0.280  -0.217  23.543  0.00  0.00    +0.116 C 
BRANCH  14  16
ATOM     16  C   UNL     1       1.783  -0.203  23.467  0.00  0.00    -0.034 A 
ATOM     17  C   UNL     1       2.500  -1.303  23.918  0.00  0.00    +0.005 A 
ATOM     18  C   UNL     1       2.431   0.909  22.948  0.00  0.00    +0.005 A 
ATOM     20  C   UNL     1       3.893  -1.290  23.849  0.00  0.00    +0.009 A 
ATOM     21  C   UNL     1       3.824   0.922  22.878  0.00  0.00    +0.009 A 
ATOM     23  C   UNL     1       4.555  -0.178  23.329  0.00  0.00    -0.018 A 
BRANCH  23  26
ATOM     26  C   UNL     1       6.000  -0.164  23.256  0.00  0.00    -0.018 A 
ATOM     28  C   UNL     1       6.670  -1.138  22.516  0.00  0.00    +0.008 A 
ATOM     29  C   UNL     1       6.723   0.822  23.927  0.00  0.00    +0.008 A 
ATOM     32  C   UNL     1       8.063  -1.124  22.446  0.00  0.00    +0.001 A 
ATOM     33  C   UNL     1       8.117   0.836  23.857  0.00  0.00    +0.001 A 
ATOM     34  C   UNL     1       8.786  -0.138  23.115  0.00  0.00    +0.000 A 
ENDBRANCH  23  26
ENDBRANCH  14  16
ENDBRANCH   4  14
ENDBRANCH  10   4
TORSDOF 6
ENDMDL
