MODEL 1
REMARK VINA RESULT:      -4.6      0.000      0.000
REMARK  Name = 40779916
REMARK  9 active torsions:
REMARK  status: ('A' for Active; 'I' for Inactive)
REMARK    1  A    between atoms: S_1  and  N_8
REMARK    2  A    between atoms: S_1  and  C_23
REMARK    3  A    between atoms: O_3  and  C_22
REMARK    4  A    between atoms: O_3  and  C_24
REMARK    5  A    between atoms: N_7  and  C_16
REMARK    6  A    between atoms: N_8  and  C_17
REMARK    7  A    between atoms: C_10  and  C_16
REMARK    8  A    between atoms: C_11  and  C_17
REMARK    9  A    between atoms: C_18  and  C_22
REMARK                            x       y       z     vdW  Elec       q    Type
REMARK                         _______ _______ _______ _____ _____    ______ ____
ROOT
ATOM      6  N   UNL     1      -2.739  -2.296  24.216  0.00  0.00    -0.298 NA
ATOM      9  C   UNL     1      -2.996  -0.192  25.724  0.00  0.00    -0.003 C 
ATOM     10  C   UNL     1      -3.734  -0.001  24.379  0.00  0.00    +0.020 C 
ATOM     11  C   UNL     1      -1.402  -1.835  24.678  0.00  0.00    +0.072 C 
ATOM     12  C   UNL     1      -1.513  -0.502  25.452  0.00  0.00    +0.024 C 
ATOM     13  C   UNL     1      -3.428  -1.213  23.472  0.00  0.00    +0.089 C 
ATOM     14  C   UNL     1      -3.607  -1.438  26.395  0.00  0.00    +0.019 C 
ATOM     15  C   UNL     1      -3.550  -2.621  25.414  0.00  0.00    +0.085 C 
ENDROOT
BRANCH  10  16
ATOM     16  C   UNL     1      -3.395   1.319  23.689  0.00  0.00    +0.089 C 
BRANCH  16   7
ATOM      7  N   UNL     1      -4.211   2.406  24.218  0.00  0.00    -0.297 NA
ATOM     18  C   UNL     1      -3.521   3.208  25.237  0.00  0.00    +0.082 C 
ATOM     19  C   UNL     1      -5.411   1.898  24.887  0.00  0.00    +0.085 C 
ATOM     20  C   UNL     1      -4.672   3.963  25.907  0.00  0.00    +0.022 C 
ATOM     21  C   UNL     1      -5.907   3.098  25.677  0.00  0.00    +0.017 C 
BRANCH  18  22
ATOM     22  C   UNL     1      -2.484   4.161  24.657  0.00  0.00    +0.178 C 
BRANCH  22   3
ATOM      3  O   UNL     1      -1.396   4.252  25.561  0.00  0.00    -0.381 OA
ATOM     24  C   UNL     1      -0.878   2.969  25.892  0.00  0.00    +0.194 C 
ENDBRANCH  22   3
ENDBRANCH  18  22
ENDBRANCH  16   7
ENDBRANCH  10  16
BRANCH  11  17
ATOM     17  C   UNL     1      -0.388  -1.747  23.536  0.00  0.00    +0.124 C 
BRANCH  17   8
ATOM      8  N   UNL     1       0.804  -1.031  23.959  0.00  0.00    -0.188 NA
ATOM     28  H   UNL     1       0.805  -0.771  24.953  0.00  0.00    +0.148 HD
BRANCH   8   1
ATOM      1  S   UNL     1       1.575   0.082  22.909  0.00  0.00    +0.065 S 
ATOM      4  O   UNL     1       1.277   1.431  23.353  0.00  0.00    -0.153 OA
ATOM      5  O   UNL     1       1.336  -0.302  21.532  0.00  0.00    -0.153 OA
BRANCH   1  23
ATOM      2  S   UNL     1       4.354   1.004  22.762  0.00  0.00    -0.077 S 
ATOM     23  C   UNL     1       3.280  -0.239  23.247  0.00  0.00    +0.142 A 
ATOM     25  C   UNL     1       3.944  -1.297  23.830  0.00  0.00    +0.036 A 
ATOM     26  C   UNL     1       5.351  -1.083  23.878  0.00  0.00    +0.010 A 
ATOM     27  C   UNL     1       5.710   0.128  23.331  0.00  0.00    +0.047 A 
ENDBRANCH   1  23
ENDBRANCH   8   1
ENDBRANCH  17   8
ENDBRANCH  11  17
TORSDOF 8
ENDMDL
MODEL 2
REMARK VINA RESULT:      -4.5      1.073      2.030
REMARK  Name = 40779916
REMARK  9 active torsions:
REMARK  status: ('A' for Active; 'I' for Inactive)
REMARK    1  A    between atoms: S_1  and  N_8
REMARK    2  A    between atoms: S_1  and  C_23
REMARK    3  A    between atoms: O_3  and  C_22
REMARK    4  A    between atoms: O_3  and  C_24
REMARK    5  A    between atoms: N_7  and  C_16
REMARK    6  A    between atoms: N_8  and  C_17
REMARK    7  A    between atoms: C_10  and  C_16
REMARK    8  A    between atoms: C_11  and  C_17
REMARK    9  A    between atoms: C_18  and  C_22
REMARK                            x       y       z     vdW  Elec       q    Type
REMARK                         _______ _______ _______ _____ _____    ______ ____
ROOT
ATOM      6  N   UNL     1      -2.761  -2.145  24.183  0.00  0.00    -0.298 NA
ATOM      9  C   UNL     1      -2.909  -0.061  25.735  0.00  0.00    -0.003 C 
ATOM     10  C   UNL     1      -3.637   0.195  24.394  0.00  0.00    +0.020 C 
ATOM     11  C   UNL     1      -1.402  -1.762  24.653  0.00  0.00    +0.072 C 
ATOM     12  C   UNL     1      -1.444  -0.441  25.454  0.00  0.00    +0.024 C 
ATOM     13  C   UNL     1      -3.395  -1.013  23.463  0.00  0.00    +0.089 C 
ATOM     14  C   UNL     1      -3.583  -1.287  26.381  0.00  0.00    +0.019 C 
ATOM     15  C   UNL     1      -3.587  -2.452  25.375  0.00  0.00    +0.085 C 
ENDROOT
BRANCH  10  16
ATOM     16  C   UNL     1      -3.231   1.509  23.731  0.00  0.00    +0.089 C 
BRANCH  16   7
ATOM      7  N   UNL     1      -2.575   2.393  24.688  0.00  0.00    -0.297 NA
ATOM     18  C   UNL     1      -3.382   3.568  25.043  0.00  0.00    +0.082 C 
ATOM     19  C   UNL     1      -1.330   2.941  24.144  0.00  0.00    +0.085 C 
ATOM     20  C   UNL     1      -2.352   4.502  25.683  0.00  0.00    +0.022 C 
ATOM     21  C   UNL     1      -1.010   4.089  25.087  0.00  0.00    +0.017 C 
BRANCH  18  22
ATOM     22  C   UNL     1      -4.526   3.251  25.997  0.00  0.00    +0.178 C 
BRANCH  22   3
ATOM      3  O   UNL     1      -5.748   3.336  25.284  0.00  0.00    -0.381 OA
ATOM     24  C   UNL     1      -6.410   2.079  25.222  0.00  0.00    +0.194 C 
ENDBRANCH  22   3
ENDBRANCH  18  22
ENDBRANCH  16   7
ENDBRANCH  10  16
BRANCH  11  17
ATOM     17  C   UNL     1      -0.386  -1.703  23.511  0.00  0.00    +0.124 C 
BRANCH  17   8
ATOM      8  N   UNL     1       0.833  -1.035  23.940  0.00  0.00    -0.188 NA
ATOM     28  H   UNL     1       0.854  -0.806  24.942  0.00  0.00    +0.148 HD
BRANCH   8   1
ATOM      1  S   UNL     1       1.623   0.086  22.915  0.00  0.00    +0.065 S 
ATOM      4  O   UNL     1       1.335   1.430  23.376  0.00  0.00    -0.153 OA
ATOM      5  O   UNL     1       1.393  -0.275  21.529  0.00  0.00    -0.153 OA
BRANCH   1  23
ATOM      2  S   UNL     1       4.413   0.977  22.794  0.00  0.00    -0.077 S 
ATOM     23  C   UNL     1       3.323  -0.257  23.262  0.00  0.00    +0.142 A 
ATOM     25  C   UNL     1       3.970  -1.327  23.841  0.00  0.00    +0.036 A 
ATOM     26  C   UNL     1       5.379  -1.130  23.901  0.00  0.00    +0.010 A 
ATOM     27  C   UNL     1       5.756   0.082  23.366  0.00  0.00    +0.047 A 
ENDBRANCH   1  23
ENDBRANCH   8   1
ENDBRANCH  17   8
ENDBRANCH  11  17
TORSDOF 8
ENDMDL
MODEL 3
REMARK VINA RESULT:      -3.0     16.933     19.772
REMARK  Name = 40779916
REMARK  9 active torsions:
REMARK  status: ('A' for Active; 'I' for Inactive)
REMARK    1  A    between atoms: S_1  and  N_8
REMARK    2  A    between atoms: S_1  and  C_23
REMARK    3  A    between atoms: O_3  and  C_22
REMARK    4  A    between atoms: O_3  and  C_24
REMARK    5  A    between atoms: N_7  and  C_16
REMARK    6  A    between atoms: N_8  and  C_17
REMARK    7  A    between atoms: C_10  and  C_16
REMARK    8  A    between atoms: C_11  and  C_17
REMARK    9  A    between atoms: C_18  and  C_22
REMARK                            x       y       z     vdW  Elec       q    Type
REMARK                         _______ _______ _______ _____ _____    ______ ____
ROOT
ATOM      6  N   UNL     1      14.445  -5.695  31.541  0.00  0.00    -0.298 NA
ATOM      9  C   UNL     1      16.781  -4.633  31.110  0.00  0.00    -0.003 C 
ATOM     10  C   UNL     1      16.160  -5.156  29.794  0.00  0.00    +0.020 C 
ATOM     11  C   UNL     1      15.453  -6.292  32.458  0.00  0.00    +0.072 C 
ATOM     12  C   UNL     1      16.874  -5.789  32.122  0.00  0.00    +0.024 C 
ATOM     13  C   UNL     1      14.849  -5.900  30.128  0.00  0.00    +0.089 C 
ATOM     14  C   UNL     1      15.796  -3.599  31.688  0.00  0.00    +0.019 C 
ATOM     15  C   UNL     1      14.399  -4.235  31.800  0.00  0.00    +0.085 C 
ENDROOT
BRANCH  10  16
ATOM     16  C   UNL     1      17.115  -6.031  28.984  0.00  0.00    +0.089 C 
BRANCH  16   7
ATOM      7  N   UNL     1      16.652  -6.170  27.609  0.00  0.00    -0.297 NA
ATOM     18  C   UNL     1      16.880  -7.510  27.051  0.00  0.00    +0.082 C 
ATOM     19  C   UNL     1      17.366  -5.261  26.709  0.00  0.00    +0.085 C 
ATOM     20  C   UNL     1      16.717  -7.281  25.546  0.00  0.00    +0.022 C 
ATOM     21  C   UNL     1      17.041  -5.806  25.328  0.00  0.00    +0.017 C 
BRANCH  18  22
ATOM     22  C   UNL     1      15.903  -8.556  27.571  0.00  0.00    +0.178 C 
BRANCH  22   3
ATOM      3  O   UNL     1      15.591  -9.450  26.516  0.00  0.00    -0.381 OA
ATOM     24  C   UNL     1      14.872 -10.585  26.983  0.00  0.00    +0.194 C 
ENDBRANCH  22   3
ENDBRANCH  18  22
ENDBRANCH  16   7
ENDBRANCH  10  16
BRANCH  11  17
ATOM     17  C   UNL     1      15.382  -7.820  32.486  0.00  0.00    +0.124 C 
BRANCH  17   8
ATOM      8  N   UNL     1      14.011  -8.269  32.673  0.00  0.00    -0.188 NA
ATOM     28  H   UNL     1      13.712  -8.301  33.656  0.00  0.00    +0.148 HD
BRANCH   8   1
ATOM      1  S   UNL     1      13.341  -9.478  31.663  0.00  0.00    +0.065 S 
ATOM      4  O   UNL     1      13.745 -10.781  32.158  0.00  0.00    -0.153 OA
ATOM      5  O   UNL     1      13.558  -9.127  30.273  0.00  0.00    -0.153 OA
BRANCH   1  23
ATOM      2  S   UNL     1      11.097  -7.666  32.182  0.00  0.00    -0.077 S 
ATOM     23  C   UNL     1      11.613  -9.286  31.982  0.00  0.00    +0.142 A 
ATOM     25  C   UNL     1      10.571 -10.179  32.105  0.00  0.00    +0.036 A 
ATOM     26  C   UNL     1       9.334  -9.524  32.367  0.00  0.00    +0.010 A 
ATOM     27  C   UNL     1       9.476  -8.156  32.434  0.00  0.00    +0.047 A 
ENDBRANCH   1  23
ENDBRANCH   8   1
ENDBRANCH  17   8
ENDBRANCH  11  17
TORSDOF 8
ENDMDL
MODEL 4
REMARK VINA RESULT:      -2.5     16.855     19.617
REMARK  Name = 40779916
REMARK  9 active torsions:
REMARK  status: ('A' for Active; 'I' for Inactive)
REMARK    1  A    between atoms: S_1  and  N_8
REMARK    2  A    between atoms: S_1  and  C_23
REMARK    3  A    between atoms: O_3  and  C_22
REMARK    4  A    between atoms: O_3  and  C_24
REMARK    5  A    between atoms: N_7  and  C_16
REMARK    6  A    between atoms: N_8  and  C_17
REMARK    7  A    between atoms: C_10  and  C_16
REMARK    8  A    between atoms: C_11  and  C_17
REMARK    9  A    between atoms: C_18  and  C_22
REMARK                            x       y       z     vdW  Elec       q    Type
REMARK                         _______ _______ _______ _____ _____    ______ ____
ROOT
ATOM      6  N   UNL     1      14.398  -5.137  31.425  0.00  0.00    -0.298 NA
ATOM      9  C   UNL     1      16.986  -5.039  31.674  0.00  0.00    -0.003 C 
ATOM     10  C   UNL     1      16.578  -5.158  30.187  0.00  0.00    +0.020 C 
ATOM     11  C   UNL     1      14.855  -6.160  32.404  0.00  0.00    +0.072 C 
ATOM     12  C   UNL     1      16.397  -6.225  32.459  0.00  0.00    +0.024 C 
ATOM     13  C   UNL     1      15.048  -5.356  30.110  0.00  0.00    +0.089 C 
ATOM     14  C   UNL     1      16.325  -3.758  32.218  0.00  0.00    +0.019 C 
ATOM     15  C   UNL     1      14.814  -3.805  31.928  0.00  0.00    +0.085 C 
ENDROOT
BRANCH  10  16
ATOM     16  C   UNL     1      17.329  -6.260  29.444  0.00  0.00    +0.089 C 
BRANCH  16   7
ATOM      7  N   UNL     1      16.442  -6.965  28.526  0.00  0.00    -0.297 NA
ATOM     18  C   UNL     1      16.753  -8.396  28.400  0.00  0.00    +0.082 C 
ATOM     19  C   UNL     1      16.547  -6.434  27.165  0.00  0.00    +0.085 C 
ATOM     20  C   UNL     1      16.004  -8.791  27.125  0.00  0.00    +0.022 C 
ATOM     21  C   UNL     1      15.875  -7.503  26.319  0.00  0.00    +0.017 C 
BRANCH  18  22
ATOM     22  C   UNL     1      16.304  -9.221  29.598  0.00  0.00    +0.178 C 
BRANCH  22   3
ATOM      3  O   UNL     1      15.185 -10.002  29.216  0.00  0.00    -0.381 OA
ATOM     24  C   UNL     1      14.575 -10.632  30.337  0.00  0.00    +0.194 C 
ENDBRANCH  22   3
ENDBRANCH  18  22
ENDBRANCH  16   7
ENDBRANCH  10  16
BRANCH  11  17
ATOM     17  C   UNL     1      14.236  -7.535  32.141  0.00  0.00    +0.124 C 
BRANCH  17   8
ATOM      8  N   UNL     1      12.972  -7.674  32.846  0.00  0.00    -0.188 NA
ATOM     28  H   UNL     1      12.919  -8.505  33.449  0.00  0.00    +0.148 HD
BRANCH   8   1
ATOM      1  S   UNL     1      11.500  -7.212  32.102  0.00  0.00    +0.065 S 
ATOM      4  O   UNL     1      11.725  -7.041  30.679  0.00  0.00    -0.153 OA
ATOM      5  O   UNL     1      10.874  -6.156  32.873  0.00  0.00    -0.153 OA
BRANCH   1  23
ATOM      2  S   UNL     1       8.910  -8.542  31.760  0.00  0.00    -0.077 S 
ATOM     23  C   UNL     1      10.520  -8.667  32.328  0.00  0.00    +0.142 A 
ATOM     25  C   UNL     1      10.781  -9.905  32.873  0.00  0.00    +0.036 A 
ATOM     26  C   UNL     1       9.644 -10.761  32.824  0.00  0.00    +0.010 A 
ATOM     27  C   UNL     1       8.558 -10.146  32.244  0.00  0.00    +0.047 A 
ENDBRANCH   1  23
ENDBRANCH   8   1
ENDBRANCH  17   8
ENDBRANCH  11  17
TORSDOF 8
ENDMDL
MODEL 5
REMARK VINA RESULT:      -2.2      1.868      4.087
REMARK  Name = 40779916
REMARK  9 active torsions:
REMARK  status: ('A' for Active; 'I' for Inactive)
REMARK    1  A    between atoms: S_1  and  N_8
REMARK    2  A    between atoms: S_1  and  C_23
REMARK    3  A    between atoms: O_3  and  C_22
REMARK    4  A    between atoms: O_3  and  C_24
REMARK    5  A    between atoms: N_7  and  C_16
REMARK    6  A    between atoms: N_8  and  C_17
REMARK    7  A    between atoms: C_10  and  C_16
REMARK    8  A    between atoms: C_11  and  C_17
REMARK    9  A    between atoms: C_18  and  C_22
REMARK                            x       y       z     vdW  Elec       q    Type
REMARK                         _______ _______ _______ _____ _____    ______ ____
ROOT
ATOM      6  N   UNL     1      -0.619   3.423  25.263  0.00  0.00    -0.298 NA
ATOM      9  C   UNL     1      -2.543   1.987  24.261  0.00  0.00    -0.003 C 
ATOM     10  C   UNL     1      -2.241   1.567  25.719  0.00  0.00    +0.020 C 
ATOM     11  C   UNL     1      -0.194   2.838  23.963  0.00  0.00    +0.072 C 
ATOM     12  C   UNL     1      -1.260   1.861  23.419  0.00  0.00    +0.024 C 
ATOM     13  C   UNL     1      -1.003   2.348  26.211  0.00  0.00    +0.089 C 
ATOM     14  C   UNL     1      -2.921   3.480  24.297  0.00  0.00    +0.019 C 
ATOM     15  C   UNL     1      -1.812   4.268  25.016  0.00  0.00    +0.085 C 
ENDROOT
BRANCH  10  16
ATOM     16  C   UNL     1      -2.060   0.060  25.885  0.00  0.00    +0.089 C 
BRANCH  16   7
ATOM      7  N   UNL     1      -2.702  -0.664  24.794  0.00  0.00    -0.297 NA
ATOM     18  C   UNL     1      -4.156  -0.795  24.959  0.00  0.00    +0.082 C 
ATOM     19  C   UNL     1      -2.208  -2.040  24.700  0.00  0.00    +0.085 C 
ATOM     20  C   UNL     1      -4.508  -1.905  23.966  0.00  0.00    +0.022 C 
ATOM     21  C   UNL     1      -3.229  -2.719  23.803  0.00  0.00    +0.017 C 
BRANCH  18  22
ATOM     22  C   UNL     1      -4.917   0.491  24.662  0.00  0.00    +0.178 C 
BRANCH  22   3
ATOM      3  O   UNL     1      -5.544   0.933  25.854  0.00  0.00    -0.381 OA
ATOM     24  C   UNL     1      -5.969   2.286  25.755  0.00  0.00    +0.194 C 
ENDBRANCH  22   3
ENDBRANCH  18  22
ENDBRANCH  16   7
ENDBRANCH  10  16
BRANCH  11  17
ATOM     17  C   UNL     1       1.188   2.185  24.041  0.00  0.00    +0.124 C 
BRANCH  17   8
ATOM      8  N   UNL     1       1.537   1.563  22.774  0.00  0.00    -0.188 NA
ATOM     28  H   UNL     1       1.135   2.033  21.953  0.00  0.00    +0.148 HD
BRANCH   8   1
ATOM      1  S   UNL     1       1.684  -0.138  22.646  0.00  0.00    +0.065 S 
ATOM      4  O   UNL     1       1.586  -0.516  21.248  0.00  0.00    -0.153 OA
ATOM      5  O   UNL     1       0.835  -0.776  23.634  0.00  0.00    -0.153 OA
BRANCH   1  23
ATOM      2  S   UNL     1       4.420   0.901  22.793  0.00  0.00    -0.077 S 
ATOM     23  C   UNL     1       3.356  -0.387  23.163  0.00  0.00    +0.142 A 
ATOM     25  C   UNL     1       3.998  -1.418  23.815  0.00  0.00    +0.036 A 
ATOM     26  C   UNL     1       5.382  -1.145  24.012  0.00  0.00    +0.010 A 
ATOM     27  C   UNL     1       5.745   0.082  23.505  0.00  0.00    +0.047 A 
ENDBRANCH   1  23
ENDBRANCH   8   1
ENDBRANCH  17   8
ENDBRANCH  11  17
TORSDOF 8
ENDMDL
MODEL 6
REMARK VINA RESULT:      -1.7     15.142     18.818
REMARK  Name = 40779916
REMARK  9 active torsions:
REMARK  status: ('A' for Active; 'I' for Inactive)
REMARK    1  A    between atoms: S_1  and  N_8
REMARK    2  A    between atoms: S_1  and  C_23
REMARK    3  A    between atoms: O_3  and  C_22
REMARK    4  A    between atoms: O_3  and  C_24
REMARK    5  A    between atoms: N_7  and  C_16
REMARK    6  A    between atoms: N_8  and  C_17
REMARK    7  A    between atoms: C_10  and  C_16
REMARK    8  A    between atoms: C_11  and  C_17
REMARK    9  A    between atoms: C_18  and  C_22
REMARK                            x       y       z     vdW  Elec       q    Type
REMARK                         _______ _______ _______ _____ _____    ______ ____
ROOT
ATOM      6  N   UNL     1      12.083  -6.191  31.140  0.00  0.00    -0.298 NA
ATOM      9  C   UNL     1      14.546  -5.683  31.807  0.00  0.00    -0.003 C 
ATOM     10  C   UNL     1      14.459  -6.165  30.340  0.00  0.00    +0.020 C 
ATOM     11  C   UNL     1      12.431  -6.914  32.393  0.00  0.00    +0.072 C 
ATOM     12  C   UNL     1      13.929  -6.750  32.730  0.00  0.00    +0.024 C 
ATOM     13  C   UNL     1      13.002  -6.587  30.045  0.00  0.00    +0.089 C 
ATOM     14  C   UNL     1      13.667  -4.422  31.916  0.00  0.00    +0.019 C 
ATOM     15  C   UNL     1      12.257  -4.739  31.387  0.00  0.00    +0.085 C 
ENDROOT
BRANCH  10  16
ATOM     16  C   UNL     1      15.447  -7.282  30.014  0.00  0.00    +0.089 C 
BRANCH  16   7
ATOM      7  N   UNL     1      15.269  -7.749  28.644  0.00  0.00    -0.297 NA
ATOM     18  C   UNL     1      15.794  -9.103  28.419  0.00  0.00    +0.082 C 
ATOM     19  C   UNL     1      15.990  -6.902  27.691  0.00  0.00    +0.085 C 
ATOM     20  C   UNL     1      15.875  -9.183  26.893  0.00  0.00    +0.022 C 
ATOM     21  C   UNL     1      16.007  -7.738  26.422  0.00  0.00    +0.017 C 
BRANCH  18  22
ATOM     22  C   UNL     1      14.908 -10.200  28.995  0.00  0.00    +0.178 C 
BRANCH  22   3
ATOM      3  O   UNL     1      15.488 -10.666  30.201  0.00  0.00    -0.381 OA
ATOM     24  C   UNL     1      14.692 -10.331  31.331  0.00  0.00    +0.194 C 
ENDBRANCH  22   3
ENDBRANCH  18  22
ENDBRANCH  16   7
ENDBRANCH  10  16
BRANCH  11  17
ATOM     17  C   UNL     1      12.014  -8.386  32.351  0.00  0.00    +0.124 C 
BRANCH  17   8
ATOM      8  N   UNL     1      10.741  -8.542  31.667  0.00  0.00    -0.188 NA
ATOM     28  H   UNL     1      10.141  -7.708  31.705  0.00  0.00    +0.148 HD
BRANCH   8   1
ATOM      1  S   UNL     1       9.914 -10.041  31.689  0.00  0.00    +0.065 S 
ATOM      4  O   UNL     1      10.312 -10.781  32.871  0.00  0.00    -0.153 OA
ATOM      5  O   UNL     1       9.994 -10.661  30.380  0.00  0.00    -0.153 OA
BRANCH   1  23
ATOM      2  S   UNL     1       7.216 -10.678  32.642  0.00  0.00    -0.077 S 
ATOM     23  C   UNL     1       8.240  -9.517  31.910  0.00  0.00    +0.142 A 
ATOM     25  C   UNL     1       7.570  -8.350  31.615  0.00  0.00    +0.036 A 
ATOM     26  C   UNL     1       6.198  -8.410  31.995  0.00  0.00    +0.010 A 
ATOM     27  C   UNL     1       5.872  -9.620  32.565  0.00  0.00    +0.047 A 
ENDBRANCH   1  23
ENDBRANCH   8   1
ENDBRANCH  17   8
ENDBRANCH  11  17
TORSDOF 8
ENDMDL
MODEL 7
REMARK VINA RESULT:      -1.5      2.806      6.237
REMARK  Name = 40779916
REMARK  9 active torsions:
REMARK  status: ('A' for Active; 'I' for Inactive)
REMARK    1  A    between atoms: S_1  and  N_8
REMARK    2  A    between atoms: S_1  and  C_23
REMARK    3  A    between atoms: O_3  and  C_22
REMARK    4  A    between atoms: O_3  and  C_24
REMARK    5  A    between atoms: N_7  and  C_16
REMARK    6  A    between atoms: N_8  and  C_17
REMARK    7  A    between atoms: C_10  and  C_16
REMARK    8  A    between atoms: C_11  and  C_17
REMARK    9  A    between atoms: C_18  and  C_22
REMARK                            x       y       z     vdW  Elec       q    Type
REMARK                         _______ _______ _______ _____ _____    ______ ____
ROOT
ATOM      6  N   UNL     1      -3.195  -0.398  25.928  0.00  0.00    -0.298 NA
ATOM      9  C   UNL     1      -2.764  -2.275  24.179  0.00  0.00    -0.003 C 
ATOM     10  C   UNL     1      -1.470  -1.478  24.464  0.00  0.00    +0.020 C 
ATOM     11  C   UNL     1      -4.186  -0.302  24.822  0.00  0.00    +0.072 C 
ATOM     12  C   UNL     1      -3.861  -1.309  23.697  0.00  0.00    +0.024 C 
ATOM     13  C   UNL     1      -1.815  -0.293  25.393  0.00  0.00    +0.089 C 
ATOM     14  C   UNL     1      -3.231  -2.863  25.525  0.00  0.00    +0.019 C 
ATOM     15  C   UNL     1      -3.344  -1.731  26.561  0.00  0.00    +0.085 C 
ENDROOT
BRANCH  10  16
ATOM     16  C   UNL     1      -0.759  -1.011  23.195  0.00  0.00    +0.089 C 
BRANCH  16   7
ATOM      7  N   UNL     1       0.513  -0.376  23.516  0.00  0.00    -0.297 NA
ATOM     18  C   UNL     1       0.464   1.091  23.448  0.00  0.00    +0.082 C 
ATOM     19  C   UNL     1       1.560  -0.762  22.568  0.00  0.00    +0.085 C 
ATOM     20  C   UNL     1       1.945   1.475  23.401  0.00  0.00    +0.022 C 
ATOM     21  C   UNL     1       2.657   0.258  22.819  0.00  0.00    +0.017 C 
BRANCH  18  22
ATOM     22  C   UNL     1      -0.247   1.729  24.634  0.00  0.00    +0.178 C 
BRANCH  22   3
ATOM      3  O   UNL     1       0.723   2.333  25.473  0.00  0.00    -0.381 OA
ATOM     24  C   UNL     1       0.294   2.374  26.828  0.00  0.00    +0.194 C 
ENDBRANCH  22   3
ENDBRANCH  18  22
ENDBRANCH  16   7
ENDBRANCH  10  16
BRANCH  11  17
ATOM     17  C   UNL     1      -4.324   1.125  24.287  0.00  0.00    +0.124 C 
BRANCH  17   8
ATOM      8  N   UNL     1      -5.583   1.715  24.713  0.00  0.00    -0.188 NA
ATOM     28  H   UNL     1      -6.303   1.740  23.979  0.00  0.00    +0.148 HD
BRANCH   8   1
ATOM      1  S   UNL     1      -5.606   3.033  25.807  0.00  0.00    +0.065 S 
ATOM      4  O   UNL     1      -5.658   2.518  27.163  0.00  0.00    -0.153 OA
ATOM      5  O   UNL     1      -6.573   4.018  25.364  0.00  0.00    -0.153 OA
BRANCH   1  23
ATOM      2  S   UNL     1      -3.578   3.970  23.909  0.00  0.00    -0.077 S 
ATOM     23  C   UNL     1      -4.002   3.731  25.550  0.00  0.00    +0.142 A 
ATOM     25  C   UNL     1      -3.001   4.133  26.407  0.00  0.00    +0.036 A 
ATOM     26  C   UNL     1      -1.871   4.644  25.705  0.00  0.00    +0.010 A 
ATOM     27  C   UNL     1      -2.051   4.612  24.341  0.00  0.00    +0.047 A 
ENDBRANCH   1  23
ENDBRANCH   8   1
ENDBRANCH  17   8
ENDBRANCH  11  17
TORSDOF 8
ENDMDL
MODEL 8
REMARK VINA RESULT:      -1.2      2.916      6.213
REMARK  Name = 40779916
REMARK  9 active torsions:
REMARK  status: ('A' for Active; 'I' for Inactive)
REMARK    1  A    between atoms: S_1  and  N_8
REMARK    2  A    between atoms: S_1  and  C_23
REMARK    3  A    between atoms: O_3  and  C_22
REMARK    4  A    between atoms: O_3  and  C_24
REMARK    5  A    between atoms: N_7  and  C_16
REMARK    6  A    between atoms: N_8  and  C_17
REMARK    7  A    between atoms: C_10  and  C_16
REMARK    8  A    between atoms: C_11  and  C_17
REMARK    9  A    between atoms: C_18  and  C_22
REMARK                            x       y       z     vdW  Elec       q    Type
REMARK                         _______ _______ _______ _____ _____    ______ ____
ROOT
ATOM      6  N   UNL     1      -3.680  -1.735  25.423  0.00  0.00    -0.298 NA
ATOM      9  C   UNL     1      -1.672  -2.269  23.858  0.00  0.00    -0.003 C 
ATOM     10  C   UNL     1      -1.198  -2.068  25.316  0.00  0.00    +0.020 C 
ATOM     11  C   UNL     1      -3.686  -0.813  24.256  0.00  0.00    +0.072 C 
ATOM     12  C   UNL     1      -2.422  -1.009  23.389  0.00  0.00    +0.024 C 
ATOM     13  C   UNL     1      -2.403  -1.615  26.168  0.00  0.00    +0.089 C 
ATOM     14  C   UNL     1      -2.690  -3.426  23.874  0.00  0.00    +0.019 C 
ATOM     15  C   UNL     1      -3.786  -3.122  24.911  0.00  0.00    +0.085 C 
ENDROOT
BRANCH  10  16
ATOM     16  C   UNL     1      -0.023  -1.100  25.438  0.00  0.00    +0.089 C 
BRANCH  16   7
ATOM      7  N   UNL     1      -0.342   0.184  24.825  0.00  0.00    -0.297 NA
ATOM     18  C   UNL     1       0.770   0.749  24.048  0.00  0.00    +0.082 C 
ATOM     19  C   UNL     1      -0.649   1.198  25.836  0.00  0.00    +0.085 C 
ATOM     20  C   UNL     1       0.354   2.213  23.883  0.00  0.00    +0.022 C 
ATOM     21  C   UNL     1      -0.573   2.502  25.059  0.00  0.00    +0.017 C 
BRANCH  18  22
ATOM     22  C   UNL     1       0.976   0.066  22.702  0.00  0.00    +0.178 C 
BRANCH  22   3
ATOM      3  O   UNL     1       2.316  -0.389  22.625  0.00  0.00    -0.381 OA
ATOM     24  C   UNL     1       3.241   0.692  22.650  0.00  0.00    +0.194 C 
ENDBRANCH  22   3
ENDBRANCH  18  22
ENDBRANCH  16   7
ENDBRANCH  10  16
BRANCH  11  17
ATOM     17  C   UNL     1      -3.872   0.648  24.668  0.00  0.00    +0.124 C 
BRANCH  17   8
ATOM      8  N   UNL     1      -5.038   0.797  25.524  0.00  0.00    -0.188 NA
ATOM     28  H   UNL     1      -5.677  -0.008  25.504  0.00  0.00    +0.148 HD
BRANCH   8   1
ATOM      1  S   UNL     1      -5.788   2.324  25.724  0.00  0.00    +0.065 S 
ATOM      4  O   UNL     1      -6.287   2.430  27.082  0.00  0.00    -0.153 OA
ATOM      5  O   UNL     1      -6.669   2.584  24.601  0.00  0.00    -0.153 OA
BRANCH   1  23
ATOM      2  S   UNL     1      -4.013   3.840  23.951  0.00  0.00    -0.077 S 
ATOM     23  C   UNL     1      -4.409   3.418  25.562  0.00  0.00    +0.142 A 
ATOM     25  C   UNL     1      -3.567   4.016  26.474  0.00  0.00    +0.036 A 
ATOM     26  C   UNL     1      -2.585   4.831  25.842  0.00  0.00    +0.010 A 
ATOM     27  C   UNL     1      -2.713   4.825  24.471  0.00  0.00    +0.047 A 
ENDBRANCH   1  23
ENDBRANCH   8   1
ENDBRANCH  17   8
ENDBRANCH  11  17
TORSDOF 8
ENDMDL
MODEL 9
REMARK VINA RESULT:      -0.8      3.216      5.239
REMARK  Name = 40779916
REMARK  9 active torsions:
REMARK  status: ('A' for Active; 'I' for Inactive)
REMARK    1  A    between atoms: S_1  and  N_8
REMARK    2  A    between atoms: S_1  and  C_23
REMARK    3  A    between atoms: O_3  and  C_22
REMARK    4  A    between atoms: O_3  and  C_24
REMARK    5  A    between atoms: N_7  and  C_16
REMARK    6  A    between atoms: N_8  and  C_17
REMARK    7  A    between atoms: C_10  and  C_16
REMARK    8  A    between atoms: C_11  and  C_17
REMARK    9  A    between atoms: C_18  and  C_22
REMARK                            x       y       z     vdW  Elec       q    Type
REMARK                         _______ _______ _______ _____ _____    ______ ____
ROOT
ATOM      6  N   UNL     1      -0.288   2.095  26.016  0.00  0.00    -0.298 NA
ATOM      9  C   UNL     1      -0.685   4.409  24.896  0.00  0.00    -0.003 C 
ATOM     10  C   UNL     1      -1.904   3.993  25.751  0.00  0.00    +0.020 C 
ATOM     11  C   UNL     1      -0.036   2.003  24.552  0.00  0.00    +0.072 C 
ATOM     12  C   UNL     1      -0.409   3.322  23.841  0.00  0.00    +0.024 C 
ATOM     13  C   UNL     1      -1.674   2.557  26.272  0.00  0.00    +0.089 C 
ATOM     14  C   UNL     1       0.531   4.448  25.841  0.00  0.00    +0.019 C 
ATOM     15  C   UNL     1       0.645   3.102  26.577  0.00  0.00    +0.085 C 
ENDROOT
BRANCH  10  16
ATOM     16  C   UNL     1      -3.232   4.118  25.008  0.00  0.00    +0.089 C 
BRANCH  16   7
ATOM      7  N   UNL     1      -4.084   2.964  25.267  0.00  0.00    -0.297 NA
ATOM     18  C   UNL     1      -4.745   2.446  24.061  0.00  0.00    +0.082 C 
ATOM     19  C   UNL     1      -5.177   3.299  26.182  0.00  0.00    +0.085 C 
ATOM     20  C   UNL     1      -5.854   1.564  24.639  0.00  0.00    +0.022 C 
ATOM     21  C   UNL     1      -6.136   2.130  26.027  0.00  0.00    +0.017 C 
BRANCH  18  22
ATOM     22  C   UNL     1      -3.812   1.656  23.152  0.00  0.00    +0.178 C 
BRANCH  22   3
ATOM      3  O   UNL     1      -3.228   2.547  22.217  0.00  0.00    -0.381 OA
ATOM     24  C   UNL     1      -2.462   1.856  21.238  0.00  0.00    +0.194 C 
ENDBRANCH  22   3
ENDBRANCH  18  22
ENDBRANCH  16   7
ENDBRANCH  10  16
BRANCH  11  17
ATOM     17  C   UNL     1      -0.732   0.797  23.916  0.00  0.00    +0.124 C 
BRANCH  17   8
ATOM      8  N   UNL     1      -0.029  -0.434  24.239  0.00  0.00    -0.188 NA
ATOM     28  H   UNL     1       0.397  -0.897  23.426  0.00  0.00    +0.148 HD
BRANCH   8   1
ATOM      1  S   UNL     1      -0.616  -1.483  25.458  0.00  0.00    +0.065 S 
ATOM      4  O   UNL     1      -0.862  -0.714  26.663  0.00  0.00    -0.153 OA
ATOM      5  O   UNL     1       0.206  -2.677  25.511  0.00  0.00    -0.153 OA
BRANCH   1  23
ATOM      2  S   UNL     1      -3.500  -0.991  25.282  0.00  0.00    -0.077 S 
ATOM     23  C   UNL     1      -2.180  -1.962  24.787  0.00  0.00    +0.142 A 
ATOM     25  C   UNL     1      -2.571  -2.969  23.933  0.00  0.00    +0.036 A 
ATOM     26  C   UNL     1      -3.973  -2.943  23.682  0.00  0.00    +0.010 A 
ATOM     27  C   UNL     1      -4.600  -1.918  24.354  0.00  0.00    +0.047 A 
ENDBRANCH   1  23
ENDBRANCH   8   1
ENDBRANCH  17   8
ENDBRANCH  11  17
TORSDOF 8
ENDMDL
