MODEL 1
REMARK VINA RESULT:      -3.8      0.000      0.000
REMARK  Name = 51137004
REMARK  3 active torsions:
REMARK  status: ('A' for Active; 'I' for Inactive)
REMARK    1  A    between atoms: C_6  and  C_10
REMARK    2  A    between atoms: C_11  and  C_14
REMARK    3  A    between atoms: C_17  and  C_21
REMARK                            x       y       z     vdW  Elec       q    Type
REMARK                         _______ _______ _______ _____ _____    ______ ____
ROOT
ATOM      1  O   UNL     1      -4.799  -7.697  10.372  0.00  0.00    -0.270 OA
ATOM      2  N   UNL     1      -6.218  -9.463  10.881  0.00  0.00    -0.297 N 
ATOM      6  C   UNL     1      -8.060 -10.781  11.613  0.00  0.00    +0.074 C 
ATOM      7  C   UNL     1      -8.475  -9.951  10.389  0.00  0.00    +0.032 C 
ATOM      8  C   UNL     1      -6.528 -10.744  11.519  0.00  0.00    +0.119 C 
ATOM      9  C   UNL     1      -7.414  -8.861  10.310  0.00  0.00    +0.109 C 
ATOM     11  C   UNL     1      -4.997  -8.809  10.858  0.00  0.00    +0.247 C 
ENDROOT
BRANCH   6  10
ATOM      3  N   UNL     1      -8.342 -10.754  14.114  0.00  0.00    -0.342 N 
ATOM      4  N   UNL     1      -9.551  -9.265  12.992  0.00  0.00    -0.232 NA
ATOM     10  C   UNL     1      -8.674 -10.239  12.892  0.00  0.00    +0.113 A 
ATOM     12  C   UNL     1      -9.051 -10.068  15.066  0.00  0.00    +0.066 A 
ATOM     13  C   UNL     1      -9.798  -9.145  14.340  0.00  0.00    +0.089 A 
ATOM     15  C   UNL     1      -9.101 -10.172  16.456  0.00  0.00    +0.031 A 
ATOM     16  C   UNL     1     -10.652  -8.265  15.027  0.00  0.00    +0.030 A 
ATOM     17  C   UNL     1      -9.956  -9.290  17.123  0.00  0.00    -0.048 A 
ATOM     18  C   UNL     1     -10.719  -8.351  16.424  0.00  0.00    +0.005 A 
ATOM     21  C   UNL     1     -10.054  -9.351  18.613  0.00  0.00    +0.044 C 
ATOM     24  H   UNL     1      -7.689 -11.509  14.287  0.00  0.00    +0.167 HD
ENDBRANCH   6  10
BRANCH  11  14
ATOM      5  N   UNL     1      -1.667 -10.781  12.652  0.00  0.00    -0.263 NA
ATOM     14  C   UNL     1      -3.849  -9.490  11.475  0.00  0.00    +0.040 A 
ATOM     19  C   UNL     1      -3.998 -10.142  12.695  0.00  0.00    +0.033 A 
ATOM     20  C   UNL     1      -2.611  -9.483  10.844  0.00  0.00    +0.033 A 
ATOM     22  C   UNL     1      -2.886 -10.767  13.236  0.00  0.00    +0.111 A 
ATOM     23  C   UNL     1      -1.560 -10.138  11.468  0.00  0.00    +0.111 A 
ENDBRANCH  11  14
TORSDOF 2
ENDMDL
MODEL 2
REMARK VINA RESULT:      -1.3     15.609     16.980
REMARK  Name = 51137004
REMARK  3 active torsions:
REMARK  status: ('A' for Active; 'I' for Inactive)
REMARK    1  A    between atoms: C_6  and  C_10
REMARK    2  A    between atoms: C_11  and  C_14
REMARK    3  A    between atoms: C_17  and  C_21
REMARK                            x       y       z     vdW  Elec       q    Type
REMARK                         _______ _______ _______ _____ _____    ______ ____
ROOT
ATOM      1  O   UNL     1       1.393  -0.650  21.063  0.00  0.00    -0.270 OA
ATOM      2  N   UNL     1       0.544  -0.927  23.207  0.00  0.00    -0.297 N 
ATOM      6  C   UNL     1      -0.833  -0.872  25.147  0.00  0.00    +0.074 C 
ATOM      7  C   UNL     1      -1.491  -1.751  24.073  0.00  0.00    +0.032 C 
ATOM      8  C   UNL     1       0.624  -0.816  24.664  0.00  0.00    +0.119 C 
ATOM      9  C   UNL     1      -0.784  -1.346  22.786  0.00  0.00    +0.109 C 
ATOM     11  C   UNL     1       1.529  -0.611  22.285  0.00  0.00    +0.247 C 
ENDROOT
BRANCH   6  10
ATOM      3  N   UNL     1      -2.897   0.567  25.100  0.00  0.00    -0.342 N 
ATOM      4  N   UNL     1      -1.006   1.611  25.622  0.00  0.00    -0.232 NA
ATOM     10  C   UNL     1      -1.549   0.459  25.299  0.00  0.00    +0.113 A 
ATOM     12  C   UNL     1      -3.249   1.875  25.308  0.00  0.00    +0.066 A 
ATOM     13  C   UNL     1      -2.051   2.507  25.632  0.00  0.00    +0.089 A 
ATOM     15  C   UNL     1      -4.472   2.541  25.242  0.00  0.00    +0.031 A 
ATOM     16  C   UNL     1      -2.057   3.884  25.910  0.00  0.00    +0.030 A 
ATOM     17  C   UNL     1      -4.461   3.911  25.521  0.00  0.00    -0.048 A 
ATOM     18  C   UNL     1      -3.275   4.574  25.850  0.00  0.00    +0.005 A 
ATOM     21  C   UNL     1      -5.740   4.680  25.468  0.00  0.00    +0.044 C 
ATOM     24  H   UNL     1      -3.526  -0.185  24.844  0.00  0.00    +0.167 HD
ENDBRANCH   6  10
BRANCH  11  14
ATOM      5  N   UNL     1       5.321   0.635  23.790  0.00  0.00    -0.263 NA
ATOM     14  C   UNL     1       2.836  -0.181  22.806  0.00  0.00    +0.040 A 
ATOM     19  C   UNL     1       3.249   1.138  22.651  0.00  0.00    +0.033 A 
ATOM     20  C   UNL     1       3.663  -1.092  23.452  0.00  0.00    +0.033 A 
ATOM     22  C   UNL     1       4.489   1.492  23.157  0.00  0.00    +0.111 A 
ATOM     23  C   UNL     1       4.886  -0.637  23.922  0.00  0.00    +0.111 A 
ENDBRANCH  11  14
TORSDOF 2
ENDMDL
MODEL 3
REMARK VINA RESULT:      -0.4      1.010      1.451
REMARK  Name = 51137004
REMARK  3 active torsions:
REMARK  status: ('A' for Active; 'I' for Inactive)
REMARK    1  A    between atoms: C_6  and  C_10
REMARK    2  A    between atoms: C_11  and  C_14
REMARK    3  A    between atoms: C_17  and  C_21
REMARK                            x       y       z     vdW  Elec       q    Type
REMARK                         _______ _______ _______ _____ _____    ______ ____
ROOT
ATOM      1  O   UNL     1      -4.397  -7.311  10.341  0.00  0.00    -0.270 OA
ATOM      2  N   UNL     1      -5.758  -9.191  10.400  0.00  0.00    -0.297 N 
ATOM      6  C   UNL     1      -7.550 -10.708  10.791  0.00  0.00    +0.074 C 
ATOM      7  C   UNL     1      -8.008  -9.609   9.819  0.00  0.00    +0.032 C 
ATOM      8  C   UNL     1      -6.022 -10.601  10.696  0.00  0.00    +0.119 C 
ATOM      9  C   UNL     1      -6.979  -8.502  10.009  0.00  0.00    +0.109 C 
ATOM     11  C   UNL     1      -4.556  -8.515  10.532  0.00  0.00    +0.247 C 
ENDROOT
BRANCH   6  10
ATOM      3  N   UNL     1      -7.437 -10.772  13.305  0.00  0.00    -0.342 N 
ATOM      4  N   UNL     1      -9.383 -10.131  12.444  0.00  0.00    -0.232 NA
ATOM     10  C   UNL     1      -8.159 -10.525  12.171  0.00  0.00    +0.113 A 
ATOM     12  C   UNL     1      -8.247 -10.521  14.381  0.00  0.00    +0.066 A 
ATOM     13  C   UNL     1      -9.456 -10.122  13.818  0.00  0.00    +0.089 A 
ATOM     15  C   UNL     1      -8.034 -10.605  15.757  0.00  0.00    +0.031 A 
ATOM     16  C   UNL     1     -10.527  -9.784  14.663  0.00  0.00    +0.030 A 
ATOM     17  C   UNL     1      -9.109 -10.265  16.584  0.00  0.00    -0.048 A 
ATOM     18  C   UNL     1     -10.335  -9.861  16.049  0.00  0.00    +0.005 A 
ATOM     21  C   UNL     1      -8.943 -10.334  18.067  0.00  0.00    +0.044 C 
ATOM     24  H   UNL     1      -6.475 -11.086  13.344  0.00  0.00    +0.167 HD
ENDBRANCH   6  10
BRANCH  11  14
ATOM      5  N   UNL     1      -1.146 -10.779  11.733  0.00  0.00    -0.263 NA
ATOM     14  C   UNL     1      -3.380  -9.294  10.948  0.00  0.00    +0.040 A 
ATOM     19  C   UNL     1      -2.239  -9.315  10.152  0.00  0.00    +0.033 A 
ATOM     20  C   UNL     1      -3.404 -10.016  12.136  0.00  0.00    +0.033 A 
ATOM     22  C   UNL     1      -1.159 -10.065  10.586  0.00  0.00    +0.111 A 
ATOM     23  C   UNL     1      -2.271 -10.736  12.481  0.00  0.00    +0.111 A 
ENDBRANCH  11  14
TORSDOF 2
ENDMDL
