MODEL 1
REMARK VINA RESULT:      16.7      0.000      0.000
REMARK  Name = 75536034
REMARK  14 active torsions:
REMARK  status: ('A' for Active; 'I' for Inactive)
REMARK    1  A    between atoms: O_4  and  C_28
REMARK    2  A    between atoms: O_4  and  C_40
REMARK    3  A    between atoms: O_6  and  C_39
REMARK    4  A    between atoms: O_6  and  C_43
REMARK    5  A    between atoms: N_8  and  C_12
REMARK    6  A    between atoms: N_10  and  C_25
REMARK    7  A    between atoms: N_11  and  C_34
REMARK    8  A    between atoms: N_11  and  C_41
REMARK    9  A    between atoms: N_11  and  C_42
REMARK   10  A    between atoms: C_18  and  C_23
REMARK   11  A    between atoms: C_24  and  C_26
REMARK   12  A    between atoms: C_25  and  C_27
REMARK   13  A    between atoms: C_25  and  C_28
REMARK   14  A    between atoms: C_27  and  C_31
REMARK                            x       y       z     vdW  Elec       q    Type
REMARK                         _______ _______ _______ _____ _____    ______ ____
ROOT
ATOM      1  O   UNL     1      -0.516  -2.239  25.948  0.00  0.00    -0.253 OA
ATOM      3  O   UNL     1       3.821   0.555  20.727  0.00  0.00    -0.270 OA
ATOM      7  N   UNL     1       0.457  -1.032  24.216  0.00  0.00    -0.271 N 
ATOM      8  N   UNL     1      -1.824  -0.757  24.777  0.00  0.00    -0.296 N 
ATOM      9  N   UNL     1       2.808  -0.297  22.654  0.00  0.00    -0.294 N 
ATOM     18  C   UNL     1       0.343  -0.172  23.028  0.00  0.00    +0.181 C 
ATOM     19  C   UNL     1       1.484  -0.376  22.032  0.00  0.00    +0.140 C 
ATOM     20  C   UNL     1       1.758  -1.668  24.441  0.00  0.00    +0.129 C 
ATOM     21  C   UNL     1       2.920  -0.770  24.038  0.00  0.00    +0.127 C 
ATOM     22  C   UNL     1      -0.623  -1.404  25.045  0.00  0.00    +0.303 C 
ATOM     24  C   UNL     1       3.890   0.155  21.888  0.00  0.00    +0.247 C 
ATOM     44  H   UNL     1      -1.848   0.008  24.113  0.00  0.00    +0.151 HD
ENDROOT
BRANCH   8  12
ATOM     12  C   UNL     1      -3.025  -1.021  25.538  0.00  0.00    +0.074 C 
ATOM     13  C   UNL     1      -3.187  -2.521  25.808  0.00  0.00    +0.022 C 
ATOM     14  C   UNL     1      -4.260  -0.446  24.836  0.00  0.00    +0.022 C 
ATOM     15  C   UNL     1      -3.568  -3.303  24.551  0.00  0.00    +0.002 C 
ATOM     16  C   UNL     1      -4.638  -1.232  23.582  0.00  0.00    +0.002 C 
ATOM     17  C   UNL     1      -4.805  -2.719  23.876  0.00  0.00    +0.000 C 
ENDBRANCH   8  12
BRANCH  24  26
ATOM     26  C   UNL     1       5.223   0.158  22.511  0.00  0.00    +0.037 A 
ATOM     29  C   UNL     1       6.212  -0.708  22.045  0.00  0.00    +0.015 A 
ATOM     30  C   UNL     1       5.497   1.027  23.567  0.00  0.00    +0.015 A 
ATOM     32  C   UNL     1       7.476  -0.705  22.635  0.00  0.00    +0.024 A 
ATOM     33  C   UNL     1       6.761   1.030  24.157  0.00  0.00    +0.024 A 
ATOM     34  C   UNL     1       7.751   0.165  23.691  0.00  0.00    +0.029 A 
BRANCH  34  11
ATOM     11  N   UNL     1       9.029   0.167  24.287  0.00  0.00    -0.336 N 
ATOM     41  C   UNL     1       9.391  -0.856  25.248  0.00  0.00    +0.129 C 
ATOM     42  C   UNL     1       9.999   1.186  23.940  0.00  0.00    +0.129 C 
ENDBRANCH  34  11
ENDBRANCH  24  26
BRANCH  18  23
ATOM      2  O   UNL     1       1.297   1.771  24.042  0.00  0.00    -0.274 OA
ATOM     10  N   UNL     1      -0.895   1.868  23.264  0.00  0.00    -0.301 N 
ATOM     23  C   UNL     1       0.324   1.255  23.499  0.00  0.00    +0.236 C 
ATOM     45  H   UNL     1      -1.628   1.349  22.789  0.00  0.00    +0.150 HD
BRANCH  10  25
ATOM     25  C   UNL     1      -1.179   3.234  23.643  0.00  0.00    +0.186 C 
BRANCH  25  28
ATOM      5  O   UNL     1      -0.708   4.589  25.587  0.00  0.00    -0.249 OA
ATOM     28  C   UNL     1      -0.964   3.480  25.130  0.00  0.00    +0.328 C 
BRANCH  28   4
ATOM      4  O   UNL     1      -1.074   2.335  25.862  0.00  0.00    -0.467 OA
ATOM     40  C   UNL     1      -0.127   2.182  26.923  0.00  0.00    +0.280 C 
ENDBRANCH  28   4
ENDBRANCH  25  28
BRANCH  25  27
ATOM     27  C   UNL     1      -2.584   3.657  23.187  0.00  0.00    +0.069 C 
BRANCH  27  31
ATOM     31  C   UNL     1      -3.687   3.362  24.178  0.00  0.00    -0.045 A 
ATOM     35  C   UNL     1      -3.808   4.129  25.336  0.00  0.00    +0.007 A 
ATOM     36  C   UNL     1      -4.582   2.321  23.935  0.00  0.00    +0.007 A 
ATOM     37  C   UNL     1      -4.826   3.857  26.250  0.00  0.00    +0.046 A 
ATOM     38  C   UNL     1      -5.600   2.048  24.849  0.00  0.00    +0.046 A 
ATOM     39  C   UNL     1      -5.721   2.816  26.007  0.00  0.00    +0.120 A 
BRANCH  39   6
ATOM      6  O   UNL     1      -6.714   2.549  26.899  0.00  0.00    -0.495 OA
ATOM     43  C   UNL     1      -6.848   1.197  27.336  0.00  0.00    +0.277 C 
ENDBRANCH  39   6
ENDBRANCH  27  31
ENDBRANCH  25  27
ENDBRANCH  10  25
ENDBRANCH  18  23
TORSDOF 10
ENDMDL
MODEL 2
REMARK VINA RESULT:      17.4      2.144      4.431
REMARK  Name = 75536034
REMARK  14 active torsions:
REMARK  status: ('A' for Active; 'I' for Inactive)
REMARK    1  A    between atoms: O_4  and  C_28
REMARK    2  A    between atoms: O_4  and  C_40
REMARK    3  A    between atoms: O_6  and  C_39
REMARK    4  A    between atoms: O_6  and  C_43
REMARK    5  A    between atoms: N_8  and  C_12
REMARK    6  A    between atoms: N_10  and  C_25
REMARK    7  A    between atoms: N_11  and  C_34
REMARK    8  A    between atoms: N_11  and  C_41
REMARK    9  A    between atoms: N_11  and  C_42
REMARK   10  A    between atoms: C_18  and  C_23
REMARK   11  A    between atoms: C_24  and  C_26
REMARK   12  A    between atoms: C_25  and  C_27
REMARK   13  A    between atoms: C_25  and  C_28
REMARK   14  A    between atoms: C_27  and  C_31
REMARK                            x       y       z     vdW  Elec       q    Type
REMARK                         _______ _______ _______ _____ _____    ______ ____
ROOT
ATOM      1  O   UNL     1      -3.061  -1.250  26.280  0.00  0.00    -0.253 OA
ATOM      3  O   UNL     1       1.690   0.292  20.903  0.00  0.00    -0.270 OA
ATOM      7  N   UNL     1      -1.887  -0.373  24.476  0.00  0.00    -0.271 N 
ATOM      8  N   UNL     1      -4.064   0.382  25.010  0.00  0.00    -0.296 N 
ATOM      9  N   UNL     1       0.548  -0.218  22.877  0.00  0.00    -0.294 N 
ATOM     18  C   UNL     1      -1.841   0.415  23.234  0.00  0.00    +0.181 C 
ATOM     19  C   UNL     1      -0.772  -0.074  22.257  0.00  0.00    +0.140 C 
ATOM     20  C   UNL     1      -0.735  -1.236  24.747  0.00  0.00    +0.129 C 
ATOM     21  C   UNL     1       0.577  -0.613  24.290  0.00  0.00    +0.127 C 
ATOM     22  C   UNL     1      -3.011  -0.470  25.324  0.00  0.00    +0.303 C 
ATOM     24  C   UNL     1       1.689  -0.038  22.088  0.00  0.00    +0.247 C 
ATOM     44  H   UNL     1      -3.944   1.092  24.298  0.00  0.00    +0.151 HD
ENDROOT
BRANCH   8  12
ATOM     12  C   UNL     1      -5.286   0.409  25.783  0.00  0.00    +0.074 C 
ATOM     13  C   UNL     1      -6.493   0.728  24.895  0.00  0.00    +0.022 C 
ATOM     14  C   UNL     1      -5.178   1.398  26.949  0.00  0.00    +0.022 C 
ATOM     15  C   UNL     1      -6.512   2.186  24.435  0.00  0.00    +0.002 C 
ATOM     16  C   UNL     1      -5.199   2.854  26.486  0.00  0.00    +0.002 C 
ATOM     17  C   UNL     1      -6.415   3.150  25.612  0.00  0.00    +0.000 C 
ENDBRANCH   8  12
BRANCH  24  26
ATOM     26  C   UNL     1       3.003  -0.257  22.713  0.00  0.00    +0.037 A 
ATOM     29  C   UNL     1       3.970   0.748  22.674  0.00  0.00    +0.015 A 
ATOM     30  C   UNL     1       3.282  -1.469  23.344  0.00  0.00    +0.015 A 
ATOM     32  C   UNL     1       5.216   0.541  23.267  0.00  0.00    +0.024 A 
ATOM     33  C   UNL     1       4.527  -1.677  23.937  0.00  0.00    +0.024 A 
ATOM     34  C   UNL     1       5.494  -0.672  23.899  0.00  0.00    +0.029 A 
BRANCH  34  11
ATOM     11  N   UNL     1       6.753  -0.880  24.498  0.00  0.00    -0.336 N 
ATOM     41  C   UNL     1       7.955  -0.353  23.881  0.00  0.00    +0.129 C 
ATOM     42  C   UNL     1       6.863  -1.617  25.741  0.00  0.00    +0.129 C 
ENDBRANCH  34  11
ENDBRANCH  24  26
BRANCH  18  23
ATOM      2  O   UNL     1      -1.413   2.719  22.763  0.00  0.00    -0.274 OA
ATOM     10  N   UNL     1      -1.520   2.024  24.983  0.00  0.00    -0.301 N 
ATOM     23  C   UNL     1      -1.575   1.845  23.611  0.00  0.00    +0.236 C 
ATOM     45  H   UNL     1      -1.688   1.230  25.594  0.00  0.00    +0.150 HD
BRANCH  10  25
ATOM     25  C   UNL     1      -1.254   3.302  25.603  0.00  0.00    +0.186 C 
BRANCH  25  28
ATOM      5  O   UNL     1      -1.227   5.386  24.380  0.00  0.00    -0.249 OA
ATOM     28  C   UNL     1      -1.885   4.459  24.841  0.00  0.00    +0.328 C 
BRANCH  28   4
ATOM      4  O   UNL     1      -3.241   4.340  24.756  0.00  0.00    -0.467 OA
ATOM     40  C   UNL     1      -3.809   4.613  23.471  0.00  0.00    +0.280 C 
ENDBRANCH  28   4
ENDBRANCH  25  28
BRANCH  25  27
ATOM     27  C   UNL     1       0.251   3.512  25.825  0.00  0.00    +0.069 C 
BRANCH  27  31
ATOM     31  C   UNL     1       0.757   3.077  27.182  0.00  0.00    -0.045 A 
ATOM     35  C   UNL     1       2.119   3.139  27.472  0.00  0.00    +0.007 A 
ATOM     36  C   UNL     1      -0.140   2.614  28.145  0.00  0.00    +0.007 A 
ATOM     37  C   UNL     1       2.587   2.738  28.723  0.00  0.00    +0.046 A 
ATOM     38  C   UNL     1       0.327   2.213  29.397  0.00  0.00    +0.046 A 
ATOM     39  C   UNL     1       1.690   2.275  29.686  0.00  0.00    +0.120 A 
BRANCH  39   6
ATOM      6  O   UNL     1       2.145   1.883  30.908  0.00  0.00    -0.495 OA
ATOM     43  C   UNL     1       1.203   1.876  31.980  0.00  0.00    +0.277 C 
ENDBRANCH  39   6
ENDBRANCH  27  31
ENDBRANCH  25  27
ENDBRANCH  10  25
ENDBRANCH  18  23
TORSDOF 10
ENDMDL
MODEL 3
REMARK VINA RESULT:      19.0      2.103      8.275
REMARK  Name = 75536034
REMARK  14 active torsions:
REMARK  status: ('A' for Active; 'I' for Inactive)
REMARK    1  A    between atoms: O_4  and  C_28
REMARK    2  A    between atoms: O_4  and  C_40
REMARK    3  A    between atoms: O_6  and  C_39
REMARK    4  A    between atoms: O_6  and  C_43
REMARK    5  A    between atoms: N_8  and  C_12
REMARK    6  A    between atoms: N_10  and  C_25
REMARK    7  A    between atoms: N_11  and  C_34
REMARK    8  A    between atoms: N_11  and  C_41
REMARK    9  A    between atoms: N_11  and  C_42
REMARK   10  A    between atoms: C_18  and  C_23
REMARK   11  A    between atoms: C_24  and  C_26
REMARK   12  A    between atoms: C_25  and  C_27
REMARK   13  A    between atoms: C_25  and  C_28
REMARK   14  A    between atoms: C_27  and  C_31
REMARK                            x       y       z     vdW  Elec       q    Type
REMARK                         _______ _______ _______ _____ _____    ______ ____
ROOT
ATOM      1  O   UNL     1       3.206   2.569  22.828  0.00  0.00    -0.253 OA
ATOM      3  O   UNL     1      -3.502  -0.355  22.257  0.00  0.00    -0.270 OA
ATOM      7  N   UNL     1       1.335   1.194  22.718  0.00  0.00    -0.271 N 
ATOM      8  N   UNL     1       3.522   0.295  22.736  0.00  0.00    -0.296 N 
ATOM      9  N   UNL     1      -1.563   0.860  22.733  0.00  0.00    -0.294 N 
ATOM     18  C   UNL     1       0.720  -0.120  22.476  0.00  0.00    +0.181 C 
ATOM     19  C   UNL     1      -0.706  -0.020  21.933  0.00  0.00    +0.140 C 
ATOM     20  C   UNL     1       0.429   2.346  22.749  0.00  0.00    +0.129 C 
ATOM     21  C   UNL     1      -0.916   2.010  23.377  0.00  0.00    +0.127 C 
ATOM     22  C   UNL     1       2.725   1.434  22.763  0.00  0.00    +0.303 C 
ATOM     24  C   UNL     1      -2.937   0.600  22.787  0.00  0.00    +0.247 C 
ATOM     44  H   UNL     1       3.096  -0.621  22.806  0.00  0.00    +0.151 HD
ENDROOT
BRANCH   8  12
ATOM     12  C   UNL     1       4.966   0.367  22.780  0.00  0.00    +0.074 C 
ATOM     13  C   UNL     1       5.593  -1.023  22.623  0.00  0.00    +0.022 C 
ATOM     14  C   UNL     1       5.444   1.050  24.066  0.00  0.00    +0.022 C 
ATOM     15  C   UNL     1       5.395  -1.896  23.863  0.00  0.00    +0.002 C 
ATOM     16  C   UNL     1       5.247   0.173  25.302  0.00  0.00    +0.002 C 
ATOM     17  C   UNL     1       5.888  -1.200  25.127  0.00  0.00    +0.000 C 
ENDBRANCH   8  12
BRANCH  24  26
ATOM     26  C   UNL     1      -3.788   1.537  23.537  0.00  0.00    +0.037 A 
ATOM     29  C   UNL     1      -3.680   2.910  23.314  0.00  0.00    +0.015 A 
ATOM     30  C   UNL     1      -4.702   1.053  24.473  0.00  0.00    +0.015 A 
ATOM     32  C   UNL     1      -4.487   3.798  24.025  0.00  0.00    +0.024 A 
ATOM     33  C   UNL     1      -5.509   1.940  25.184  0.00  0.00    +0.024 A 
ATOM     34  C   UNL     1      -5.403   3.313  24.960  0.00  0.00    +0.029 A 
BRANCH  34  11
ATOM     11  N   UNL     1      -6.217   4.211  25.679  0.00  0.00    -0.336 N 
ATOM     41  C   UNL     1      -6.968   3.759  26.834  0.00  0.00    +0.129 C 
ATOM     42  C   UNL     1      -6.310   5.601  25.277  0.00  0.00    +0.129 C 
ENDBRANCH  34  11
ENDBRANCH  24  26
BRANCH  18  23
ATOM      2  O   UNL     1       1.716  -1.468  24.180  0.00  0.00    -0.274 OA
ATOM     10  N   UNL     1      -0.506  -0.814  24.416  0.00  0.00    -0.301 N 
ATOM     23  C   UNL     1       0.721  -0.871  23.777  0.00  0.00    +0.236 C 
ATOM     45  H   UNL     1      -1.259  -0.274  23.998  0.00  0.00    +0.150 HD
BRANCH  10  25
ATOM     25  C   UNL     1      -0.774  -1.474  25.673  0.00  0.00    +0.186 C 
BRANCH  25  28
ATOM      5  O   UNL     1      -2.960  -1.879  26.623  0.00  0.00    -0.249 OA
ATOM     28  C   UNL     1      -2.162  -2.098  25.717  0.00  0.00    +0.328 C 
BRANCH  28   4
ATOM      4  O   UNL     1      -2.388  -2.923  24.654  0.00  0.00    -0.467 OA
ATOM     40  C   UNL     1      -3.739  -2.974  24.185  0.00  0.00    +0.280 C 
ENDBRANCH  28   4
ENDBRANCH  25  28
BRANCH  25  27
ATOM     27  C   UNL     1      -0.531  -0.529  26.861  0.00  0.00    +0.069 C 
BRANCH  27  31
ATOM     31  C   UNL     1      -0.756   0.936  26.560  0.00  0.00    -0.045 A 
ATOM     35  C   UNL     1       0.333   1.796  26.429  0.00  0.00    +0.007 A 
ATOM     36  C   UNL     1      -2.054   1.426  26.414  0.00  0.00    +0.007 A 
ATOM     37  C   UNL     1       0.126   3.147  26.151  0.00  0.00    +0.046 A 
ATOM     38  C   UNL     1      -2.261   2.777  26.136  0.00  0.00    +0.046 A 
ATOM     39  C   UNL     1      -1.171   3.637  26.005  0.00  0.00    +0.120 A 
BRANCH  39   6
ATOM      6  O   UNL     1      -1.375   4.956  25.735  0.00  0.00    -0.495 OA
ATOM     43  C   UNL     1      -0.734   5.488  24.576  0.00  0.00    +0.277 C 
ENDBRANCH  39   6
ENDBRANCH  27  31
ENDBRANCH  25  27
ENDBRANCH  10  25
ENDBRANCH  18  23
TORSDOF 10
ENDMDL
