MODEL 1
REMARK VINA RESULT:      -5.8      0.000      0.000
REMARK  Name = 38030151
REMARK  9 active torsions:
REMARK  status: ('A' for Active; 'I' for Inactive)
REMARK    1  A    between atoms: O_1  and  C_12
REMARK    2  A    between atoms: C_4  and  C_8
REMARK    3  A    between atoms: C_6  and  C_10
REMARK    4  A    between atoms: C_7  and  C_12
REMARK    5  A    between atoms: C_8  and  C_15
REMARK    6  A    between atoms: C_8  and  C_16
REMARK    7  A    between atoms: C_9  and  C_21
REMARK    8  A    between atoms: C_10  and  C_13
REMARK    9  A    between atoms: C_14  and  C_22
REMARK                            x       y       z     vdW  Elec       q    Type
REMARK                         _______ _______ _______ _____ _____    ______ ____
ROOT
ATOM      4  C   UNL     1      -3.406   1.935  24.965  0.00  0.00    +0.001 C 
ATOM      5  C   UNL     1      -3.091   2.749  26.230  0.00  0.00    +0.012 C 
ATOM      6  C   UNL     1      -1.748   3.497  26.120  0.00  0.00    +0.023 C 
ATOM      7  C   UNL     1      -3.460   2.862  23.725  0.00  0.00    +0.040 C 
ATOM      9  C   UNL     1      -1.615   4.223  24.797  0.00  0.00    -0.073 C 
ATOM     11  C   UNL     1      -2.397   3.935  23.742  0.00  0.00    -0.022 C 
ATOM     21  C   UNL     1      -0.590   5.321  24.728  0.00  0.00    +0.039 C 
ENDROOT
BRANCH   4   8
ATOM      8  C   UNL     1      -4.716   1.165  25.158  0.00  0.00    -0.013 C 
ATOM     15  C   UNL     1      -5.912   2.094  24.974  0.00  0.00    +0.007 C 
ATOM     16  C   UNL     1      -4.790  -0.012  24.191  0.00  0.00    +0.007 C 
ENDBRANCH   4   8
BRANCH   6  10
ATOM     10  C   UNL     1      -0.566   2.549  26.348  0.00  0.00    +0.103 C 
BRANCH  10  13
ATOM      2  O   UNL     1       0.059   2.308  24.075  0.00  0.00    -0.276 OA
ATOM      3  N   UNL     1      -0.526   0.362  25.201  0.00  0.00    -0.301 N 
ATOM     13  C   UNL     1      -0.313   1.736  25.103  0.00  0.00    +0.216 C 
ATOM     14  C   UNL     1      -1.977  -2.136  24.930  0.00  0.00    -0.011 C 
ATOM     17  C   UNL     1      -0.967  -0.347  26.408  0.00  0.00    +0.108 C 
ATOM     18  C   UNL     1      -0.264  -0.500  24.047  0.00  0.00    +0.108 C 
ATOM     19  C   UNL     1      -2.208  -1.189  26.117  0.00  0.00    +0.022 C 
ATOM     20  C   UNL     1      -1.490  -1.343  23.707  0.00  0.00    +0.022 C 
ATOM     22  C   UNL     1      -3.246  -2.918  24.602  0.00  0.00    +0.007 C 
ENDBRANCH  10  13
ENDBRANCH   6  10
BRANCH   7  12
ATOM     12  C   UNL     1      -3.350   2.054  22.426  0.00  0.00    +0.163 C 
BRANCH  12   1
ATOM      1  O   UNL     1      -1.989   2.009  22.046  0.00  0.00    -0.394 OA
ATOM     23  H   UNL     1      -1.494   1.634  22.794  0.00  0.00    +0.209 HD
ENDBRANCH  12   1
ENDBRANCH   7  12
TORSDOF 5
ENDMDL
MODEL 2
REMARK VINA RESULT:      -5.7      1.516      5.335
REMARK  Name = 38030151
REMARK  9 active torsions:
REMARK  status: ('A' for Active; 'I' for Inactive)
REMARK    1  A    between atoms: O_1  and  C_12
REMARK    2  A    between atoms: C_4  and  C_8
REMARK    3  A    between atoms: C_6  and  C_10
REMARK    4  A    between atoms: C_7  and  C_12
REMARK    5  A    between atoms: C_8  and  C_15
REMARK    6  A    between atoms: C_8  and  C_16
REMARK    7  A    between atoms: C_9  and  C_21
REMARK    8  A    between atoms: C_10  and  C_13
REMARK    9  A    between atoms: C_14  and  C_22
REMARK                            x       y       z     vdW  Elec       q    Type
REMARK                         _______ _______ _______ _____ _____    ______ ____
ROOT
ATOM      4  C   UNL     1      -1.048   0.489  25.011  0.00  0.00    +0.001 C 
ATOM      5  C   UNL     1      -1.788  -0.046  26.248  0.00  0.00    +0.012 C 
ATOM      6  C   UNL     1      -2.913  -1.029  25.872  0.00  0.00    +0.023 C 
ATOM      7  C   UNL     1      -0.430  -0.681  24.204  0.00  0.00    +0.040 C 
ATOM      9  C   UNL     1      -2.447  -2.060  24.865  0.00  0.00    -0.073 C 
ATOM     11  C   UNL     1      -1.328  -1.893  24.138  0.00  0.00    -0.022 C 
ATOM     21  C   UNL     1      -3.274  -3.309  24.743  0.00  0.00    +0.039 C 
ENDROOT
BRANCH   4   8
ATOM      8  C   UNL     1       0.013   1.506  25.442  0.00  0.00    -0.013 C 
ATOM     15  C   UNL     1       0.280   2.506  24.321  0.00  0.00    +0.007 C 
ATOM     16  C   UNL     1      -0.424   2.223  26.716  0.00  0.00    +0.007 C 
ENDBRANCH   4   8
BRANCH   6  10
ATOM     10  C   UNL     1      -4.151  -0.283  25.363  0.00  0.00    +0.103 C 
BRANCH  10  13
ATOM      2  O   UNL     1      -3.482  -0.031  23.104  0.00  0.00    -0.276 OA
ATOM      3  N   UNL     1      -3.834   1.926  24.306  0.00  0.00    -0.301 N 
ATOM     13  C   UNL     1      -3.792   0.541  24.152  0.00  0.00    +0.216 C 
ATOM     14  C   UNL     1      -2.779   4.587  24.778  0.00  0.00    -0.011 C 
ATOM     17  C   UNL     1      -4.199   2.635  25.538  0.00  0.00    +0.108 C 
ATOM     18  C   UNL     1      -3.537   2.795  23.165  0.00  0.00    +0.108 C 
ATOM     19  C   UNL     1      -3.109   3.629  25.933  0.00  0.00    +0.022 C 
ATOM     20  C   UNL     1      -2.432   3.790  23.511  0.00  0.00    +0.022 C 
ATOM     22  C   UNL     1      -1.638   5.526  25.160  0.00  0.00    +0.007 C 
ENDBRANCH  10  13
ENDBRANCH   6  10
BRANCH   7  12
ATOM     12  C   UNL     1      -0.063  -0.238  22.782  0.00  0.00    +0.163 C 
BRANCH  12   1
ATOM      1  O   UNL     1       1.345  -0.261  22.660  0.00  0.00    -0.394 OA
ATOM     23  H   UNL     1       1.568   0.169  21.817  0.00  0.00    +0.209 HD
ENDBRANCH  12   1
ENDBRANCH   7  12
TORSDOF 5
ENDMDL
MODEL 3
REMARK VINA RESULT:      -5.5      1.813      4.818
REMARK  Name = 38030151
REMARK  9 active torsions:
REMARK  status: ('A' for Active; 'I' for Inactive)
REMARK    1  A    between atoms: O_1  and  C_12
REMARK    2  A    between atoms: C_4  and  C_8
REMARK    3  A    between atoms: C_6  and  C_10
REMARK    4  A    between atoms: C_7  and  C_12
REMARK    5  A    between atoms: C_8  and  C_15
REMARK    6  A    between atoms: C_8  and  C_16
REMARK    7  A    between atoms: C_9  and  C_21
REMARK    8  A    between atoms: C_10  and  C_13
REMARK    9  A    between atoms: C_14  and  C_22
REMARK                            x       y       z     vdW  Elec       q    Type
REMARK                         _______ _______ _______ _____ _____    ______ ____
ROOT
ATOM      4  C   UNL     1      -3.474   1.264  23.864  0.00  0.00    +0.001 C 
ATOM      5  C   UNL     1      -2.902   0.231  22.880  0.00  0.00    +0.012 C 
ATOM      6  C   UNL     1      -2.432  -1.052  23.593  0.00  0.00    +0.023 C 
ATOM      7  C   UNL     1      -4.673   0.666  24.640  0.00  0.00    +0.040 C 
ATOM      9  C   UNL     1      -3.463  -1.557  24.582  0.00  0.00    -0.073 C 
ATOM     11  C   UNL     1      -4.464  -0.779  25.028  0.00  0.00    -0.022 C 
ATOM     21  C   UNL     1      -3.341  -2.992  25.012  0.00  0.00    +0.039 C 
ENDROOT
BRANCH   4   8
ATOM      8  C   UNL     1      -3.864   2.538  23.107  0.00  0.00    -0.013 C 
ATOM     15  C   UNL     1      -3.852   3.740  24.046  0.00  0.00    +0.007 C 
ATOM     16  C   UNL     1      -2.926   2.764  21.926  0.00  0.00    +0.007 C 
ENDBRANCH   4   8
BRANCH   6  10
ATOM     10  C   UNL     1      -1.075  -0.841  24.273  0.00  0.00    +0.103 C 
BRANCH  10  13
ATOM      2  O   UNL     1      -1.915  -0.411  26.447  0.00  0.00    -0.276 OA
ATOM      3  N   UNL     1      -0.621   1.262  25.485  0.00  0.00    -0.301 N 
ATOM     13  C   UNL     1      -1.245   0.016  25.503  0.00  0.00    +0.216 C 
ATOM     14  C   UNL     1      -0.418   4.136  25.138  0.00  0.00    -0.011 C 
ATOM     17  C   UNL     1       0.181   1.798  24.379  0.00  0.00    +0.108 C 
ATOM     18  C   UNL     1      -0.707   2.136  26.657  0.00  0.00    +0.108 C 
ATOM     19  C   UNL     1      -0.338   3.168  23.948  0.00  0.00    +0.022 C 
ATOM     20  C   UNL     1      -1.245   3.512  26.273  0.00  0.00    +0.022 C 
ATOM     22  C   UNL     1      -1.008   5.477  24.709  0.00  0.00    +0.007 C 
ENDBRANCH  10  13
ENDBRANCH   6  10
BRANCH   7  12
ATOM     12  C   UNL     1      -4.988   1.491  25.894  0.00  0.00    +0.163 C 
BRANCH  12   1
ATOM      1  O   UNL     1      -6.303   1.996  25.774  0.00  0.00    -0.394 OA
ATOM     23  H   UNL     1      -6.231   2.952  25.612  0.00  0.00    +0.209 HD
ENDBRANCH  12   1
ENDBRANCH   7  12
TORSDOF 5
ENDMDL
MODEL 4
REMARK VINA RESULT:      -5.4      3.000      4.234
REMARK  Name = 38030151
REMARK  9 active torsions:
REMARK  status: ('A' for Active; 'I' for Inactive)
REMARK    1  A    between atoms: O_1  and  C_12
REMARK    2  A    between atoms: C_4  and  C_8
REMARK    3  A    between atoms: C_6  and  C_10
REMARK    4  A    between atoms: C_7  and  C_12
REMARK    5  A    between atoms: C_8  and  C_15
REMARK    6  A    between atoms: C_8  and  C_16
REMARK    7  A    between atoms: C_9  and  C_21
REMARK    8  A    between atoms: C_10  and  C_13
REMARK    9  A    between atoms: C_14  and  C_22
REMARK                            x       y       z     vdW  Elec       q    Type
REMARK                         _______ _______ _______ _____ _____    ______ ____
ROOT
ATOM      4  C   UNL     1      -2.999   0.594  24.772  0.00  0.00    +0.001 C 
ATOM      5  C   UNL     1      -1.614   0.466  25.426  0.00  0.00    +0.012 C 
ATOM      6  C   UNL     1      -0.652   1.580  24.975  0.00  0.00    +0.023 C 
ATOM      7  C   UNL     1      -3.635   1.964  25.119  0.00  0.00    +0.040 C 
ATOM      9  C   UNL     1      -1.304   2.946  25.035  0.00  0.00    -0.073 C 
ATOM     11  C   UNL     1      -2.637   3.098  25.112  0.00  0.00    -0.022 C 
ATOM     21  C   UNL     1      -0.384   4.135  25.049  0.00  0.00    +0.039 C 
ENDROOT
BRANCH   4   8
ATOM      8  C   UNL     1      -3.889  -0.574  25.208  0.00  0.00    -0.013 C 
ATOM     15  C   UNL     1      -4.270  -1.431  24.006  0.00  0.00    +0.007 C 
ATOM     16  C   UNL     1      -3.184  -1.412  26.270  0.00  0.00    +0.007 C 
ENDBRANCH   4   8
BRANCH   6  10
ATOM     10  C   UNL     1      -0.096   1.298  23.574  0.00  0.00    +0.103 C 
BRANCH  10  13
ATOM      2  O   UNL     1       0.022  -1.032  23.992  0.00  0.00    -0.276 OA
ATOM      3  N   UNL     1       1.907  -0.050  23.055  0.00  0.00    -0.301 N 
ATOM     13  C   UNL     1       0.608  -0.035  23.561  0.00  0.00    +0.216 C 
ATOM     14  C   UNL     1       4.807  -0.018  23.154  0.00  0.00    -0.011 C 
ATOM     17  C   UNL     1       2.631   1.117  22.536  0.00  0.00    +0.108 C 
ATOM     18  C   UNL     1       2.643  -1.312  22.972  0.00  0.00    +0.108 C 
ATOM     19  C   UNL     1       3.979   1.273  23.238  0.00  0.00    +0.022 C 
ATOM     20  C   UNL     1       3.989  -1.207  23.684  0.00  0.00    +0.022 C 
ATOM     22  C   UNL     1       6.118   0.126  23.922  0.00  0.00    +0.007 C 
ENDBRANCH  10  13
ENDBRANCH   6  10
BRANCH   7  12
ATOM     12  C   UNL     1      -4.790   2.294  24.166  0.00  0.00    +0.163 C 
BRANCH  12   1
ATOM      1  O   UNL     1      -6.006   1.990  24.821  0.00  0.00    -0.394 OA
ATOM     23  H   UNL     1      -6.651   1.753  24.133  0.00  0.00    +0.209 HD
ENDBRANCH  12   1
ENDBRANCH   7  12
TORSDOF 5
ENDMDL
MODEL 5
REMARK VINA RESULT:      -4.7      2.613      4.608
REMARK  Name = 38030151
REMARK  9 active torsions:
REMARK  status: ('A' for Active; 'I' for Inactive)
REMARK    1  A    between atoms: O_1  and  C_12
REMARK    2  A    between atoms: C_4  and  C_8
REMARK    3  A    between atoms: C_6  and  C_10
REMARK    4  A    between atoms: C_7  and  C_12
REMARK    5  A    between atoms: C_8  and  C_15
REMARK    6  A    between atoms: C_8  and  C_16
REMARK    7  A    between atoms: C_9  and  C_21
REMARK    8  A    between atoms: C_10  and  C_13
REMARK    9  A    between atoms: C_14  and  C_22
REMARK                            x       y       z     vdW  Elec       q    Type
REMARK                         _______ _______ _______ _____ _____    ______ ____
ROOT
ATOM      4  C   UNL     1      -3.328   2.862  25.087  0.00  0.00    +0.001 C 
ATOM      5  C   UNL     1      -2.598   2.172  23.924  0.00  0.00    +0.012 C 
ATOM      6  C   UNL     1      -2.612   0.637  24.057  0.00  0.00    +0.023 C 
ATOM      7  C   UNL     1      -4.801   2.388  25.157  0.00  0.00    +0.040 C 
ATOM      9  C   UNL     1      -3.993   0.114  24.394  0.00  0.00    -0.073 C 
ATOM     11  C   UNL     1      -4.962   0.913  24.872  0.00  0.00    -0.022 C 
ATOM     21  C   UNL     1      -4.248  -1.344  24.126  0.00  0.00    +0.039 C 
ENDROOT
BRANCH   4   8
ATOM      8  C   UNL     1      -3.226   4.382  24.934  0.00  0.00    -0.013 C 
ATOM     15  C   UNL     1      -1.797   4.849  25.191  0.00  0.00    +0.007 C 
ATOM     16  C   UNL     1      -3.695   4.810  23.547  0.00  0.00    +0.007 C 
ENDBRANCH   4   8
BRANCH   6  10
ATOM     10  C   UNL     1      -1.578   0.162  25.083  0.00  0.00    +0.103 C 
BRANCH  10  13
ATOM      2  O   UNL     1      -0.782  -2.042  24.727  0.00  0.00    -0.276 OA
ATOM      3  N   UNL     1       0.312  -0.346  23.576  0.00  0.00    -0.301 N 
ATOM     13  C   UNL     1      -0.652  -0.847  24.450  0.00  0.00    +0.216 C 
ATOM     14  C   UNL     1       2.931   0.593  22.752  0.00  0.00    -0.011 C 
ATOM     17  C   UNL     1       0.491   1.068  23.226  0.00  0.00    +0.108 C 
ATOM     18  C   UNL     1       1.222  -1.265  22.892  0.00  0.00    +0.108 C 
ATOM     19  C   UNL     1       1.932   1.509  23.476  0.00  0.00    +0.022 C 
ATOM     20  C   UNL     1       2.678  -0.874  23.136  0.00  0.00    +0.022 C 
ATOM     22  C   UNL     1       4.368   0.998  23.069  0.00  0.00    +0.007 C 
ENDBRANCH  10  13
ENDBRANCH   6  10
BRANCH   7  12
ATOM     12  C   UNL     1      -5.424   2.716  26.520  0.00  0.00    +0.163 C 
BRANCH  12   1
ATOM      1  O   UNL     1      -6.589   1.930  26.676  0.00  0.00    -0.394 OA
ATOM     23  H   UNL     1      -7.312   2.396  26.223  0.00  0.00    +0.209 HD
ENDBRANCH  12   1
ENDBRANCH   7  12
TORSDOF 5
ENDMDL
MODEL 6
REMARK VINA RESULT:      -4.2      1.808      2.669
REMARK  Name = 38030151
REMARK  9 active torsions:
REMARK  status: ('A' for Active; 'I' for Inactive)
REMARK    1  A    between atoms: O_1  and  C_12
REMARK    2  A    between atoms: C_4  and  C_8
REMARK    3  A    between atoms: C_6  and  C_10
REMARK    4  A    between atoms: C_7  and  C_12
REMARK    5  A    between atoms: C_8  and  C_15
REMARK    6  A    between atoms: C_8  and  C_16
REMARK    7  A    between atoms: C_9  and  C_21
REMARK    8  A    between atoms: C_10  and  C_13
REMARK    9  A    between atoms: C_14  and  C_22
REMARK                            x       y       z     vdW  Elec       q    Type
REMARK                         _______ _______ _______ _____ _____    ______ ____
ROOT
ATOM      4  C   UNL     1      -3.604   3.100  25.531  0.00  0.00    +0.001 C 
ATOM      5  C   UNL     1      -2.410   3.828  24.895  0.00  0.00    +0.012 C 
ATOM      6  C   UNL     1      -1.461   2.860  24.162  0.00  0.00    +0.023 C 
ATOM      7  C   UNL     1      -4.414   2.344  24.448  0.00  0.00    +0.040 C 
ATOM      9  C   UNL     1      -2.218   1.897  23.271  0.00  0.00    -0.073 C 
ATOM     11  C   UNL     1      -3.539   1.688  23.405  0.00  0.00    -0.022 C 
ATOM     21  C   UNL     1      -1.428   1.210  22.192  0.00  0.00    +0.039 C 
ENDROOT
BRANCH   4   8
ATOM      8  C   UNL     1      -4.474   4.103  26.296  0.00  0.00    -0.013 C 
ATOM     15  C   UNL     1      -3.617   5.235  26.853  0.00  0.00    +0.007 C 
ATOM     16  C   UNL     1      -5.575   4.650  25.393  0.00  0.00    +0.007 C 
ENDBRANCH   4   8
BRANCH   6  10
ATOM     10  C   UNL     1      -0.567   2.106  25.153  0.00  0.00    +0.103 C 
BRANCH  10  13
ATOM      2  O   UNL     1       0.767   0.785  23.707  0.00  0.00    -0.276 OA
ATOM      3  N   UNL     1      -0.790  -0.349  25.006  0.00  0.00    -0.301 N 
ATOM     13  C   UNL     1      -0.130   0.793  24.554  0.00  0.00    +0.216 C 
ATOM     14  C   UNL     1      -2.741  -2.496  24.952  0.00  0.00    -0.011 C 
ATOM     17  C   UNL     1      -1.860  -0.373  26.010  0.00  0.00    +0.108 C 
ATOM     18  C   UNL     1      -0.396  -1.665  24.501  0.00  0.00    +0.108 C 
ATOM     19  C   UNL     1      -3.094  -1.094  25.469  0.00  0.00    +0.022 C 
ATOM     20  C   UNL     1      -1.598  -2.412  23.927  0.00  0.00    +0.022 C 
ATOM     22  C   UNL     1      -3.965  -3.177  24.347  0.00  0.00    +0.007 C 
ENDBRANCH  10  13
ENDBRANCH   6  10
BRANCH   7  12
ATOM     12  C   UNL     1      -5.332   1.290  25.080  0.00  0.00    +0.163 C 
BRANCH  12   1
ATOM      1  O   UNL     1      -6.672   1.706  24.903  0.00  0.00    -0.394 OA
ATOM     23  H   UNL     1      -7.035   1.888  25.787  0.00  0.00    +0.209 HD
ENDBRANCH  12   1
ENDBRANCH   7  12
TORSDOF 5
ENDMDL
MODEL 7
REMARK VINA RESULT:      -4.2      2.061      5.655
REMARK  Name = 38030151
REMARK  9 active torsions:
REMARK  status: ('A' for Active; 'I' for Inactive)
REMARK    1  A    between atoms: O_1  and  C_12
REMARK    2  A    between atoms: C_4  and  C_8
REMARK    3  A    between atoms: C_6  and  C_10
REMARK    4  A    between atoms: C_7  and  C_12
REMARK    5  A    between atoms: C_8  and  C_15
REMARK    6  A    between atoms: C_8  and  C_16
REMARK    7  A    between atoms: C_9  and  C_21
REMARK    8  A    between atoms: C_10  and  C_13
REMARK    9  A    between atoms: C_14  and  C_22
REMARK                            x       y       z     vdW  Elec       q    Type
REMARK                         _______ _______ _______ _____ _____    ______ ____
ROOT
ATOM      4  C   UNL     1      -0.305   1.204  24.380  0.00  0.00    +0.001 C 
ATOM      5  C   UNL     1      -1.361   0.707  25.379  0.00  0.00    +0.012 C 
ATOM      6  C   UNL     1      -2.108  -0.539  24.865  0.00  0.00    +0.023 C 
ATOM      7  C   UNL     1       0.734   0.092  24.094  0.00  0.00    +0.040 C 
ATOM      9  C   UNL     1      -1.154  -1.579  24.315  0.00  0.00    -0.073 C 
ATOM     11  C   UNL     1       0.116  -1.282  23.988  0.00  0.00    -0.022 C 
ATOM     21  C   UNL     1      -1.681  -2.982  24.190  0.00  0.00    +0.039 C 
ENDROOT
BRANCH   4   8
ATOM      8  C   UNL     1       0.356   2.478  24.916  0.00  0.00    -0.013 C 
ATOM     15  C   UNL     1      -0.268   3.713  24.275  0.00  0.00    +0.007 C 
ATOM     16  C   UNL     1       0.240   2.538  26.436  0.00  0.00    +0.007 C 
ENDBRANCH   4   8
BRANCH   6  10
ATOM     10  C   UNL     1      -3.166  -0.159  23.824  0.00  0.00    +0.103 C 
BRANCH  10  13
ATOM      2  O   UNL     1      -5.367  -0.843  24.378  0.00  0.00    -0.276 OA
ATOM      3  N   UNL     1      -4.676   1.208  25.222  0.00  0.00    -0.301 N 
ATOM     13  C   UNL     1      -4.503   0.030  24.497  0.00  0.00    +0.216 C 
ATOM     14  C   UNL     1      -5.542   3.934  25.708  0.00  0.00    -0.011 C 
ATOM     17  C   UNL     1      -3.669   2.264  25.382  0.00  0.00    +0.108 C 
ATOM     18  C   UNL     1      -5.931   1.447  25.935  0.00  0.00    +0.108 C 
ATOM     19  C   UNL     1      -4.236   3.620  24.964  0.00  0.00    +0.022 C 
ATOM     20  C   UNL     1      -6.545   2.784  25.528  0.00  0.00    +0.022 C 
ATOM     22  C   UNL     1      -6.137   5.256  25.228  0.00  0.00    +0.007 C 
ENDBRANCH  10  13
ENDBRANCH   6  10
BRANCH   7  12
ATOM     12  C   UNL     1       1.530   0.394  22.818  0.00  0.00    +0.163 C 
BRANCH  12   1
ATOM      1  O   UNL     1       2.696   1.106  23.181  0.00  0.00    -0.394 OA
ATOM     23  H   UNL     1       3.457   0.601  22.848  0.00  0.00    +0.209 HD
ENDBRANCH  12   1
ENDBRANCH   7  12
TORSDOF 5
ENDMDL
MODEL 8
REMARK VINA RESULT:      -3.9      1.914      4.647
REMARK  Name = 38030151
REMARK  9 active torsions:
REMARK  status: ('A' for Active; 'I' for Inactive)
REMARK    1  A    between atoms: O_1  and  C_12
REMARK    2  A    between atoms: C_4  and  C_8
REMARK    3  A    between atoms: C_6  and  C_10
REMARK    4  A    between atoms: C_7  and  C_12
REMARK    5  A    between atoms: C_8  and  C_15
REMARK    6  A    between atoms: C_8  and  C_16
REMARK    7  A    between atoms: C_9  and  C_21
REMARK    8  A    between atoms: C_10  and  C_13
REMARK    9  A    between atoms: C_14  and  C_22
REMARK                            x       y       z     vdW  Elec       q    Type
REMARK                         _______ _______ _______ _____ _____    ______ ____
ROOT
ATOM      4  C   UNL     1      -2.026   0.162  24.787  0.00  0.00    +0.001 C 
ATOM      5  C   UNL     1      -1.907   1.025  23.521  0.00  0.00    +0.012 C 
ATOM      6  C   UNL     1      -0.442   1.368  23.186  0.00  0.00    +0.023 C 
ATOM      7  C   UNL     1      -1.239  -1.161  24.615  0.00  0.00    +0.040 C 
ATOM      9  C   UNL     1       0.452   0.148  23.260  0.00  0.00    -0.073 C 
ATOM     11  C   UNL     1       0.075  -0.977  23.891  0.00  0.00    -0.022 C 
ATOM     21  C   UNL     1       1.776   0.236  22.552  0.00  0.00    +0.039 C 
ENDROOT
BRANCH   4   8
ATOM      8  C   UNL     1      -3.503  -0.091  25.103  0.00  0.00    -0.013 C 
ATOM     15  C   UNL     1      -4.388   0.881  24.330  0.00  0.00    +0.007 C 
ATOM     16  C   UNL     1      -3.876  -1.535  24.783  0.00  0.00    +0.007 C 
ENDBRANCH   4   8
BRANCH   6  10
ATOM     10  C   UNL     1       0.083   2.490  24.089  0.00  0.00    +0.103 C 
BRANCH  10  13
ATOM      2  O   UNL     1      -0.336   1.692  26.281  0.00  0.00    -0.276 OA
ATOM      3  N   UNL     1      -1.707   3.407  25.522  0.00  0.00    -0.301 N 
ATOM     13  C   UNL     1      -0.666   2.488  25.398  0.00  0.00    +0.216 C 
ATOM     14  C   UNL     1      -4.453   4.343  25.481  0.00  0.00    -0.011 C 
ATOM     17  C   UNL     1      -2.124   4.366  24.492  0.00  0.00    +0.108 C 
ATOM     18  C   UNL     1      -2.456   3.493  26.777  0.00  0.00    +0.108 C 
ATOM     19  C   UNL     1      -3.617   4.229  24.198  0.00  0.00    +0.022 C 
ATOM     20  C   UNL     1      -3.955   3.337  26.530  0.00  0.00    +0.022 C 
ATOM     22  C   UNL     1      -5.936   4.131  25.185  0.00  0.00    +0.007 C 
ENDBRANCH  10  13
ENDBRANCH   6  10
BRANCH   7  12
ATOM     12  C   UNL     1      -0.986  -1.834  25.969  0.00  0.00    +0.163 C 
BRANCH  12   1
ATOM      1  O   UNL     1      -0.958  -0.830  26.965  0.00  0.00    -0.394 OA
ATOM     23  H   UNL     1      -0.788  -1.272  27.814  0.00  0.00    +0.209 HD
ENDBRANCH  12   1
ENDBRANCH   7  12
TORSDOF 5
ENDMDL
MODEL 9
REMARK VINA RESULT:      -3.4      1.701      2.737
REMARK  Name = 38030151
REMARK  9 active torsions:
REMARK  status: ('A' for Active; 'I' for Inactive)
REMARK    1  A    between atoms: O_1  and  C_12
REMARK    2  A    between atoms: C_4  and  C_8
REMARK    3  A    between atoms: C_6  and  C_10
REMARK    4  A    between atoms: C_7  and  C_12
REMARK    5  A    between atoms: C_8  and  C_15
REMARK    6  A    between atoms: C_8  and  C_16
REMARK    7  A    between atoms: C_9  and  C_21
REMARK    8  A    between atoms: C_10  and  C_13
REMARK    9  A    between atoms: C_14  and  C_22
REMARK                            x       y       z     vdW  Elec       q    Type
REMARK                         _______ _______ _______ _____ _____    ______ ____
ROOT
ATOM      4  C   UNL     1      -3.009   3.247  24.745  0.00  0.00    +0.001 C 
ATOM      5  C   UNL     1      -2.758   1.843  25.317  0.00  0.00    +0.012 C 
ATOM      6  C   UNL     1      -1.259   1.561  25.531  0.00  0.00    +0.023 C 
ATOM      7  C   UNL     1      -2.436   4.328  25.696  0.00  0.00    +0.040 C 
ATOM      9  C   UNL     1      -0.564   2.710  26.231  0.00  0.00    -0.073 C 
ATOM     11  C   UNL     1      -1.111   3.936  26.306  0.00  0.00    -0.022 C 
ATOM     21  C   UNL     1       0.756   2.407  26.883  0.00  0.00    +0.039 C 
ENDROOT
BRANCH   4   8
ATOM      8  C   UNL     1      -4.507   3.445  24.495  0.00  0.00    -0.013 C 
ATOM     15  C   UNL     1      -5.182   2.106  24.216  0.00  0.00    +0.007 C 
ATOM     16  C   UNL     1      -5.158   4.143  25.685  0.00  0.00    +0.007 C 
ENDBRANCH   4   8
BRANCH   6  10
ATOM     10  C   UNL     1      -0.565   1.225  24.206  0.00  0.00    +0.103 C 
BRANCH  10  13
ATOM      2  O   UNL     1       0.760  -0.663  23.660  0.00  0.00    -0.276 OA
ATOM      3  N   UNL     1      -1.329  -1.094  24.581  0.00  0.00    -0.301 N 
ATOM     13  C   UNL     1      -0.311  -0.260  24.122  0.00  0.00    +0.216 C 
ATOM     14  C   UNL     1      -3.647  -2.828  24.379  0.00  0.00    -0.011 C 
ATOM     17  C   UNL     1      -2.612  -0.646  25.135  0.00  0.00    +0.108 C 
ATOM     18  C   UNL     1      -1.142  -2.546  24.569  0.00  0.00    +0.108 C 
ATOM     19  C   UNL     1      -3.779  -1.297  24.395  0.00  0.00    +0.022 C 
ATOM     20  C   UNL     1      -2.277  -3.236  23.816  0.00  0.00    +0.022 C 
ATOM     22  C   UNL     1      -4.778  -3.463  23.574  0.00  0.00    +0.007 C 
ENDBRANCH  10  13
ENDBRANCH   6  10
BRANCH   7  12
ATOM     12  C   UNL     1      -2.290   5.675  24.978  0.00  0.00    +0.163 C 
BRANCH  12   1
ATOM      1  O   UNL     1      -0.916   5.897  24.728  0.00  0.00    -0.394 OA
ATOM     23  H   UNL     1      -0.418   5.266  25.275  0.00  0.00    +0.209 HD
ENDBRANCH  12   1
ENDBRANCH   7  12
TORSDOF 5
ENDMDL
MODEL 10
REMARK VINA RESULT:      -3.3      1.911      4.583
REMARK  Name = 38030151
REMARK  9 active torsions:
REMARK  status: ('A' for Active; 'I' for Inactive)
REMARK    1  A    between atoms: O_1  and  C_12
REMARK    2  A    between atoms: C_4  and  C_8
REMARK    3  A    between atoms: C_6  and  C_10
REMARK    4  A    between atoms: C_7  and  C_12
REMARK    5  A    between atoms: C_8  and  C_15
REMARK    6  A    between atoms: C_8  and  C_16
REMARK    7  A    between atoms: C_9  and  C_21
REMARK    8  A    between atoms: C_10  and  C_13
REMARK    9  A    between atoms: C_14  and  C_22
REMARK                            x       y       z     vdW  Elec       q    Type
REMARK                         _______ _______ _______ _____ _____    ______ ____
ROOT
ATOM      4  C   UNL     1      -1.646  -0.878  24.342  0.00  0.00    +0.001 C 
ATOM      5  C   UNL     1      -0.250  -0.402  23.910  0.00  0.00    +0.012 C 
ATOM      6  C   UNL     1      -0.016   1.086  24.236  0.00  0.00    +0.023 C 
ATOM      7  C   UNL     1      -1.840  -0.672  25.865  0.00  0.00    +0.040 C 
ATOM      9  C   UNL     1      -0.440   1.425  25.650  0.00  0.00    -0.073 C 
ATOM     11  C   UNL     1      -1.244   0.622  26.368  0.00  0.00    -0.022 C 
ATOM     21  C   UNL     1       0.119   2.691  26.239  0.00  0.00    +0.039 C 
ENDROOT
BRANCH   4   8
ATOM      8  C   UNL     1      -1.842  -2.342  23.936  0.00  0.00    -0.013 C 
ATOM     15  C   UNL     1      -1.050  -3.262  24.860  0.00  0.00    +0.007 C 
ATOM     16  C   UNL     1      -3.323  -2.704  23.948  0.00  0.00    +0.007 C 
ENDBRANCH   4   8
BRANCH   6  10
ATOM     10  C   UNL     1      -0.720   1.991  23.219  0.00  0.00    +0.103 C 
BRANCH  10  13
ATOM      2  O   UNL     1      -0.733   4.036  24.417  0.00  0.00    -0.276 OA
ATOM      3  N   UNL     1      -2.802   3.063  24.004  0.00  0.00    -0.301 N 
ATOM     13  C   UNL     1      -1.411   3.125  23.934  0.00  0.00    +0.216 C 
ATOM     14  C   UNL     1      -5.387   2.499  25.195  0.00  0.00    -0.011 C 
ATOM     17  C   UNL     1      -3.636   1.994  23.441  0.00  0.00    +0.108 C 
ATOM     18  C   UNL     1      -3.548   4.145  24.647  0.00  0.00    +0.108 C 
ATOM     19  C   UNL     1      -4.556   1.406  24.508  0.00  0.00    +0.022 C 
ATOM     20  C   UNL     1      -4.465   3.602  25.740  0.00  0.00    +0.022 C 
ATOM     22  C   UNL     1      -6.247   1.909  26.310  0.00  0.00    +0.007 C 
ENDBRANCH  10  13
ENDBRANCH   6  10
BRANCH   7  12
ATOM     12  C   UNL     1      -3.324  -0.734  26.247  0.00  0.00    +0.163 C 
BRANCH  12   1
ATOM      1  O   UNL     1      -3.491  -1.752  27.214  0.00  0.00    -0.394 OA
ATOM     23  H   UNL     1      -2.837  -1.592  27.915  0.00  0.00    +0.209 HD
ENDBRANCH  12   1
ENDBRANCH   7  12
TORSDOF 5
ENDMDL
