MODEL 1
REMARK VINA RESULT:       2.4      0.000      0.000
REMARK  Name = 75368489
REMARK  4 active torsions:
REMARK  status: ('A' for Active; 'I' for Inactive)
REMARK    1  A    between atoms: O_4  and  C_21
REMARK    2  A    between atoms: O_4  and  C_26
REMARK    3  A    between atoms: N_5  and  C_10
REMARK    4  A    between atoms: C_19  and  C_20
REMARK                            x       y       z     vdW  Elec       q    Type
REMARK                         _______ _______ _______ _____ _____    ______ ____
ROOT
ATOM      2  O   UNL     1       1.107  -2.507  24.629  0.00  0.00    -0.252 OA
ATOM      3  O   UNL     1      -5.224   0.294  25.564  0.00  0.00    -0.270 OA
ATOM      5  N   UNL     1       1.341  -0.349  23.707  0.00  0.00    -0.280 N 
ATOM      6  N   UNL     1      -0.596  -0.891  24.708  0.00  0.00    -0.278 N 
ATOM      7  N   UNL     1      -3.163   0.148  24.473  0.00  0.00    -0.294 N 
ATOM      8  C   UNL     1      -0.740   0.515  24.366  0.00  0.00    +0.112 C 
ATOM      9  C   UNL     1       0.485   0.806  23.504  0.00  0.00    +0.133 C 
ATOM     11  C   UNL     1      -2.079   0.753  23.676  0.00  0.00    +0.132 C 
ATOM     12  C   UNL     1      -1.668  -1.578  25.407  0.00  0.00    +0.128 C 
ATOM     13  C   UNL     1       0.673  -1.389  24.384  0.00  0.00    +0.305 C 
ATOM     14  C   UNL     1      -3.005  -1.292  24.726  0.00  0.00    +0.127 C 
ATOM     19  C   UNL     1      -4.300   0.810  24.938  0.00  0.00    +0.250 C 
ENDROOT
BRANCH   5  10
ATOM      1  O   UNL     1       5.480   0.139  23.370  0.00  0.00    -0.380 OA
ATOM     10  C   UNL     1       2.667  -0.425  23.144  0.00  0.00    +0.082 C 
ATOM     15  C   UNL     1       3.246   0.970  22.905  0.00  0.00    +0.050 C 
ATOM     16  C   UNL     1       3.597  -1.238  24.047  0.00  0.00    +0.050 C 
ATOM     17  C   UNL     1       4.692   0.877  22.436  0.00  0.00    +0.161 C 
ATOM     18  C   UNL     1       5.024  -1.205  23.516  0.00  0.00    +0.161 C 
ENDBRANCH   5  10
BRANCH  19  20
ATOM     20  C   UNL     1      -4.415   2.252  24.677  0.00  0.00    +0.078 A 
ATOM     21  C   UNL     1      -5.035   3.099  25.595  0.00  0.00    +0.132 A 
ATOM     22  C   UNL     1      -3.895   2.769  23.491  0.00  0.00    +0.017 A 
ATOM     23  C   UNL     1      -5.135   4.464  25.328  0.00  0.00    +0.046 A 
ATOM     24  C   UNL     1      -3.996   4.135  23.223  0.00  0.00    +0.001 A 
ATOM     25  C   UNL     1      -4.615   4.982  24.141  0.00  0.00    +0.004 A 
BRANCH  21   4
ATOM      4  O   UNL     1      -5.552   2.611  26.759  0.00  0.00    -0.494 OA
ATOM     26  C   UNL     1      -6.872   2.075  26.706  0.00  0.00    +0.277 C 
ENDBRANCH  21   4
ENDBRANCH  19  20
TORSDOF 3
ENDMDL
MODEL 2
REMARK VINA RESULT:       2.9      1.146      1.628
REMARK  Name = 75368489
REMARK  4 active torsions:
REMARK  status: ('A' for Active; 'I' for Inactive)
REMARK    1  A    between atoms: O_4  and  C_21
REMARK    2  A    between atoms: O_4  and  C_26
REMARK    3  A    between atoms: N_5  and  C_10
REMARK    4  A    between atoms: C_19  and  C_20
REMARK                            x       y       z     vdW  Elec       q    Type
REMARK                         _______ _______ _______ _____ _____    ______ ____
ROOT
ATOM      2  O   UNL     1       0.679  -2.500  24.195  0.00  0.00    -0.252 OA
ATOM      3  O   UNL     1      -5.464   0.362  25.891  0.00  0.00    -0.270 OA
ATOM      5  N   UNL     1       0.995  -0.221  23.677  0.00  0.00    -0.280 N 
ATOM      6  N   UNL     1      -0.934  -0.852  24.641  0.00  0.00    -0.278 N 
ATOM      7  N   UNL     1      -3.450   0.327  24.707  0.00  0.00    -0.294 N 
ATOM      8  C   UNL     1      -1.016   0.598  24.569  0.00  0.00    +0.112 C 
ATOM      9  C   UNL     1       0.195   0.989  23.725  0.00  0.00    +0.133 C 
ATOM     11  C   UNL     1      -2.361   1.021  23.991  0.00  0.00    +0.132 C 
ATOM     12  C   UNL     1      -2.017  -1.608  25.245  0.00  0.00    +0.128 C 
ATOM     13  C   UNL     1       0.296  -1.338  24.178  0.00  0.00    +0.305 C 
ATOM     14  C   UNL     1      -3.359  -1.139  24.684  0.00  0.00    +0.127 C 
ATOM     19  C   UNL     1      -4.535   0.943  25.333  0.00  0.00    +0.250 C 
ENDROOT
BRANCH   5  10
ATOM      1  O   UNL     1       5.116   0.302  23.206  0.00  0.00    -0.380 OA
ATOM     10  C   UNL     1       2.297  -0.252  23.055  0.00  0.00    +0.082 C 
ATOM     15  C   UNL     1       2.866   1.159  22.897  0.00  0.00    +0.050 C 
ATOM     16  C   UNL     1       3.263  -1.127  23.855  0.00  0.00    +0.050 C 
ATOM     17  C   UNL     1       4.291   1.106  22.363  0.00  0.00    +0.161 C 
ATOM     18  C   UNL     1       4.667  -1.051  23.269  0.00  0.00    +0.161 C 
ENDBRANCH   5  10
BRANCH  19  20
ATOM     20  C   UNL     1      -4.583   2.411  25.347  0.00  0.00    +0.078 A 
ATOM     21  C   UNL     1      -3.465   3.161  25.710  0.00  0.00    +0.132 A 
ATOM     22  C   UNL     1      -5.769   3.054  24.991  0.00  0.00    +0.017 A 
ATOM     23  C   UNL     1      -3.532   4.554  25.719  0.00  0.00    +0.046 A 
ATOM     24  C   UNL     1      -5.836   4.447  25.000  0.00  0.00    +0.001 A 
ATOM     25  C   UNL     1      -4.718   5.197  25.364  0.00  0.00    +0.004 A 
BRANCH  21   4
ATOM      4  O   UNL     1      -2.298   2.551  26.063  0.00  0.00    -0.494 OA
ATOM     26  C   UNL     1      -1.150   3.384  26.205  0.00  0.00    +0.277 C 
ENDBRANCH  21   4
ENDBRANCH  19  20
TORSDOF 3
ENDMDL
MODEL 3
REMARK VINA RESULT:       3.0      0.868      1.840
REMARK  Name = 75368489
REMARK  4 active torsions:
REMARK  status: ('A' for Active; 'I' for Inactive)
REMARK    1  A    between atoms: O_4  and  C_21
REMARK    2  A    between atoms: O_4  and  C_26
REMARK    3  A    between atoms: N_5  and  C_10
REMARK    4  A    between atoms: C_19  and  C_20
REMARK                            x       y       z     vdW  Elec       q    Type
REMARK                         _______ _______ _______ _____ _____    ______ ____
ROOT
ATOM      2  O   UNL     1       1.085  -2.562  24.741  0.00  0.00    -0.252 OA
ATOM      3  O   UNL     1      -5.235   0.226  25.786  0.00  0.00    -0.270 OA
ATOM      5  N   UNL     1       1.294  -0.409  23.800  0.00  0.00    -0.280 N 
ATOM      6  N   UNL     1      -0.621  -0.950  24.844  0.00  0.00    -0.278 N 
ATOM      7  N   UNL     1      -3.196   0.078  24.654  0.00  0.00    -0.294 N 
ATOM      8  C   UNL     1      -0.777   0.452  24.495  0.00  0.00    +0.112 C 
ATOM      9  C   UNL     1       0.430   0.742  23.606  0.00  0.00    +0.133 C 
ATOM     11  C   UNL     1      -2.130   0.682  23.831  0.00  0.00    +0.132 C 
ATOM     12  C   UNL     1      -1.677  -1.637  25.569  0.00  0.00    +0.128 C 
ATOM     13  C   UNL     1       0.643  -1.447  24.497  0.00  0.00    +0.305 C 
ATOM     14  C   UNL     1      -3.028  -1.359  24.913  0.00  0.00    +0.127 C 
ATOM     19  C   UNL     1      -4.326   0.741  25.137  0.00  0.00    +0.250 C 
ENDROOT
BRANCH   5  10
ATOM      1  O   UNL     1       5.425   0.078  23.382  0.00  0.00    -0.380 OA
ATOM     10  C   UNL     1       2.608  -0.485  23.211  0.00  0.00    +0.082 C 
ATOM     15  C   UNL     1       3.182   0.910  22.962  0.00  0.00    +0.050 C 
ATOM     16  C   UNL     1       3.555  -1.299  24.093  0.00  0.00    +0.050 C 
ATOM     17  C   UNL     1       4.619   0.818  22.465  0.00  0.00    +0.161 C 
ATOM     18  C   UNL     1       4.972  -1.266  23.534  0.00  0.00    +0.161 C 
ENDBRANCH   5  10
BRANCH  19  20
ATOM     20  C   UNL     1      -4.451   2.180  24.870  0.00  0.00    +0.078 A 
ATOM     21  C   UNL     1      -3.995   2.728  23.671  0.00  0.00    +0.132 A 
ATOM     22  C   UNL     1      -5.033   3.001  25.835  0.00  0.00    +0.017 A 
ATOM     23  C   UNL     1      -4.121   4.097  23.437  0.00  0.00    +0.046 A 
ATOM     24  C   UNL     1      -5.159   4.370  25.602  0.00  0.00    +0.001 A 
ATOM     25  C   UNL     1      -4.703   4.918  24.403  0.00  0.00    +0.004 A 
BRANCH  21   4
ATOM      4  O   UNL     1      -3.421   1.942  22.716  0.00  0.00    -0.494 OA
ATOM     26  C   UNL     1      -2.847   2.605  21.592  0.00  0.00    +0.277 C 
ENDBRANCH  21   4
ENDBRANCH  19  20
TORSDOF 3
ENDMDL
MODEL 4
REMARK VINA RESULT:       4.7      2.012      2.497
REMARK  Name = 75368489
REMARK  4 active torsions:
REMARK  status: ('A' for Active; 'I' for Inactive)
REMARK    1  A    between atoms: O_4  and  C_21
REMARK    2  A    between atoms: O_4  and  C_26
REMARK    3  A    between atoms: N_5  and  C_10
REMARK    4  A    between atoms: C_19  and  C_20
REMARK                            x       y       z     vdW  Elec       q    Type
REMARK                         _______ _______ _______ _____ _____    ______ ____
ROOT
ATOM      2  O   UNL     1       1.089  -0.834  20.836  0.00  0.00    -0.252 OA
ATOM      3  O   UNL     1      -4.542   2.802  22.806  0.00  0.00    -0.270 OA
ATOM      5  N   UNL     1       1.789   0.178  22.849  0.00  0.00    -0.280 N 
ATOM      6  N   UNL     1      -0.340   0.453  22.186  0.00  0.00    -0.278 N 
ATOM      7  N   UNL     1      -2.243   2.383  22.800  0.00  0.00    -0.294 N 
ATOM      8  C   UNL     1      -0.277   1.089  23.491  0.00  0.00    +0.112 C 
ATOM      9  C   UNL     1       1.212   1.083  23.827  0.00  0.00    +0.133 C 
ATOM     11  C   UNL     1      -0.913   2.474  23.432  0.00  0.00    +0.132 C 
ATOM     12  C   UNL     1      -1.598   0.414  21.460  0.00  0.00    +0.128 C 
ATOM     13  C   UNL     1       0.871  -0.157  21.833  0.00  0.00    +0.305 C 
ATOM     14  C   UNL     1      -2.239   1.800  21.450  0.00  0.00    +0.127 C 
ATOM     19  C   UNL     1      -3.441   2.839  23.353  0.00  0.00    +0.250 C 
ENDROOT
BRANCH   5  10
ATOM      1  O   UNL     1       5.614  -0.521  24.385  0.00  0.00    -0.380 OA
ATOM     10  C   UNL     1       3.182  -0.196  22.882  0.00  0.00    +0.082 C 
ATOM     15  C   UNL     1       4.062   0.988  23.286  0.00  0.00    +0.050 C 
ATOM     16  C   UNL     1       3.408  -1.373  23.832  0.00  0.00    +0.050 C 
ATOM     17  C   UNL     1       5.511   0.549  23.446  0.00  0.00    +0.161 C 
ATOM     18  C   UNL     1       4.895  -1.679  23.964  0.00  0.00    +0.161 C 
ENDBRANCH   5  10
BRANCH  19  20
ATOM     20  C   UNL     1      -3.406   3.402  24.709  0.00  0.00    +0.078 A 
ATOM     21  C   UNL     1      -4.446   3.170  25.608  0.00  0.00    +0.132 A 
ATOM     22  C   UNL     1      -2.312   4.179  25.092  0.00  0.00    +0.017 A 
ATOM     23  C   UNL     1      -4.394   3.716  26.891  0.00  0.00    +0.046 A 
ATOM     24  C   UNL     1      -2.260   4.724  26.375  0.00  0.00    +0.001 A 
ATOM     25  C   UNL     1      -3.301   4.493  27.274  0.00  0.00    +0.004 A 
BRANCH  21   4
ATOM      4  O   UNL     1      -5.524   2.416  25.252  0.00  0.00    -0.494 OA
ATOM     26  C   UNL     1      -5.454   1.018  25.522  0.00  0.00    +0.277 C 
ENDBRANCH  21   4
ENDBRANCH  19  20
TORSDOF 3
ENDMDL
MODEL 5
REMARK VINA RESULT:       4.8      2.016      3.245
REMARK  Name = 75368489
REMARK  4 active torsions:
REMARK  status: ('A' for Active; 'I' for Inactive)
REMARK    1  A    between atoms: O_4  and  C_21
REMARK    2  A    between atoms: O_4  and  C_26
REMARK    3  A    between atoms: N_5  and  C_10
REMARK    4  A    between atoms: C_19  and  C_20
REMARK                            x       y       z     vdW  Elec       q    Type
REMARK                         _______ _______ _______ _____ _____    ______ ____
ROOT
ATOM      2  O   UNL     1       3.209   2.616  23.115  0.00  0.00    -0.252 OA
ATOM      3  O   UNL     1      -3.554   3.255  24.747  0.00  0.00    -0.270 OA
ATOM      5  N   UNL     1       2.459   0.380  23.150  0.00  0.00    -0.280 N 
ATOM      6  N   UNL     1       0.960   2.027  23.455  0.00  0.00    -0.278 N 
ATOM      7  N   UNL     1      -1.550   2.057  24.646  0.00  0.00    -0.294 N 
ATOM      8  C   UNL     1       0.166   0.810  23.415  0.00  0.00    +0.112 C 
ATOM      9  C   UNL     1       1.208  -0.305  23.423  0.00  0.00    +0.133 C 
ATOM     11  C   UNL     1      -0.811   0.781  24.584  0.00  0.00    +0.132 C 
ATOM     12  C   UNL     1       0.305   3.313  23.613  0.00  0.00    +0.128 C 
ATOM     13  C   UNL     1       2.321   1.781  23.222  0.00  0.00    +0.305 C 
ATOM     14  C   UNL     1      -0.700   3.250  24.762  0.00  0.00    +0.127 C 
ATOM     19  C   UNL     1      -2.939   2.194  24.652  0.00  0.00    +0.250 C 
ENDROOT
BRANCH   5  10
ATOM      1  O   UNL     1       6.187  -1.281  24.055  0.00  0.00    -0.380 OA
ATOM     10  C   UNL     1       3.698  -0.336  22.965  0.00  0.00    +0.082 C 
ATOM     15  C   UNL     1       4.902   0.582  23.177  0.00  0.00    +0.050 C 
ATOM     16  C   UNL     1       3.777  -1.541  23.904  0.00  0.00    +0.050 C 
ATOM     17  C   UNL     1       6.200  -0.212  23.111  0.00  0.00    +0.161 C 
ATOM     18  C   UNL     1       5.139  -2.215  23.798  0.00  0.00    +0.161 C 
ENDBRANCH   5  10
BRANCH  19  20
ATOM     20  C   UNL     1      -3.754   0.979  24.520  0.00  0.00    +0.078 A 
ATOM     21  C   UNL     1      -5.129   1.010  24.752  0.00  0.00    +0.132 A 
ATOM     22  C   UNL     1      -3.134  -0.217  24.159  0.00  0.00    +0.017 A 
ATOM     23  C   UNL     1      -5.884  -0.156  24.623  0.00  0.00    +0.046 A 
ATOM     24  C   UNL     1      -3.890  -1.382  24.030  0.00  0.00    +0.001 A 
ATOM     25  C   UNL     1      -5.264  -1.352  24.262  0.00  0.00    +0.004 A 
BRANCH  21   4
ATOM      4  O   UNL     1      -5.753   2.169  25.108  0.00  0.00    -0.494 OA
ATOM     26  C   UNL     1      -6.267   2.245  26.435  0.00  0.00    +0.277 C 
ENDBRANCH  21   4
ENDBRANCH  19  20
TORSDOF 3
ENDMDL
MODEL 6
REMARK VINA RESULT:       5.3      2.456      3.935
REMARK  Name = 75368489
REMARK  4 active torsions:
REMARK  status: ('A' for Active; 'I' for Inactive)
REMARK    1  A    between atoms: O_4  and  C_21
REMARK    2  A    between atoms: O_4  and  C_26
REMARK    3  A    between atoms: N_5  and  C_10
REMARK    4  A    between atoms: C_19  and  C_20
REMARK                            x       y       z     vdW  Elec       q    Type
REMARK                         _______ _______ _______ _____ _____    ______ ____
ROOT
ATOM      2  O   UNL     1       2.925   2.584  23.062  0.00  0.00    -0.252 OA
ATOM      3  O   UNL     1      -3.833   1.703  24.602  0.00  0.00    -0.270 OA
ATOM      5  N   UNL     1       2.707   0.237  23.168  0.00  0.00    -0.280 N 
ATOM      6  N   UNL     1       0.865   1.504  23.399  0.00  0.00    -0.278 N 
ATOM      7  N   UNL     1      -1.606   0.995  24.564  0.00  0.00    -0.294 N 
ATOM      8  C   UNL     1       0.372   0.137  23.394  0.00  0.00    +0.112 C 
ATOM      9  C   UNL     1       1.642  -0.708  23.453  0.00  0.00    +0.133 C 
ATOM     11  C   UNL     1      -0.593  -0.079  24.554  0.00  0.00    +0.132 C 
ATOM     12  C   UNL     1      -0.071   2.610  23.505  0.00  0.00    +0.128 C 
ATOM     13  C   UNL     1       2.249   1.571  23.189  0.00  0.00    +0.305 C 
ATOM     14  C   UNL     1      -1.055   2.355  24.646  0.00  0.00    +0.127 C 
ATOM     19  C   UNL     1      -2.990   0.809  24.551  0.00  0.00    +0.250 C 
ENDROOT
BRANCH   5  10
ATOM      1  O   UNL     1       6.607  -0.822  24.238  0.00  0.00    -0.380 OA
ATOM     10  C   UNL     1       4.080  -0.180  23.022  0.00  0.00    +0.082 C 
ATOM     15  C   UNL     1       5.040   0.894  23.534  0.00  0.00    +0.050 C 
ATOM     16  C   UNL     1       4.329  -1.503  23.746  0.00  0.00    +0.050 C 
ATOM     17  C   UNL     1       6.477   0.391  23.497  0.00  0.00    +0.161 C 
ATOM     18  C   UNL     1       5.806  -1.872  23.699  0.00  0.00    +0.161 C 
ENDBRANCH   5  10
BRANCH  19  20
ATOM     20  C   UNL     1      -3.501  -0.565  24.454  0.00  0.00    +0.078 A 
ATOM     21  C   UNL     1      -3.384  -1.450  25.524  0.00  0.00    +0.132 A 
ATOM     22  C   UNL     1      -4.110  -0.979  23.269  0.00  0.00    +0.017 A 
ATOM     23  C   UNL     1      -3.875  -2.751  25.411  0.00  0.00    +0.046 A 
ATOM     24  C   UNL     1      -4.601  -2.280  23.156  0.00  0.00    +0.001 A 
ATOM     25  C   UNL     1      -4.484  -3.166  24.227  0.00  0.00    +0.004 A 
BRANCH  21   4
ATOM      4  O   UNL     1      -2.790  -1.065  26.690  0.00  0.00    -0.494 OA
ATOM     26  C   UNL     1      -1.403  -1.363  26.838  0.00  0.00    +0.277 C 
ENDBRANCH  21   4
ENDBRANCH  19  20
TORSDOF 3
ENDMDL
MODEL 7
REMARK VINA RESULT:       6.1      1.421      7.706
REMARK  Name = 75368489
REMARK  4 active torsions:
REMARK  status: ('A' for Active; 'I' for Inactive)
REMARK    1  A    between atoms: O_4  and  C_21
REMARK    2  A    between atoms: O_4  and  C_26
REMARK    3  A    between atoms: N_5  and  C_10
REMARK    4  A    between atoms: C_19  and  C_20
REMARK                            x       y       z     vdW  Elec       q    Type
REMARK                         _______ _______ _______ _____ _____    ______ ____
ROOT
ATOM      2  O   UNL     1      -4.254  -0.759  24.989  0.00  0.00    -0.252 OA
ATOM      3  O   UNL     1       2.417  -2.765  24.456  0.00  0.00    -0.270 OA
ATOM      5  N   UNL     1      -3.168   1.202  24.256  0.00  0.00    -0.280 N 
ATOM      6  N   UNL     1      -1.971  -0.691  24.438  0.00  0.00    -0.278 N 
ATOM      7  N   UNL     1       0.755  -1.145  24.728  0.00  0.00    -0.294 N 
ATOM      8  C   UNL     1      -1.049   0.273  23.860  0.00  0.00    +0.112 C 
ATOM      9  C   UNL     1      -1.806   1.596  23.943  0.00  0.00    +0.133 C 
ATOM     11  C   UNL     1       0.278   0.247  24.611  0.00  0.00    +0.132 C 
ATOM     12  C   UNL     1      -1.536  -2.057  24.673  0.00  0.00    +0.128 C 
ATOM     13  C   UNL     1      -3.258  -0.160  24.605  0.00  0.00    +0.305 C 
ATOM     14  C   UNL     1      -0.186  -2.061  25.388  0.00  0.00    +0.127 C 
ATOM     19  C   UNL     1       2.004  -1.615  24.318  0.00  0.00    +0.250 C 
ENDROOT
BRANCH   5  10
ATOM      1  O   UNL     1      -5.698   4.145  25.811  0.00  0.00    -0.380 OA
ATOM     10  C   UNL     1      -4.244   2.160  24.318  0.00  0.00    +0.082 C 
ATOM     15  C   UNL     1      -5.247   1.793  25.413  0.00  0.00    +0.050 C 
ATOM     16  C   UNL     1      -3.705   3.573  24.545  0.00  0.00    +0.050 C 
ATOM     17  C   UNL     1      -6.305   2.878  25.558  0.00  0.00    +0.161 C 
ATOM     18  C   UNL     1      -4.850   4.560  24.741  0.00  0.00    +0.161 C 
ENDBRANCH   5  10
BRANCH  19  20
ATOM     20  C   UNL     1       2.911  -0.672  23.650  0.00  0.00    +0.078 A 
ATOM     21  C   UNL     1       2.477   0.101  22.574  0.00  0.00    +0.132 A 
ATOM     22  C   UNL     1       4.225  -0.558  24.105  0.00  0.00    +0.017 A 
ATOM     23  C   UNL     1       3.355   0.989  21.952  0.00  0.00    +0.046 A 
ATOM     24  C   UNL     1       5.103   0.329  23.483  0.00  0.00    +0.001 A 
ATOM     25  C   UNL     1       4.668   1.103  22.407  0.00  0.00    +0.004 A 
BRANCH  21   4
ATOM      4  O   UNL     1       1.197   0.002  22.113  0.00  0.00    -0.494 OA
ATOM     26  C   UNL     1       0.986  -0.806  20.957  0.00  0.00    +0.277 C 
ENDBRANCH  21   4
ENDBRANCH  19  20
TORSDOF 3
ENDMDL
MODEL 8
REMARK VINA RESULT:       6.4      1.191      8.031
REMARK  Name = 75368489
REMARK  4 active torsions:
REMARK  status: ('A' for Active; 'I' for Inactive)
REMARK    1  A    between atoms: O_4  and  C_21
REMARK    2  A    between atoms: O_4  and  C_26
REMARK    3  A    between atoms: N_5  and  C_10
REMARK    4  A    between atoms: C_19  and  C_20
REMARK                            x       y       z     vdW  Elec       q    Type
REMARK                         _______ _______ _______ _____ _____    ______ ____
ROOT
ATOM      2  O   UNL     1      -4.460  -0.727  24.923  0.00  0.00    -0.252 OA
ATOM      3  O   UNL     1       2.269  -2.479  24.250  0.00  0.00    -0.270 OA
ATOM      5  N   UNL     1      -3.442   1.309  24.308  0.00  0.00    -0.280 N 
ATOM      6  N   UNL     1      -2.184  -0.552  24.371  0.00  0.00    -0.278 N 
ATOM      7  N   UNL     1       0.557  -0.934  24.625  0.00  0.00    -0.294 N 
ATOM      8  C   UNL     1      -1.296   0.475  23.851  0.00  0.00    +0.112 C 
ATOM      9  C   UNL     1      -2.094   1.765  24.016  0.00  0.00    +0.133 C 
ATOM     11  C   UNL     1       0.034   0.446  24.595  0.00  0.00    +0.132 C 
ATOM     12  C   UNL     1      -1.704  -1.915  24.520  0.00  0.00    +0.128 C 
ATOM     13  C   UNL     1      -3.486  -0.074  24.574  0.00  0.00    +0.305 C 
ATOM     14  C   UNL     1      -0.351  -1.918  25.230  0.00  0.00    +0.127 C 
ATOM     19  C   UNL     1       1.819  -1.337  24.184  0.00  0.00    +0.250 C 
ENDROOT
BRANCH   5  10
ATOM      1  O   UNL     1      -6.035   4.097  26.036  0.00  0.00    -0.380 OA
ATOM     10  C   UNL     1      -4.548   2.226  24.432  0.00  0.00    +0.082 C 
ATOM     15  C   UNL     1      -5.514   1.779  25.530  0.00  0.00    +0.050 C 
ATOM     16  C   UNL     1      -4.052   3.646  24.708  0.00  0.00    +0.050 C 
ATOM     17  C   UNL     1      -6.605   2.821  25.741  0.00  0.00    +0.161 C 
ATOM     18  C   UNL     1      -5.224   4.584  24.968  0.00  0.00    +0.161 C 
ENDBRANCH   5  10
BRANCH  19  20
ATOM     20  C   UNL     1       2.692  -0.326  23.572  0.00  0.00    +0.078 A 
ATOM     21  C   UNL     1       4.074  -0.505  23.531  0.00  0.00    +0.132 A 
ATOM     22  C   UNL     1       2.121   0.825  23.030  0.00  0.00    +0.017 A 
ATOM     23  C   UNL     1       4.886   0.468  22.947  0.00  0.00    +0.046 A 
ATOM     24  C   UNL     1       2.932   1.798  22.447  0.00  0.00    +0.001 A 
ATOM     25  C   UNL     1       4.315   1.619  22.405  0.00  0.00    +0.004 A 
BRANCH  21   4
ATOM      4  O   UNL     1       4.652  -1.622  24.057  0.00  0.00    -0.494 OA
ATOM     26  C   UNL     1       6.027  -1.529  24.423  0.00  0.00    +0.277 C 
ENDBRANCH  21   4
ENDBRANCH  19  20
TORSDOF 3
ENDMDL
