MODEL 1
REMARK VINA RESULT:      -6.5      0.000      0.000
REMARK  Name = 7135392
REMARK  7 active torsions:
REMARK  status: ('A' for Active; 'I' for Inactive)
REMARK    1  A    between atoms: O_2  and  C_20
REMARK    2  A    between atoms: O_2  and  C_24
REMARK    3  A    between atoms: C_4  and  C_5
REMARK    4  A    between atoms: C_5  and  C_11
REMARK    5  A    between atoms: C_5  and  C_12
REMARK    6  A    between atoms: C_15  and  C_22
REMARK    7  A    between atoms: C_16  and  C_23
REMARK                            x       y       z     vdW  Elec       q    Type
REMARK                         _______ _______ _______ _____ _____    ______ ____
ROOT
ATOM      4  C   UNL     1      -0.841   2.892  26.165  0.00  0.00    +0.005 C 
ATOM      6  C   UNL     1       0.603   2.705  25.686  0.00  0.00    +0.009 C 
ATOM      7  C   UNL     1      -1.468   1.523  26.471  0.00  0.00    +0.040 C 
ATOM      8  C   UNL     1       0.691   1.846  24.425  0.00  0.00    +0.036 C 
ATOM      9  C   UNL     1      -1.211   0.475  25.415  0.00  0.00    -0.037 A 
ATOM     10  C   UNL     1      -0.168   0.609  24.480  0.00  0.00    -0.041 A 
ATOM     15  C   UNL     1      -1.997  -0.688  25.408  0.00  0.00    -0.005 A 
ATOM     16  C   UNL     1       0.043  -0.407  23.535  0.00  0.00    -0.044 A 
ATOM     20  C   UNL     1      -1.770  -1.694  24.469  0.00  0.00    +0.124 A 
ATOM     21  C   UNL     1      -0.751  -1.553  23.532  0.00  0.00    +0.049 A 
ATOM     22  C   UNL     1      -3.104  -0.872  26.401  0.00  0.00    +0.048 C 
ATOM     23  C   UNL     1       1.127  -0.306  22.508  0.00  0.00    +0.044 C 
ENDROOT
BRANCH  20   2
ATOM      2  O   UNL     1      -2.534  -2.822  24.453  0.00  0.00    -0.495 OA
ATOM     24  C   UNL     1      -3.835  -2.715  23.878  0.00  0.00    +0.277 C 
ENDBRANCH  20   2
BRANCH   4   5
ATOM      5  C   UNL     1      -1.685   3.694  25.170  0.00  0.00    +0.075 C 
ATOM     12  C   UNL     1      -1.019   5.015  24.817  0.00  0.00    +0.017 C 
BRANCH   5  11
ATOM      1  O   UNL     1      -3.134   4.717  26.740  0.00  0.00    -0.275 OA
ATOM      3  N   UNL     1      -4.128   3.329  25.164  0.00  0.00    -0.301 N 
ATOM     11  C   UNL     1      -3.043   3.965  25.766  0.00  0.00    +0.219 C 
ATOM     13  C   UNL     1      -5.479   3.541  25.688  0.00  0.00    +0.108 C 
ATOM     14  C   UNL     1      -4.056   2.467  23.978  0.00  0.00    +0.108 C 
ATOM     17  C   UNL     1      -6.160   2.210  25.996  0.00  0.00    +0.019 C 
ATOM     18  C   UNL     1      -4.710   1.114  24.253  0.00  0.00    +0.019 C 
ATOM     19  C   UNL     1      -6.134   1.283  24.782  0.00  0.00    +0.003 C 
ENDBRANCH   5  11
ENDBRANCH   4   5
TORSDOF 3
ENDMDL
MODEL 2
REMARK VINA RESULT:      -3.8      1.713      4.293
REMARK  Name = 7135392
REMARK  7 active torsions:
REMARK  status: ('A' for Active; 'I' for Inactive)
REMARK    1  A    between atoms: O_2  and  C_20
REMARK    2  A    between atoms: O_2  and  C_24
REMARK    3  A    between atoms: C_4  and  C_5
REMARK    4  A    between atoms: C_5  and  C_11
REMARK    5  A    between atoms: C_5  and  C_12
REMARK    6  A    between atoms: C_15  and  C_22
REMARK    7  A    between atoms: C_16  and  C_23
REMARK                            x       y       z     vdW  Elec       q    Type
REMARK                         _______ _______ _______ _____ _____    ______ ____
ROOT
ATOM      4  C   UNL     1      -4.866   1.354  24.317  0.00  0.00    +0.005 C 
ATOM      6  C   UNL     1      -5.109  -0.151  24.464  0.00  0.00    +0.009 C 
ATOM      7  C   UNL     1      -3.626   1.597  23.443  0.00  0.00    +0.040 C 
ATOM      8  C   UNL     1      -3.923  -0.872  25.105  0.00  0.00    +0.036 C 
ATOM      9  C   UNL     1      -2.442   0.729  23.793  0.00  0.00    -0.037 A 
ATOM     10  C   UNL     1      -2.590  -0.455  24.539  0.00  0.00    -0.041 A 
ATOM     15  C   UNL     1      -1.173   1.082  23.309  0.00  0.00    -0.005 A 
ATOM     16  C   UNL     1      -1.460  -1.240  24.816  0.00  0.00    -0.044 A 
ATOM     20  C   UNL     1      -0.060   0.289  23.583  0.00  0.00    +0.124 A 
ATOM     21  C   UNL     1      -0.203  -0.872  24.338  0.00  0.00    +0.049 A 
ATOM     22  C   UNL     1      -0.983   2.326  22.495  0.00  0.00    +0.048 C 
ATOM     23  C   UNL     1      -1.560  -2.498  25.619  0.00  0.00    +0.044 C 
ENDROOT
BRANCH  20   2
ATOM      2  O   UNL     1       1.175   0.632  23.122  0.00  0.00    -0.495 OA
ATOM     24  C   UNL     1       1.777  -0.242  22.168  0.00  0.00    +0.277 C 
ENDBRANCH  20   2
BRANCH   4   5
ATOM      5  C   UNL     1      -4.754   2.061  25.671  0.00  0.00    +0.075 C 
ATOM     12  C   UNL     1      -6.069   2.013  26.432  0.00  0.00    +0.017 C 
BRANCH   5  11
ATOM      1  O   UNL     1      -5.170   4.283  24.962  0.00  0.00    -0.275 OA
ATOM      3  N   UNL     1      -3.061   3.853  25.838  0.00  0.00    -0.301 N 
ATOM     11  C   UNL     1      -4.356   3.499  25.457  0.00  0.00    +0.219 C 
ATOM     13  C   UNL     1      -2.600   5.231  25.658  0.00  0.00    +0.108 C 
ATOM     14  C   UNL     1      -2.087   2.955  26.469  0.00  0.00    +0.108 C 
ATOM     17  C   UNL     1      -1.296   5.271  24.865  0.00  0.00    +0.019 C 
ATOM     18  C   UNL     1      -0.772   2.951  25.692  0.00  0.00    +0.019 C 
ATOM     19  C   UNL     1      -0.238   4.370  25.498  0.00  0.00    +0.003 C 
ENDBRANCH   5  11
ENDBRANCH   4   5
TORSDOF 3
ENDMDL
MODEL 3
REMARK VINA RESULT:      -3.6     14.859     18.171
REMARK  Name = 7135392
REMARK  7 active torsions:
REMARK  status: ('A' for Active; 'I' for Inactive)
REMARK    1  A    between atoms: O_2  and  C_20
REMARK    2  A    between atoms: O_2  and  C_24
REMARK    3  A    between atoms: C_4  and  C_5
REMARK    4  A    between atoms: C_5  and  C_11
REMARK    5  A    between atoms: C_5  and  C_12
REMARK    6  A    between atoms: C_15  and  C_22
REMARK    7  A    between atoms: C_16  and  C_23
REMARK                            x       y       z     vdW  Elec       q    Type
REMARK                         _______ _______ _______ _____ _____    ______ ____
ROOT
ATOM      4  C   UNL     1      -8.914 -10.369  11.378  0.00  0.00    +0.005 C 
ATOM      6  C   UNL     1     -10.322 -10.377  11.981  0.00  0.00    +0.009 C 
ATOM      7  C   UNL     1      -7.889 -10.775  12.447  0.00  0.00    +0.040 C 
ATOM      8  C   UNL     1     -10.456  -9.414  13.160  0.00  0.00    +0.036 C 
ATOM      9  C   UNL     1      -8.083 -10.093  13.780  0.00  0.00    -0.037 A 
ATOM     10  C   UNL     1      -9.305  -9.491  14.130  0.00  0.00    -0.041 A 
ATOM     15  C   UNL     1      -7.035 -10.117  14.714  0.00  0.00    -0.005 A 
ATOM     16  C   UNL     1      -9.441  -8.892  15.393  0.00  0.00    -0.044 A 
ATOM     20  C   UNL     1      -7.186  -9.527  15.969  0.00  0.00    +0.124 A 
ATOM     21  C   UNL     1      -8.389  -8.913  16.307  0.00  0.00    +0.049 A 
ATOM     22  C   UNL     1      -5.726 -10.767  14.382  0.00  0.00    +0.048 C 
ATOM     23  C   UNL     1     -10.713  -8.223  15.808  0.00  0.00    +0.044 C 
ENDROOT
BRANCH  20   2
ATOM      2  O   UNL     1      -6.170  -9.540  16.876  0.00  0.00    -0.495 OA
ATOM     24  C   UNL     1      -6.182 -10.584  17.847  0.00  0.00    +0.277 C 
ENDBRANCH  20   2
BRANCH   4   5
ATOM      5  C   UNL     1      -8.563  -9.024  10.735  0.00  0.00    +0.075 C 
ATOM     12  C   UNL     1      -9.813  -8.257  10.335  0.00  0.00    +0.017 C 
BRANCH   5  11
ATOM      1  O   UNL     1      -8.245  -9.633   8.468  0.00  0.00    -0.275 OA
ATOM      3  N   UNL     1      -6.341  -9.028   9.654  0.00  0.00    -0.301 N 
ATOM     11  C   UNL     1      -7.710  -9.257   9.514  0.00  0.00    +0.219 C 
ATOM     13  C   UNL     1      -5.447  -9.236   8.513  0.00  0.00    +0.108 C 
ATOM     14  C   UNL     1      -5.682  -8.538  10.871  0.00  0.00    +0.108 C 
ATOM     17  C   UNL     1      -4.305 -10.180   8.878  0.00  0.00    +0.019 C 
ATOM     18  C   UNL     1      -4.543  -9.469  11.282  0.00  0.00    +0.019 C 
ATOM     19  C   UNL     1      -3.569  -9.698  10.128  0.00  0.00    +0.003 C 
ENDBRANCH   5  11
ENDBRANCH   4   5
TORSDOF 3
ENDMDL
MODEL 4
REMARK VINA RESULT:      -3.5      2.013      5.128
REMARK  Name = 7135392
REMARK  7 active torsions:
REMARK  status: ('A' for Active; 'I' for Inactive)
REMARK    1  A    between atoms: O_2  and  C_20
REMARK    2  A    between atoms: O_2  and  C_24
REMARK    3  A    between atoms: C_4  and  C_5
REMARK    4  A    between atoms: C_5  and  C_11
REMARK    5  A    between atoms: C_5  and  C_12
REMARK    6  A    between atoms: C_15  and  C_22
REMARK    7  A    between atoms: C_16  and  C_23
REMARK                            x       y       z     vdW  Elec       q    Type
REMARK                         _______ _______ _______ _____ _____    ______ ____
ROOT
ATOM      4  C   UNL     1      -0.812   2.064  23.181  0.00  0.00    +0.005 C 
ATOM      6  C   UNL     1      -0.679   3.566  23.454  0.00  0.00    +0.009 C 
ATOM      7  C   UNL     1      -2.298   1.679  23.117  0.00  0.00    +0.040 C 
ATOM      8  C   UNL     1      -1.337   3.980  24.769  0.00  0.00    +0.036 C 
ATOM      9  C   UNL     1      -3.138   2.266  24.225  0.00  0.00    -0.037 A 
ATOM     10  C   UNL     1      -2.703   3.375  24.973  0.00  0.00    -0.041 A 
ATOM     15  C   UNL     1      -4.411   1.727  24.470  0.00  0.00    -0.005 A 
ATOM     16  C   UNL     1      -3.534   3.899  25.975  0.00  0.00    -0.044 A 
ATOM     20  C   UNL     1      -5.231   2.263  25.463  0.00  0.00    +0.124 A 
ATOM     21  C   UNL     1      -4.792   3.347  26.217  0.00  0.00    +0.049 A 
ATOM     22  C   UNL     1      -4.914   0.558  23.680  0.00  0.00    +0.048 C 
ATOM     23  C   UNL     1      -3.112   5.066  26.811  0.00  0.00    +0.044 C 
ENDROOT
BRANCH  20   2
ATOM      2  O   UNL     1      -6.464   1.739  25.712  0.00  0.00    -0.495 OA
ATOM     24  C   UNL     1      -6.807   1.509  27.076  0.00  0.00    +0.277 C 
ENDBRANCH  20   2
BRANCH   4   5
ATOM      5  C   UNL     1      -0.049   1.217  24.203  0.00  0.00    +0.075 C 
ATOM     12  C   UNL     1       1.423   1.596  24.248  0.00  0.00    +0.017 C 
BRANCH   5  11
ATOM      1  O   UNL     1       0.383  -0.662  22.827  0.00  0.00    -0.275 OA
ATOM      3  N   UNL     1      -0.939  -1.033  24.702  0.00  0.00    -0.301 N 
ATOM     11  C   UNL     1      -0.176  -0.241  23.843  0.00  0.00    +0.219 C 
ATOM     13  C   UNL     1      -1.112  -2.459  24.417  0.00  0.00    +0.108 C 
ATOM     14  C   UNL     1      -1.578  -0.571  25.939  0.00  0.00    +0.108 C 
ATOM     17  C   UNL     1      -2.590  -2.835  24.386  0.00  0.00    +0.019 C 
ATOM     18  C   UNL     1      -3.067  -0.911  25.939  0.00  0.00    +0.019 C 
ATOM     19  C   UNL     1      -3.298  -2.397  25.668  0.00  0.00    +0.003 C 
ENDBRANCH   5  11
ENDBRANCH   4   5
TORSDOF 3
ENDMDL
MODEL 5
REMARK VINA RESULT:      -3.3      1.829      4.638
REMARK  Name = 7135392
REMARK  7 active torsions:
REMARK  status: ('A' for Active; 'I' for Inactive)
REMARK    1  A    between atoms: O_2  and  C_20
REMARK    2  A    between atoms: O_2  and  C_24
REMARK    3  A    between atoms: C_4  and  C_5
REMARK    4  A    between atoms: C_5  and  C_11
REMARK    5  A    between atoms: C_5  and  C_12
REMARK    6  A    between atoms: C_15  and  C_22
REMARK    7  A    between atoms: C_16  and  C_23
REMARK                            x       y       z     vdW  Elec       q    Type
REMARK                         _______ _______ _______ _____ _____    ______ ____
ROOT
ATOM      4  C   UNL     1      -2.918   4.194  23.826  0.00  0.00    +0.005 C 
ATOM      6  C   UNL     1      -4.246   4.616  24.464  0.00  0.00    +0.009 C 
ATOM      7  C   UNL     1      -3.095   2.853  23.098  0.00  0.00    +0.040 C 
ATOM      8  C   UNL     1      -4.760   3.589  25.472  0.00  0.00    +0.036 C 
ATOM      9  C   UNL     1      -3.852   1.814  23.890  0.00  0.00    -0.037 A 
ATOM     10  C   UNL     1      -4.668   2.168  24.980  0.00  0.00    -0.041 A 
ATOM     15  C   UNL     1      -3.786   0.472  23.487  0.00  0.00    -0.005 A 
ATOM     16  C   UNL     1      -5.372   1.166  25.666  0.00  0.00    -0.044 A 
ATOM     20  C   UNL     1      -4.497  -0.513  24.172  0.00  0.00    +0.124 A 
ATOM     21  C   UNL     1      -5.288  -0.166  25.263  0.00  0.00    +0.049 A 
ATOM     22  C   UNL     1      -2.941   0.063  22.318  0.00  0.00    +0.048 C 
ATOM     23  C   UNL     1      -6.239   1.485  26.843  0.00  0.00    +0.044 C 
ENDROOT
BRANCH  20   2
ATOM      2  O   UNL     1      -4.429  -1.819  23.790  0.00  0.00    -0.495 OA
ATOM     24  C   UNL     1      -3.646  -2.692  24.602  0.00  0.00    +0.277 C 
ENDBRANCH  20   2
BRANCH   4   5
ATOM      5  C   UNL     1      -1.774   4.142  24.843  0.00  0.00    +0.075 C 
ATOM     12  C   UNL     1      -1.355   5.538  25.277  0.00  0.00    +0.017 C 
BRANCH   5  11
ATOM      1  O   UNL     1       0.028   3.977  23.314  0.00  0.00    -0.275 OA
ATOM      3  N   UNL     1      -0.270   2.184  24.761  0.00  0.00    -0.301 N 
ATOM     11  C   UNL     1      -0.591   3.435  24.234  0.00  0.00    +0.219 C 
ATOM     13  C   UNL     1       0.864   1.433  24.219  0.00  0.00    +0.108 C 
ATOM     14  C   UNL     1      -0.959   1.534  25.883  0.00  0.00    +0.108 C 
ATOM     17  C   UNL     1       0.439   0.029  23.800  0.00  0.00    +0.019 C 
ATOM     18  C   UNL     1      -1.419   0.130  25.496  0.00  0.00    +0.019 C 
ATOM     19  C   UNL     1      -0.262  -0.701  24.944  0.00  0.00    +0.003 C 
ENDBRANCH   5  11
ENDBRANCH   4   5
TORSDOF 3
ENDMDL
MODEL 6
REMARK VINA RESULT:      -3.2     18.055     20.734
REMARK  Name = 7135392
REMARK  7 active torsions:
REMARK  status: ('A' for Active; 'I' for Inactive)
REMARK    1  A    between atoms: O_2  and  C_20
REMARK    2  A    between atoms: O_2  and  C_24
REMARK    3  A    between atoms: C_4  and  C_5
REMARK    4  A    between atoms: C_5  and  C_11
REMARK    5  A    between atoms: C_5  and  C_12
REMARK    6  A    between atoms: C_15  and  C_22
REMARK    7  A    between atoms: C_16  and  C_23
REMARK                            x       y       z     vdW  Elec       q    Type
REMARK                         _______ _______ _______ _____ _____    ______ ____
ROOT
ATOM      4  C   UNL     1      13.624  -9.317  32.137  0.00  0.00    +0.005 C 
ATOM      6  C   UNL     1      12.346  -8.780  32.790  0.00  0.00    +0.009 C 
ATOM      7  C   UNL     1      14.814  -8.420  32.511  0.00  0.00    +0.040 C 
ATOM      8  C   UNL     1      12.024  -7.352  32.352  0.00  0.00    +0.036 C 
ATOM      9  C   UNL     1      14.536  -6.941  32.392  0.00  0.00    -0.037 A 
ATOM     10  C   UNL     1      13.222  -6.438  32.361  0.00  0.00    -0.041 A 
ATOM     15  C   UNL     1      15.616  -6.045  32.375  0.00  0.00    -0.005 A 
ATOM     16  C   UNL     1      13.018  -5.051  32.275  0.00  0.00    -0.044 A 
ATOM     20  C   UNL     1      15.400  -4.670  32.299  0.00  0.00    +0.124 A 
ATOM     21  C   UNL     1      14.101  -4.173  32.248  0.00  0.00    +0.049 A 
ATOM     22  C   UNL     1      17.028  -6.546  32.426  0.00  0.00    +0.048 C 
ATOM     23  C   UNL     1      11.643  -4.465  32.221  0.00  0.00    +0.044 C 
ENDROOT
BRANCH  20   2
ATOM      2  O   UNL     1      16.445  -3.797  32.274  0.00  0.00    -0.495 OA
ATOM     24  C   UNL     1      16.135  -2.420  32.067  0.00  0.00    +0.277 C 
ENDBRANCH  20   2
BRANCH   4   5
ATOM      5  C   UNL     1      13.483  -9.470  30.619  0.00  0.00    +0.075 C 
ATOM     12  C   UNL     1      12.611 -10.663  30.262  0.00  0.00    +0.017 C 
BRANCH   5  11
ATOM      1  O   UNL     1      15.516 -10.641  30.294  0.00  0.00    -0.275 OA
ATOM      3  N   UNL     1      15.270  -8.649  29.124  0.00  0.00    -0.301 N 
ATOM     11  C   UNL     1      14.847  -9.647  30.002  0.00  0.00    +0.219 C 
ATOM     13  C   UNL     1      16.585  -8.749  28.487  0.00  0.00    +0.108 C 
ATOM     14  C   UNL     1      14.479  -7.479  28.724  0.00  0.00    +0.108 C 
ATOM     17  C   UNL     1      17.405  -7.484  28.727  0.00  0.00    +0.019 C 
ATOM     18  C   UNL     1      15.260  -6.189  28.968  0.00  0.00    +0.019 C 
ATOM     19  C   UNL     1      16.634  -6.236  28.301  0.00  0.00    +0.003 C 
ENDBRANCH   5  11
ENDBRANCH   4   5
TORSDOF 3
ENDMDL
