MODEL 1
REMARK VINA RESULT:      -6.7      0.000      0.000
REMARK  Name = 75536736
REMARK  9 active torsions:
REMARK  status: ('A' for Active; 'I' for Inactive)
REMARK    1  A    between atoms: O_2  and  C_10
REMARK    2  A    between atoms: N_4  and  C_9
REMARK    3  A    between atoms: N_4  and  C_14
REMARK    4  A    between atoms: N_5  and  C_13
REMARK    5  A    between atoms: N_6  and  C_17
REMARK    6  A    between atoms: C_11  and  C_13
REMARK    7  A    between atoms: C_14  and  C_15
REMARK    8  A    between atoms: C_17  and  C_20
REMARK    9  A    between atoms: C_17  and  C_21
REMARK                            x       y       z     vdW  Elec       q    Type
REMARK                         _______ _______ _______ _____ _____    ______ ____
ROOT
ATOM      1  O   UNL     1      -4.042   3.837  25.792  0.00  0.00    -0.371 OA
ATOM      9  C   UNL     1      -1.967   3.744  24.640  0.00  0.00    +0.111 C 
ATOM     10  C   UNL     1      -2.859   2.619  24.146  0.00  0.00    +0.164 C 
ATOM     11  C   UNL     1      -4.232   3.133  24.553  0.00  0.00    +0.165 C 
ATOM     12  C   UNL     1      -2.638   4.103  25.955  0.00  0.00    +0.181 C 
ENDROOT
BRANCH  10   2
ATOM      2  O   UNL     1      -2.763   2.420  22.749  0.00  0.00    -0.388 OA
ATOM     23  H   UNL     1      -2.591   1.477  22.585  0.00  0.00    +0.210 HD
ENDBRANCH  10   2
BRANCH   9   4
ATOM      4  N   UNL     1      -0.576   3.357  24.801  0.00  0.00    -0.304 NA
ATOM     22  H   UNL     1      -0.157   3.921  25.541  0.00  0.00    +0.123 HD
BRANCH   4  14
ATOM     14  C   UNL     1      -0.460   1.947  25.157  0.00  0.00    +0.136 C 
BRANCH  14  15
ATOM      7  N   UNL     1       1.640   1.557  23.817  0.00  0.00    -0.347 N 
ATOM      8  N   UNL     1       1.204  -0.274  22.639  0.00  0.00    -0.244 NA
ATOM     15  C   UNL     1       0.372   1.183  24.162  0.00  0.00    +0.049 A 
ATOM     18  C   UNL     1       0.125   0.051  23.422  0.00  0.00    +0.134 A 
ATOM     19  C   UNL     1       2.099   0.652  22.900  0.00  0.00    +0.196 A 
ATOM     26  H   UNL     1       2.150   2.355  24.173  0.00  0.00    +0.167 HD
ENDBRANCH  14  15
ENDBRANCH   4  14
ENDBRANCH   9   4
BRANCH  11  13
ATOM     13  C   UNL     1      -5.256   2.028  24.742  0.00  0.00    +0.140 C 
BRANCH  13   5
ATOM      3  O   UNL     1      -4.131  -0.349  23.557  0.00  0.00    -0.253 OA
ATOM      5  N   UNL     1      -4.691   0.904  25.430  0.00  0.00    -0.297 N 
ATOM      6  N   UNL     1      -3.682  -1.157  25.685  0.00  0.00    -0.297 N 
ATOM     16  C   UNL     1      -4.164  -0.215  24.779  0.00  0.00    +0.300 C 
ATOM     24  H   UNL     1      -4.686   0.915  26.446  0.00  0.00    +0.150 HD
ATOM     25  H   UNL     1      -3.685  -0.921  26.673  0.00  0.00    +0.150 HD
BRANCH   6  17
ATOM     17  C   UNL     1      -3.086  -2.405  25.273  0.00  0.00    +0.068 C 
ATOM     20  C   UNL     1      -3.904  -3.047  24.160  0.00  0.00    +0.027 C 
ATOM     21  C   UNL     1      -1.642  -2.184  24.840  0.00  0.00    +0.027 C 
ENDBRANCH   6  17
ENDBRANCH  13   5
ENDBRANCH  11  13
TORSDOF 7
ENDMDL
MODEL 2
REMARK VINA RESULT:      -6.2      2.052      4.574
REMARK  Name = 75536736
REMARK  9 active torsions:
REMARK  status: ('A' for Active; 'I' for Inactive)
REMARK    1  A    between atoms: O_2  and  C_10
REMARK    2  A    between atoms: N_4  and  C_9
REMARK    3  A    between atoms: N_4  and  C_14
REMARK    4  A    between atoms: N_5  and  C_13
REMARK    5  A    between atoms: N_6  and  C_17
REMARK    6  A    between atoms: C_11  and  C_13
REMARK    7  A    between atoms: C_14  and  C_15
REMARK    8  A    between atoms: C_17  and  C_20
REMARK    9  A    between atoms: C_17  and  C_21
REMARK                            x       y       z     vdW  Elec       q    Type
REMARK                         _______ _______ _______ _____ _____    ______ ____
ROOT
ATOM      1  O   UNL     1       0.055   3.362  23.637  0.00  0.00    -0.371 OA
ATOM      9  C   UNL     1      -1.024   3.779  25.712  0.00  0.00    +0.111 C 
ATOM     10  C   UNL     1      -0.615   2.319  25.651  0.00  0.00    +0.164 C 
ATOM     11  C   UNL     1       0.469   2.361  24.583  0.00  0.00    +0.165 C 
ATOM     12  C   UNL     1      -0.971   4.167  24.244  0.00  0.00    +0.181 C 
ENDROOT
BRANCH  10   2
ATOM      2  O   UNL     1      -0.119   1.839  26.886  0.00  0.00    -0.388 OA
ATOM     23  H   UNL     1      -0.136   0.867  26.865  0.00  0.00    +0.210 HD
ENDBRANCH  10   2
BRANCH   9   4
ATOM      4  N   UNL     1      -2.331   3.995  26.308  0.00  0.00    -0.304 NA
ATOM     22  H   UNL     1      -2.290   4.816  26.912  0.00  0.00    +0.123 HD
BRANCH   4  14
ATOM     14  C   UNL     1      -3.347   4.210  25.285  0.00  0.00    +0.136 C 
BRANCH  14  15
ATOM      7  N   UNL     1      -5.560   3.088  25.737  0.00  0.00    -0.347 N 
ATOM      8  N   UNL     1      -5.360   1.086  24.797  0.00  0.00    -0.244 NA
ATOM     15  C   UNL     1      -4.306   3.053  25.194  0.00  0.00    +0.049 A 
ATOM     18  C   UNL     1      -4.206   1.808  24.620  0.00  0.00    +0.134 A 
ATOM     19  C   UNL     1      -6.155   1.886  25.473  0.00  0.00    +0.196 A 
ATOM     26  H   UNL     1      -5.975   3.860  26.242  0.00  0.00    +0.167 HD
ENDBRANCH  14  15
ENDBRANCH   4  14
ENDBRANCH   9   4
BRANCH  11  13
ATOM     13  C   UNL     1       0.665   1.034  23.873  0.00  0.00    +0.140 C 
BRANCH  13   5
ATOM      3  O   UNL     1      -0.493  -1.037  25.514  0.00  0.00    -0.253 OA
ATOM      5  N   UNL     1      -0.585   0.363  23.663  0.00  0.00    -0.297 N 
ATOM      6  N   UNL     1      -2.310  -1.115  24.073  0.00  0.00    -0.297 N 
ATOM     16  C   UNL     1      -1.077  -0.635  24.509  0.00  0.00    +0.300 C 
ATOM     24  H   UNL     1      -1.136   0.617  22.848  0.00  0.00    +0.150 HD
ATOM     25  H   UNL     1      -2.747  -0.666  23.274  0.00  0.00    +0.150 HD
BRANCH   6  17
ATOM     17  C   UNL     1      -3.036  -2.151  24.768  0.00  0.00    +0.068 C 
ATOM     20  C   UNL     1      -3.526  -1.646  26.120  0.00  0.00    +0.027 C 
ATOM     21  C   UNL     1      -4.194  -2.651  23.914  0.00  0.00    +0.027 C 
ENDBRANCH   6  17
ENDBRANCH  13   5
ENDBRANCH  11  13
TORSDOF 7
ENDMDL
MODEL 3
REMARK VINA RESULT:      -5.6      1.388      4.942
REMARK  Name = 75536736
REMARK  9 active torsions:
REMARK  status: ('A' for Active; 'I' for Inactive)
REMARK    1  A    between atoms: O_2  and  C_10
REMARK    2  A    between atoms: N_4  and  C_9
REMARK    3  A    between atoms: N_4  and  C_14
REMARK    4  A    between atoms: N_5  and  C_13
REMARK    5  A    between atoms: N_6  and  C_17
REMARK    6  A    between atoms: C_11  and  C_13
REMARK    7  A    between atoms: C_14  and  C_15
REMARK    8  A    between atoms: C_17  and  C_20
REMARK    9  A    between atoms: C_17  and  C_21
REMARK                            x       y       z     vdW  Elec       q    Type
REMARK                         _______ _______ _______ _____ _____    ______ ____
ROOT
ATOM      1  O   UNL     1      -1.898   2.718  23.378  0.00  0.00    -0.371 OA
ATOM      9  C   UNL     1      -4.159   2.601  24.096  0.00  0.00    +0.111 C 
ATOM     10  C   UNL     1      -3.273   2.892  25.294  0.00  0.00    +0.164 C 
ATOM     11  C   UNL     1      -2.029   3.444  24.613  0.00  0.00    +0.165 C 
ATOM     12  C   UNL     1      -3.148   2.063  23.098  0.00  0.00    +0.181 C 
ENDROOT
BRANCH  10   2
ATOM      2  O   UNL     1      -3.848   3.830  26.183  0.00  0.00    -0.388 OA
ATOM     23  H   UNL     1      -4.041   3.378  27.022  0.00  0.00    +0.210 HD
ENDBRANCH  10   2
BRANCH   9   4
ATOM      4  N   UNL     1      -5.232   1.662  24.378  0.00  0.00    -0.304 NA
ATOM     22  H   UNL     1      -5.386   1.077  23.557  0.00  0.00    +0.123 HD
BRANCH   4  14
ATOM     14  C   UNL     1      -4.897   0.808  25.512  0.00  0.00    +0.136 C 
BRANCH  14  15
ATOM      7  N   UNL     1      -3.215  -1.052  25.781  0.00  0.00    -0.347 N 
ATOM      8  N   UNL     1      -3.563  -2.362  24.021  0.00  0.00    -0.244 NA
ATOM     15  C   UNL     1      -4.230  -0.469  25.075  0.00  0.00    +0.049 A 
ATOM     18  C   UNL     1      -4.427  -1.295  23.994  0.00  0.00    +0.134 A 
ATOM     19  C   UNL     1      -2.847  -2.185  25.110  0.00  0.00    +0.196 A 
ATOM     26  H   UNL     1      -2.809  -0.711  26.642  0.00  0.00    +0.167 HD
ENDBRANCH  14  15
ENDBRANCH   4  14
ENDBRANCH   9   4
BRANCH  11  13
ATOM     13  C   UNL     1      -0.767   3.280  25.441  0.00  0.00    +0.140 C 
BRANCH  13   5
ATOM      3  O   UNL     1       0.049   0.610  24.712  0.00  0.00    -0.253 OA
ATOM      5  N   UNL     1       0.351   2.912  24.622  0.00  0.00    -0.297 N 
ATOM      6  N   UNL     1       1.811   1.516  23.504  0.00  0.00    -0.297 N 
ATOM     16  C   UNL     1       0.680   1.588  24.315  0.00  0.00    +0.300 C 
ATOM     24  H   UNL     1       0.944   3.651  24.257  0.00  0.00    +0.150 HD
ATOM     25  H   UNL     1       2.218   2.382  23.166  0.00  0.00    +0.150 HD
BRANCH   6  17
ATOM     17  C   UNL     1       2.363   0.265  23.041  0.00  0.00    +0.068 C 
ATOM     20  C   UNL     1       1.523  -0.303  21.903  0.00  0.00    +0.027 C 
ATOM     21  C   UNL     1       3.813   0.451  22.616  0.00  0.00    +0.027 C 
ENDBRANCH   6  17
ENDBRANCH  13   5
ENDBRANCH  11  13
TORSDOF 7
ENDMDL
MODEL 4
REMARK VINA RESULT:      -5.5      1.683      4.660
REMARK  Name = 75536736
REMARK  9 active torsions:
REMARK  status: ('A' for Active; 'I' for Inactive)
REMARK    1  A    between atoms: O_2  and  C_10
REMARK    2  A    between atoms: N_4  and  C_9
REMARK    3  A    between atoms: N_4  and  C_14
REMARK    4  A    between atoms: N_5  and  C_13
REMARK    5  A    between atoms: N_6  and  C_17
REMARK    6  A    between atoms: C_11  and  C_13
REMARK    7  A    between atoms: C_14  and  C_15
REMARK    8  A    between atoms: C_17  and  C_20
REMARK    9  A    between atoms: C_17  and  C_21
REMARK                            x       y       z     vdW  Elec       q    Type
REMARK                         _______ _______ _______ _____ _____    ______ ____
ROOT
ATOM      1  O   UNL     1      -1.177  -1.843  23.502  0.00  0.00    -0.371 OA
ATOM      9  C   UNL     1       0.081  -0.270  24.761  0.00  0.00    +0.111 C 
ATOM     10  C   UNL     1      -1.191  -0.607  25.518  0.00  0.00    +0.164 C 
ATOM     11  C   UNL     1      -1.567  -1.938  24.883  0.00  0.00    +0.165 C 
ATOM     12  C   UNL     1      -0.273  -0.734  23.358  0.00  0.00    +0.181 C 
ENDROOT
BRANCH  10   2
ATOM      2  O   UNL     1      -0.981  -0.729  26.912  0.00  0.00    -0.388 OA
ATOM     23  H   UNL     1      -1.548  -1.445  27.245  0.00  0.00    +0.210 HD
ENDBRANCH  10   2
BRANCH   9   4
ATOM      4  N   UNL     1       0.439   1.137  24.820  0.00  0.00    -0.304 NA
ATOM     22  H   UNL     1       1.418   1.242  24.553  0.00  0.00    +0.123 HD
BRANCH   4  14
ATOM     14  C   UNL     1      -0.387   1.927  23.914  0.00  0.00    +0.136 C 
BRANCH  14  15
ATOM      7  N   UNL     1      -1.854   3.036  25.640  0.00  0.00    -0.347 N 
ATOM      8  N   UNL     1      -1.570   5.209  25.283  0.00  0.00    -0.244 NA
ATOM     15  C   UNL     1      -0.975   3.133  24.598  0.00  0.00    +0.049 A 
ATOM     18  C   UNL     1      -0.816   4.483  24.396  0.00  0.00    +0.134 A 
ATOM     19  C   UNL     1      -2.184   4.308  26.018  0.00  0.00    +0.196 A 
ATOM     26  H   UNL     1      -2.200   2.182  26.058  0.00  0.00    +0.167 HD
ENDBRANCH  14  15
ENDBRANCH   4  14
ENDBRANCH   9   4
BRANCH  11  13
ATOM     13  C   UNL     1      -3.050  -2.252  24.976  0.00  0.00    +0.140 C 
BRANCH  13   5
ATOM      3  O   UNL     1      -3.922   0.008  23.408  0.00  0.00    -0.253 OA
ATOM      5  N   UNL     1      -3.796  -1.117  25.437  0.00  0.00    -0.297 N 
ATOM      6  N   UNL     1      -4.894   0.910  25.313  0.00  0.00    -0.297 N 
ATOM     16  C   UNL     1      -4.181  -0.058  24.609  0.00  0.00    +0.300 C 
ATOM     24  H   UNL     1      -4.045  -1.073  26.421  0.00  0.00    +0.150 HD
ATOM     25  H   UNL     1      -5.122   0.729  26.285  0.00  0.00    +0.150 HD
BRANCH   6  17
ATOM     17  C   UNL     1      -5.408   2.108  24.692  0.00  0.00    +0.068 C 
ATOM     20  C   UNL     1      -5.755   3.151  25.747  0.00  0.00    +0.027 C 
ATOM     21  C   UNL     1      -4.404   2.655  23.686  0.00  0.00    +0.027 C 
ENDBRANCH   6  17
ENDBRANCH  13   5
ENDBRANCH  11  13
TORSDOF 7
ENDMDL
MODEL 5
REMARK VINA RESULT:      -5.4      1.985      4.523
REMARK  Name = 75536736
REMARK  9 active torsions:
REMARK  status: ('A' for Active; 'I' for Inactive)
REMARK    1  A    between atoms: O_2  and  C_10
REMARK    2  A    between atoms: N_4  and  C_9
REMARK    3  A    between atoms: N_4  and  C_14
REMARK    4  A    between atoms: N_5  and  C_13
REMARK    5  A    between atoms: N_6  and  C_17
REMARK    6  A    between atoms: C_11  and  C_13
REMARK    7  A    between atoms: C_14  and  C_15
REMARK    8  A    between atoms: C_17  and  C_20
REMARK    9  A    between atoms: C_17  and  C_21
REMARK                            x       y       z     vdW  Elec       q    Type
REMARK                         _______ _______ _______ _____ _____    ______ ____
ROOT
ATOM      1  O   UNL     1      -1.702  -2.554  23.866  0.00  0.00    -0.371 OA
ATOM      9  C   UNL     1      -0.016  -0.968  24.395  0.00  0.00    +0.111 C 
ATOM     10  C   UNL     1      -1.238  -0.696  25.253  0.00  0.00    +0.164 C 
ATOM     11  C   UNL     1      -1.949  -2.040  25.186  0.00  0.00    +0.165 C 
ATOM     12  C   UNL     1      -0.610  -1.819  23.286  0.00  0.00    +0.181 C 
ENDROOT
BRANCH  10   2
ATOM      2  O   UNL     1      -0.905  -0.341  26.581  0.00  0.00    -0.388 OA
ATOM     23  H   UNL     1      -1.191  -1.060  27.170  0.00  0.00    +0.210 HD
ENDBRANCH  10   2
BRANCH   9   4
ATOM      4  N   UNL     1       0.629   0.237  23.900  0.00  0.00    -0.304 NA
ATOM     22  H   UNL     1       1.248   0.603  24.624  0.00  0.00    +0.123 HD
BRANCH   4  14
ATOM     14  C   UNL     1       1.412  -0.041  22.702  0.00  0.00    +0.136 C 
BRANCH  14  15
ATOM      7  N   UNL     1       3.571  -1.044  23.535  0.00  0.00    -0.347 N 
ATOM      8  N   UNL     1       5.082   0.546  23.188  0.00  0.00    -0.244 NA
ATOM     15  C   UNL     1       2.892   0.002  22.977  0.00  0.00    +0.049 A 
ATOM     18  C   UNL     1       3.846   0.972  22.772  0.00  0.00    +0.134 A 
ATOM     19  C   UNL     1       4.883  -0.672  23.642  0.00  0.00    +0.196 A 
ATOM     26  H   UNL     1       3.179  -1.933  23.817  0.00  0.00    +0.167 HD
ENDBRANCH  14  15
ENDBRANCH   4  14
ENDBRANCH   9   4
BRANCH  11  13
ATOM     13  C   UNL     1      -3.445  -1.942  25.427  0.00  0.00    +0.140 C 
BRANCH  13   5
ATOM      3  O   UNL     1      -4.014   0.210  23.591  0.00  0.00    -0.253 OA
ATOM      5  N   UNL     1      -3.834  -0.603  25.760  0.00  0.00    -0.297 N 
ATOM      6  N   UNL     1      -4.449   1.593  25.402  0.00  0.00    -0.297 N 
ATOM     16  C   UNL     1      -4.092   0.386  24.805  0.00  0.00    +0.300 C 
ATOM     24  H   UNL     1      -3.912  -0.355  26.742  0.00  0.00    +0.150 HD
ATOM     25  H   UNL     1      -4.560   1.619  26.411  0.00  0.00    +0.150 HD
BRANCH   6  17
ATOM     17  C   UNL     1      -4.768   2.778  24.640  0.00  0.00    +0.068 C 
ATOM     20  C   UNL     1      -5.585   3.751  25.481  0.00  0.00    +0.027 C 
ATOM     21  C   UNL     1      -3.494   3.432  24.122  0.00  0.00    +0.027 C 
ENDBRANCH   6  17
ENDBRANCH  13   5
ENDBRANCH  11  13
TORSDOF 7
ENDMDL
MODEL 6
REMARK VINA RESULT:      -5.4      1.893      4.645
REMARK  Name = 75536736
REMARK  9 active torsions:
REMARK  status: ('A' for Active; 'I' for Inactive)
REMARK    1  A    between atoms: O_2  and  C_10
REMARK    2  A    between atoms: N_4  and  C_9
REMARK    3  A    between atoms: N_4  and  C_14
REMARK    4  A    between atoms: N_5  and  C_13
REMARK    5  A    between atoms: N_6  and  C_17
REMARK    6  A    between atoms: C_11  and  C_13
REMARK    7  A    between atoms: C_14  and  C_15
REMARK    8  A    between atoms: C_17  and  C_20
REMARK    9  A    between atoms: C_17  and  C_21
REMARK                            x       y       z     vdW  Elec       q    Type
REMARK                         _______ _______ _______ _____ _____    ______ ____
ROOT
ATOM      1  O   UNL     1      -2.951  -2.770  23.925  0.00  0.00    -0.371 OA
ATOM      9  C   UNL     1      -1.062  -1.987  25.133  0.00  0.00    +0.111 C 
ATOM     10  C   UNL     1      -2.170  -0.954  25.223  0.00  0.00    +0.164 C 
ATOM     11  C   UNL     1      -3.390  -1.802  24.894  0.00  0.00    +0.165 C 
ATOM     12  C   UNL     1      -1.513  -2.808  23.938  0.00  0.00    +0.181 C 
ENDROOT
BRANCH  10   2
ATOM      2  O   UNL     1      -2.266  -0.367  26.506  0.00  0.00    -0.388 OA
ATOM     23  H   UNL     1      -3.177  -0.048  26.629  0.00  0.00    +0.210 HD
ENDBRANCH  10   2
BRANCH   9   4
ATOM      4  N   UNL     1       0.261  -1.410  24.958  0.00  0.00    -0.304 NA
ATOM     22  H   UNL     1       0.935  -2.162  24.812  0.00  0.00    +0.123 HD
BRANCH   4  14
ATOM     14  C   UNL     1       0.295  -0.514  23.808  0.00  0.00    +0.136 C 
BRANCH  14  15
ATOM      7  N   UNL     1       0.279   1.447  25.393  0.00  0.00    -0.347 N 
ATOM      8  N   UNL     1      -0.801   3.038  24.283  0.00  0.00    -0.244 NA
ATOM     15  C   UNL     1      -0.057   0.900  24.187  0.00  0.00    +0.049 A 
ATOM     18  C   UNL     1      -0.723   1.901  23.520  0.00  0.00    +0.134 A 
ATOM     19  C   UNL     1      -0.188   2.732  25.406  0.00  0.00    +0.196 A 
ATOM     26  H   UNL     1       0.782   0.989  26.142  0.00  0.00    +0.167 HD
ENDBRANCH  14  15
ENDBRANCH   4  14
ENDBRANCH   9   4
BRANCH  11  13
ATOM     13  C   UNL     1      -4.547  -0.998  24.327  0.00  0.00    +0.140 C 
BRANCH  13   5
ATOM      3  O   UNL     1      -5.303   1.332  25.851  0.00  0.00    -0.253 OA
ATOM      5  N   UNL     1      -4.164   0.360  24.075  0.00  0.00    -0.297 N 
ATOM      6  N   UNL     1      -4.061   2.645  24.395  0.00  0.00    -0.297 N 
ATOM     16  C   UNL     1      -4.576   1.438  24.864  0.00  0.00    +0.300 C 
ATOM     24  H   UNL     1      -3.575   0.552  23.270  0.00  0.00    +0.150 HD
ATOM     25  H   UNL     1      -3.408   2.620  23.617  0.00  0.00    +0.150 HD
BRANCH   6  17
ATOM     17  C   UNL     1      -4.333   3.912  25.031  0.00  0.00    +0.068 C 
ATOM     20  C   UNL     1      -5.789   3.985  25.475  0.00  0.00    +0.027 C 
ATOM     21  C   UNL     1      -3.387   4.129  26.204  0.00  0.00    +0.027 C 
ENDBRANCH   6  17
ENDBRANCH  13   5
ENDBRANCH  11  13
TORSDOF 7
ENDMDL
MODEL 7
REMARK VINA RESULT:      -5.2      1.898      4.383
REMARK  Name = 75536736
REMARK  9 active torsions:
REMARK  status: ('A' for Active; 'I' for Inactive)
REMARK    1  A    between atoms: O_2  and  C_10
REMARK    2  A    between atoms: N_4  and  C_9
REMARK    3  A    between atoms: N_4  and  C_14
REMARK    4  A    between atoms: N_5  and  C_13
REMARK    5  A    between atoms: N_6  and  C_17
REMARK    6  A    between atoms: C_11  and  C_13
REMARK    7  A    between atoms: C_14  and  C_15
REMARK    8  A    between atoms: C_17  and  C_20
REMARK    9  A    between atoms: C_17  and  C_21
REMARK                            x       y       z     vdW  Elec       q    Type
REMARK                         _______ _______ _______ _____ _____    ______ ____
ROOT
ATOM      1  O   UNL     1       0.107   3.583  25.830  0.00  0.00    -0.371 OA
ATOM      9  C   UNL     1      -0.089   1.512  24.683  0.00  0.00    +0.111 C 
ATOM     10  C   UNL     1      -1.323   2.351  24.406  0.00  0.00    +0.164 C 
ATOM     11  C   UNL     1      -0.811   3.745  24.735  0.00  0.00    +0.165 C 
ATOM     12  C   UNL     1       0.464   2.192  25.924  0.00  0.00    +0.181 C 
ENDROOT
BRANCH  10   2
ATOM      2  O   UNL     1      -1.759   2.253  23.064  0.00  0.00    -0.388 OA
ATOM     23  H   UNL     1      -2.251   3.062  22.842  0.00  0.00    +0.210 HD
ENDBRANCH  10   2
BRANCH   9   4
ATOM      4  N   UNL     1      -0.376   0.102  24.890  0.00  0.00    -0.304 NA
ATOM     22  H   UNL     1       0.409  -0.328  25.380  0.00  0.00    +0.123 HD
BRANCH   4  14
ATOM     14  C   UNL     1      -1.586  -0.076  25.683  0.00  0.00    +0.136 C 
BRANCH  14  15
ATOM      7  N   UNL     1      -2.495  -2.319  24.974  0.00  0.00    -0.347 N 
ATOM      8  N   UNL     1      -4.324  -1.826  23.816  0.00  0.00    -0.244 NA
ATOM     15  C   UNL     1      -2.589  -0.956  24.986  0.00  0.00    +0.049 A 
ATOM     18  C   UNL     1      -3.725  -0.675  24.265  0.00  0.00    +0.134 A 
ATOM     19  C   UNL     1      -3.558  -2.798  24.260  0.00  0.00    +0.196 A 
ATOM     26  H   UNL     1      -1.773  -2.876  25.413  0.00  0.00    +0.167 HD
ENDBRANCH  14  15
ENDBRANCH   4  14
ENDBRANCH   9   4
BRANCH  11  13
ATOM     13  C   UNL     1      -1.913   4.713  25.130  0.00  0.00    +0.140 C 
BRANCH  13   5
ATOM      3  O   UNL     1      -4.421   3.691  24.134  0.00  0.00    -0.253 OA
ATOM      5  N   UNL     1      -2.939   4.056  25.886  0.00  0.00    -0.297 N 
ATOM      6  N   UNL     1      -4.950   2.994  26.283  0.00  0.00    -0.297 N 
ATOM     16  C   UNL     1      -4.132   3.589  25.325  0.00  0.00    +0.300 C 
ATOM     24  H   UNL     1      -2.798   3.938  26.885  0.00  0.00    +0.150 HD
ATOM     25  H   UNL     1      -4.590   2.889  27.227  0.00  0.00    +0.150 HD
BRANCH   6  17
ATOM     17  C   UNL     1      -6.240   2.428  25.968  0.00  0.00    +0.068 C 
ATOM     20  C   UNL     1      -6.172   1.633  24.669  0.00  0.00    +0.027 C 
ATOM     21  C   UNL     1      -6.734   1.562  27.119  0.00  0.00    +0.027 C 
ENDBRANCH   6  17
ENDBRANCH  13   5
ENDBRANCH  11  13
TORSDOF 7
ENDMDL
MODEL 8
REMARK VINA RESULT:      -5.1     14.385     16.817
REMARK  Name = 75536736
REMARK  9 active torsions:
REMARK  status: ('A' for Active; 'I' for Inactive)
REMARK    1  A    between atoms: O_2  and  C_10
REMARK    2  A    between atoms: N_4  and  C_9
REMARK    3  A    between atoms: N_4  and  C_14
REMARK    4  A    between atoms: N_5  and  C_13
REMARK    5  A    between atoms: N_6  and  C_17
REMARK    6  A    between atoms: C_11  and  C_13
REMARK    7  A    between atoms: C_14  and  C_15
REMARK    8  A    between atoms: C_17  and  C_20
REMARK    9  A    between atoms: C_17  and  C_21
REMARK                            x       y       z     vdW  Elec       q    Type
REMARK                         _______ _______ _______ _____ _____    ______ ____
ROOT
ATOM      1  O   UNL     1      -3.447 -10.653  14.180  0.00  0.00    -0.371 OA
ATOM      9  C   UNL     1      -3.724  -9.975  11.920  0.00  0.00    +0.111 C 
ATOM     10  C   UNL     1      -5.090 -10.111  12.568  0.00  0.00    +0.164 C 
ATOM     11  C   UNL     1      -4.727 -10.013  14.043  0.00  0.00    +0.165 C 
ATOM     12  C   UNL     1      -2.858 -10.781  12.873  0.00  0.00    +0.181 C 
ENDROOT
BRANCH  10   2
ATOM      2  O   UNL     1      -5.984  -9.087  12.176  0.00  0.00    -0.388 OA
ATOM     23  H   UNL     1      -5.507  -8.469  11.596  0.00  0.00    +0.210 HD
ENDBRANCH  10   2
BRANCH   9   4
ATOM      4  N   UNL     1      -3.675 -10.469  10.554  0.00  0.00    -0.304 NA
ATOM     22  H   UNL     1      -4.457 -11.105  10.402  0.00  0.00    +0.123 HD
BRANCH   4  14
ATOM     14  C   UNL     1      -3.762  -9.373   9.597  0.00  0.00    +0.136 C 
BRANCH  14  15
ATOM      7  N   UNL     1      -5.844  -8.011   9.185  0.00  0.00    -0.347 N 
ATOM      8  N   UNL     1      -7.222  -9.416   8.156  0.00  0.00    -0.244 NA
ATOM     15  C   UNL     1      -5.164  -9.191   9.078  0.00  0.00    +0.049 A 
ATOM     18  C   UNL     1      -6.034 -10.043   8.440  0.00  0.00    +0.134 A 
ATOM     19  C   UNL     1      -7.075  -8.194   8.618  0.00  0.00    +0.196 A 
ATOM     26  H   UNL     1      -5.503  -7.156   9.606  0.00  0.00    +0.167 HD
ENDBRANCH  14  15
ENDBRANCH   4  14
ENDBRANCH   9   4
BRANCH  11  13
ATOM     13  C   UNL     1      -5.737 -10.685  14.956  0.00  0.00    +0.140 C 
BRANCH  13   5
ATOM      3  O   UNL     1      -7.013  -9.657  17.331  0.00  0.00    -0.253 OA
ATOM      5  N   UNL     1      -6.958  -9.937  15.026  0.00  0.00    -0.297 N 
ATOM      6  N   UNL     1      -8.699  -8.777  16.002  0.00  0.00    -0.297 N 
ATOM     16  C   UNL     1      -7.512  -9.473  16.222  0.00  0.00    +0.300 C 
ATOM     24  H   UNL     1      -7.454  -9.746  14.160  0.00  0.00    +0.150 HD
ATOM     25  H   UNL     1      -8.991  -8.613  15.043  0.00  0.00    +0.150 HD
BRANCH   6  17
ATOM     17  C   UNL     1      -9.474  -8.193  17.071  0.00  0.00    +0.068 C 
ATOM     20  C   UNL     1     -10.370  -7.082  16.538  0.00  0.00    +0.027 C 
ATOM     21  C   UNL     1     -10.289  -9.266  17.781  0.00  0.00    +0.027 C 
ENDBRANCH   6  17
ENDBRANCH  13   5
ENDBRANCH  11  13
TORSDOF 7
ENDMDL
MODEL 9
REMARK VINA RESULT:      -4.5      1.716      5.952
REMARK  Name = 75536736
REMARK  9 active torsions:
REMARK  status: ('A' for Active; 'I' for Inactive)
REMARK    1  A    between atoms: O_2  and  C_10
REMARK    2  A    between atoms: N_4  and  C_9
REMARK    3  A    between atoms: N_4  and  C_14
REMARK    4  A    between atoms: N_5  and  C_13
REMARK    5  A    between atoms: N_6  and  C_17
REMARK    6  A    between atoms: C_11  and  C_13
REMARK    7  A    between atoms: C_14  and  C_15
REMARK    8  A    between atoms: C_17  and  C_20
REMARK    9  A    between atoms: C_17  and  C_21
REMARK                            x       y       z     vdW  Elec       q    Type
REMARK                         _______ _______ _______ _____ _____    ______ ____
ROOT
ATOM      1  O   UNL     1      -0.804  -0.526  26.062  0.00  0.00    -0.371 OA
ATOM      9  C   UNL     1      -2.605  -1.917  25.380  0.00  0.00    +0.111 C 
ATOM     10  C   UNL     1      -1.706  -1.650  24.186  0.00  0.00    +0.164 C 
ATOM     11  C   UNL     1      -0.413  -1.242  24.878  0.00  0.00    +0.165 C 
ATOM     12  C   UNL     1      -2.192  -0.800  26.323  0.00  0.00    +0.181 C 
ENDROOT
BRANCH  10   2
ATOM      2  O   UNL     1      -1.530  -2.791  23.369  0.00  0.00    -0.388 OA
ATOM     23  H   UNL     1      -1.857  -3.568  23.854  0.00  0.00    +0.210 HD
ENDBRANCH  10   2
BRANCH   9   4
ATOM      4  N   UNL     1      -4.022  -1.893  25.060  0.00  0.00    -0.304 NA
ATOM     22  H   UNL     1      -4.547  -1.631  25.894  0.00  0.00    +0.123 HD
BRANCH   4  14
ATOM     14  C   UNL     1      -4.305  -0.933  24.000  0.00  0.00    +0.136 C 
BRANCH  14  15
ATOM      7  N   UNL     1      -4.350   1.588  24.005  0.00  0.00    -0.347 N 
ATOM      8  N   UNL     1      -5.652   2.109  25.727  0.00  0.00    -0.244 NA
ATOM     15  C   UNL     1      -4.741   0.399  24.551  0.00  0.00    +0.049 A 
ATOM     18  C   UNL     1      -5.543   0.745  25.613  0.00  0.00    +0.134 A 
ATOM     19  C   UNL     1      -4.922   2.587  24.744  0.00  0.00    +0.196 A 
ATOM     26  H   UNL     1      -3.749   1.712  23.201  0.00  0.00    +0.167 HD
ENDBRANCH  14  15
ENDBRANCH   4  14
ENDBRANCH   9   4
BRANCH  11  13
ATOM     13  C   UNL     1       0.478  -0.363  24.017  0.00  0.00    +0.140 C 
BRANCH  13   5
ATOM      3  O   UNL     1      -1.612   1.584  23.610  0.00  0.00    -0.253 OA
ATOM      5  N   UNL     1       0.465   0.997  24.471  0.00  0.00    -0.297 N 
ATOM      6  N   UNL     1      -0.345   3.137  24.781  0.00  0.00    -0.297 N 
ATOM     16  C   UNL     1      -0.592   1.881  24.230  0.00  0.00    +0.300 C 
ATOM     24  H   UNL     1       1.272   1.341  24.982  0.00  0.00    +0.150 HD
ATOM     25  H   UNL     1       0.493   3.261  25.341  0.00  0.00    +0.150 HD
BRANCH   6  17
ATOM     17  C   UNL     1      -1.277   4.233  24.676  0.00  0.00    +0.068 C 
ATOM     20  C   UNL     1      -2.262   4.212  25.839  0.00  0.00    +0.027 C 
ATOM     21  C   UNL     1      -0.530   5.559  24.611  0.00  0.00    +0.027 C 
ENDBRANCH   6  17
ENDBRANCH  13   5
ENDBRANCH  11  13
TORSDOF 7
ENDMDL
MODEL 10
REMARK VINA RESULT:      -4.2      2.556      6.646
REMARK  Name = 75536736
REMARK  9 active torsions:
REMARK  status: ('A' for Active; 'I' for Inactive)
REMARK    1  A    between atoms: O_2  and  C_10
REMARK    2  A    between atoms: N_4  and  C_9
REMARK    3  A    between atoms: N_4  and  C_14
REMARK    4  A    between atoms: N_5  and  C_13
REMARK    5  A    between atoms: N_6  and  C_17
REMARK    6  A    between atoms: C_11  and  C_13
REMARK    7  A    between atoms: C_14  and  C_15
REMARK    8  A    between atoms: C_17  and  C_20
REMARK    9  A    between atoms: C_17  and  C_21
REMARK                            x       y       z     vdW  Elec       q    Type
REMARK                         _______ _______ _______ _____ _____    ______ ____
ROOT
ATOM      1  O   UNL     1      -0.365   0.800  25.038  0.00  0.00    -0.371 OA
ATOM      9  C   UNL     1      -2.242  -0.552  25.578  0.00  0.00    +0.111 C 
ATOM     10  C   UNL     1      -1.657  -1.022  24.259  0.00  0.00    +0.164 C 
ATOM     11  C   UNL     1      -0.247  -0.454  24.345  0.00  0.00    +0.165 C 
ATOM     12  C   UNL     1      -1.646   0.840  25.693  0.00  0.00    +0.181 C 
ENDROOT
BRANCH  10   2
ATOM      2  O   UNL     1      -1.651  -2.431  24.135  0.00  0.00    -0.388 OA
ATOM     23  H   UNL     1      -0.731  -2.740  24.195  0.00  0.00    +0.210 HD
ENDBRANCH  10   2
BRANCH   9   4
ATOM      4  N   UNL     1      -3.696  -0.550  25.603  0.00  0.00    -0.304 NA
ATOM     22  H   UNL     1      -4.012  -0.131  26.478  0.00  0.00    +0.123 HD
BRANCH   4  14
ATOM     14  C   UNL     1      -4.239   0.216  24.487  0.00  0.00    +0.136 C 
BRANCH  14  15
ATOM      7  N   UNL     1      -4.097   2.731  24.598  0.00  0.00    -0.347 N 
ATOM      8  N   UNL     1      -5.864   3.325  25.807  0.00  0.00    -0.244 NA
ATOM     15  C   UNL     1      -4.736   1.568  24.924  0.00  0.00    +0.049 A 
ATOM     18  C   UNL     1      -5.823   1.960  25.670  0.00  0.00    +0.134 A 
ATOM     19  C   UNL     1      -4.811   3.759  25.150  0.00  0.00    +0.196 A 
ATOM     26  H   UNL     1      -3.252   2.820  24.050  0.00  0.00    +0.167 HD
ENDBRANCH  14  15
ENDBRANCH   4  14
ENDBRANCH   9   4
BRANCH  11  13
ATOM     13  C   UNL     1       0.395  -0.231  22.987  0.00  0.00    +0.140 C 
BRANCH  13   5
ATOM      3  O   UNL     1       2.718   1.452  23.300  0.00  0.00    -0.253 OA
ATOM      5  N   UNL     1       1.767  -0.644  22.983  0.00  0.00    -0.297 N 
ATOM      6  N   UNL     1       4.063  -0.428  23.098  0.00  0.00    -0.297 N 
ATOM     16  C   UNL     1       2.840   0.238  23.141  0.00  0.00    +0.300 C 
ATOM     24  H   UNL     1       1.972  -1.630  22.844  0.00  0.00    +0.150 HD
ATOM     25  H   UNL     1       4.058  -1.442  23.040  0.00  0.00    +0.150 HD
BRANCH   6  17
ATOM     17  C   UNL     1       5.329   0.251  23.236  0.00  0.00    +0.068 C 
ATOM     20  C   UNL     1       5.603   0.581  24.699  0.00  0.00    +0.027 C 
ATOM     21  C   UNL     1       6.450  -0.592  22.642  0.00  0.00    +0.027 C 
ENDBRANCH   6  17
ENDBRANCH  13   5
ENDBRANCH  11  13
TORSDOF 7
ENDMDL
