MODEL 1
REMARK VINA RESULT:      16.9      0.000      0.000
REMARK  Name = 40587799
REMARK  4 active torsions:
REMARK  status: ('A' for Active; 'I' for Inactive)
REMARK    1  A    between atoms: S_1  and  C_25
REMARK    2  A    between atoms: S_1  and  C_31
REMARK    3  A    between atoms: N_6  and  C_22
REMARK    4  A    between atoms: C_14  and  C_19
REMARK                            x       y       z     vdW  Elec       q    Type
REMARK                         _______ _______ _______ _____ _____    ______ ____
ROOT
ATOM      2  O   UNL     1       0.747   2.243  27.303  0.00  0.00    -0.268 OA
ATOM      3  O   UNL     1       0.995   0.099  21.948  0.00  0.00    -0.252 OA
ATOM      4  N   UNL     1      -0.786   1.358  25.767  0.00  0.00    -0.311 N 
ATOM      5  N   UNL     1      -0.318  -0.903  23.568  0.00  0.00    -0.284 N 
ATOM      6  N   UNL     1       2.016  -1.247  23.539  0.00  0.00    -0.269 N 
ATOM      7  C   UNL     1      -1.432  -1.121  25.797  0.00  0.00    +0.027 C 
ATOM      8  C   UNL     1      -2.390   0.373  24.101  0.00  0.00    +0.054 C 
ATOM      9  C   UNL     1      -2.738  -0.645  25.185  0.00  0.00    +0.018 C 
ATOM     10  C   UNL     1      -0.758   0.072  26.477  0.00  0.00    +0.130 C 
ATOM     11  C   UNL     1      -0.517  -1.768  24.741  0.00  0.00    +0.114 C 
ATOM     12  C   UNL     1      -1.546  -0.322  23.016  0.00  0.00    +0.119 C 
ATOM     13  C   UNL     1      -1.637   1.581  24.668  0.00  0.00    +0.034 A 
ATOM     14  C   UNL     1      -1.742   2.826  24.136  0.00  0.00    +0.002 A 
ATOM     15  C   UNL     1      -0.001   2.378  26.334  0.00  0.00    +0.252 A 
ATOM     16  C   UNL     1       0.918  -0.623  22.946  0.00  0.00    +0.306 C 
ATOM     17  C   UNL     1      -0.944   3.903  24.689  0.00  0.00    +0.015 A 
ATOM     18  C   UNL     1      -0.109   3.717  25.711  0.00  0.00    +0.071 A 
ATOM     32  H   UNL     1       1.868  -2.145  23.987  0.00  0.00    +0.156 HD
ENDROOT
BRANCH  14  19
ATOM     19  C   UNL     1      -2.634   3.112  22.990  0.00  0.00    -0.016 A 
ATOM     20  C   UNL     1      -2.359   2.561  21.739  0.00  0.00    +0.009 A 
ATOM     21  C   UNL     1      -3.748   3.934  23.161  0.00  0.00    +0.009 A 
ATOM     23  C   UNL     1      -3.199   2.830  20.658  0.00  0.00    +0.015 A 
ATOM     24  C   UNL     1      -4.588   4.203  22.080  0.00  0.00    +0.015 A 
ATOM     25  C   UNL     1      -4.313   3.651  20.829  0.00  0.00    +0.008 A 
BRANCH  25   1
ATOM      1  S   UNL     1      -5.386   3.996  19.448  0.00  0.00    -0.129 S 
ATOM     31  C   UNL     1      -6.736   2.814  19.727  0.00  0.00    +0.090 C 
ENDBRANCH  25   1
ENDBRANCH  14  19
BRANCH   6  22
ATOM     22  C   UNL     1       3.350  -0.774  23.582  0.00  0.00    +0.035 A 
ATOM     26  C   UNL     1       4.368  -1.600  24.058  0.00  0.00    +0.023 A 
ATOM     27  C   UNL     1       3.646   0.520  23.149  0.00  0.00    +0.023 A 
ATOM     28  C   UNL     1       5.682  -1.134  24.101  0.00  0.00    +0.002 A 
ATOM     29  C   UNL     1       4.960   0.985  23.193  0.00  0.00    +0.002 A 
ATOM     30  C   UNL     1       5.979   0.158  23.668  0.00  0.00    +0.000 A 
ENDBRANCH   6  22
TORSDOF 3
ENDMDL
MODEL 2
REMARK VINA RESULT:      19.5      2.996      4.985
REMARK  Name = 40587799
REMARK  4 active torsions:
REMARK  status: ('A' for Active; 'I' for Inactive)
REMARK    1  A    between atoms: S_1  and  C_25
REMARK    2  A    between atoms: S_1  and  C_31
REMARK    3  A    between atoms: N_6  and  C_22
REMARK    4  A    between atoms: C_14  and  C_19
REMARK                            x       y       z     vdW  Elec       q    Type
REMARK                         _______ _______ _______ _____ _____    ______ ____
ROOT
ATOM      2  O   UNL     1       0.233  -2.297  26.028  0.00  0.00    -0.268 OA
ATOM      3  O   UNL     1      -1.186   3.242  26.823  0.00  0.00    -0.252 OA
ATOM      4  N   UNL     1      -0.851  -0.638  24.779  0.00  0.00    -0.311 N 
ATOM      5  N   UNL     1      -0.348   2.511  24.794  0.00  0.00    -0.284 N 
ATOM      6  N   UNL     1       1.098   2.885  26.620  0.00  0.00    -0.269 N 
ATOM      7  C   UNL     1       0.423   0.830  23.110  0.00  0.00    +0.027 C 
ATOM      8  C   UNL     1      -1.981   1.182  23.462  0.00  0.00    +0.054 C 
ATOM      9  C   UNL     1      -0.914   0.939  22.397  0.00  0.00    +0.018 C 
ATOM     10  C   UNL     1       0.384  -0.399  24.019  0.00  0.00    +0.130 C 
ATOM     11  C   UNL     1       0.748   2.113  23.898  0.00  0.00    +0.114 C 
ATOM     12  C   UNL     1      -1.678   2.513  24.177  0.00  0.00    +0.119 C 
ATOM     13  C   UNL     1      -2.050   0.037  24.478  0.00  0.00    +0.034 A 
ATOM     14  C   UNL     1      -3.202  -0.320  25.103  0.00  0.00    +0.002 A 
ATOM     15  C   UNL     1      -0.783  -1.664  25.737  0.00  0.00    +0.252 A 
ATOM     16  C   UNL     1      -0.213   2.900  26.144  0.00  0.00    +0.306 C 
ATOM     17  C   UNL     1      -3.170  -1.371  26.101  0.00  0.00    +0.015 A 
ATOM     18  C   UNL     1      -2.046  -2.008  26.428  0.00  0.00    +0.071 A 
ATOM     32  H   UNL     1       1.845   3.079  25.963  0.00  0.00    +0.156 HD
ENDROOT
BRANCH  14  19
ATOM     19  C   UNL     1      -4.489   0.350  24.809  0.00  0.00    -0.016 A 
ATOM     20  C   UNL     1      -4.675   1.686  25.162  0.00  0.00    +0.009 A 
ATOM     21  C   UNL     1      -5.515  -0.356  24.180  0.00  0.00    +0.009 A 
ATOM     23  C   UNL     1      -5.888   2.318  24.886  0.00  0.00    +0.015 A 
ATOM     24  C   UNL     1      -6.727   0.277  23.903  0.00  0.00    +0.015 A 
ATOM     25  C   UNL     1      -6.914   1.613  24.257  0.00  0.00    +0.008 A 
BRANCH  25   1
ATOM      1  S   UNL     1      -8.463   2.420  23.904  0.00  0.00    -0.129 S 
ATOM     31  C   UNL     1      -9.023   1.515  22.433  0.00  0.00    +0.090 C 
ENDBRANCH  25   1
ENDBRANCH  14  19
BRANCH   6  22
ATOM     22  C   UNL     1       1.524   2.639  27.948  0.00  0.00    +0.035 A 
ATOM     26  C   UNL     1       0.588   2.334  28.936  0.00  0.00    +0.023 A 
ATOM     27  C   UNL     1       2.881   2.702  28.269  0.00  0.00    +0.023 A 
ATOM     28  C   UNL     1       1.007   2.092  30.244  0.00  0.00    +0.002 A 
ATOM     29  C   UNL     1       3.300   2.461  29.577  0.00  0.00    +0.002 A 
ATOM     30  C   UNL     1       2.364   2.155  30.565  0.00  0.00    +0.000 A 
ENDBRANCH   6  22
TORSDOF 3
ENDMDL
