MODEL 1
REMARK VINA RESULT:      -5.4      0.000      0.000
REMARK  Name = 56775453
REMARK  11 active torsions:
REMARK  status: ('A' for Active; 'I' for Inactive)
REMARK    1  A    between atoms: O_3  and  C_23
REMARK    2  A    between atoms: O_3  and  C_24
REMARK    3  A    between atoms: N_4  and  C_6
REMARK    4  A    between atoms: N_4  and  C_11
REMARK    5  A    between atoms: C_6  and  C_9
REMARK    6  A    between atoms: C_9  and  C_10
REMARK    7  A    between atoms: C_11  and  C_15
REMARK    8  A    between atoms: C_12  and  C_14
REMARK    9  A    between atoms: C_12  and  C_16
REMARK   10  A    between atoms: C_12  and  C_17
REMARK   11  A    between atoms: C_12  and  C_18
REMARK                            x       y       z     vdW  Elec       q    Type
REMARK                         _______ _______ _______ _____ _____    ______ ____
ROOT
ATOM      1  O   UNL     1      -6.667   4.182  25.875  0.00  0.00    -0.376 OA
ATOM      6  C   UNL     1      -4.658   3.713  25.327  0.00  0.00    +0.072 C 
ATOM      7  C   UNL     1      -5.886   2.967  25.839  0.00  0.00    +0.184 C 
ATOM      8  C   UNL     1      -5.515   4.964  25.484  0.00  0.00    +0.184 C 
ENDROOT
BRANCH   6   4
ATOM      4  N   UNL     1      -3.639   3.709  26.368  0.00  0.00    -0.302 NA
ATOM     25  H   UNL     1      -3.959   4.015  27.285  0.00  0.00    +0.123 HD
BRANCH   4  11
ATOM     11  C   UNL     1      -2.497   4.516  25.945  0.00  0.00    +0.117 C 
BRANCH  11  15
ATOM     15  C   UNL     1      -1.392   3.668  25.374  0.00  0.00    -0.033 A 
ATOM     19  C   UNL     1      -1.056   2.460  25.984  0.00  0.00    +0.008 A 
ATOM     20  C   UNL     1      -0.705   4.089  24.236  0.00  0.00    +0.008 A 
ATOM     21  C   UNL     1      -0.032   1.673  25.456  0.00  0.00    +0.046 A 
ATOM     22  C   UNL     1       0.318   3.303  23.707  0.00  0.00    +0.046 A 
ATOM     23  C   UNL     1       0.655   2.094  24.318  0.00  0.00    +0.120 A 
BRANCH  23   3
ATOM      3  O   UNL     1       1.654   1.327  23.802  0.00  0.00    -0.495 OA
ATOM     24  C   UNL     1       1.267   0.169  23.063  0.00  0.00    +0.277 C 
ENDBRANCH  23   3
ENDBRANCH  11  15
ENDBRANCH   4  11
ENDBRANCH   6   4
BRANCH   6   9
ATOM      9  C   UNL     1      -4.099   3.362  23.942  0.00  0.00    +0.085 C 
BRANCH   9  10
ATOM      2  O   UNL     1      -2.550   0.235  23.183  0.00  0.00    -0.359 OA
ATOM      5  N   UNL     1      -2.788   1.581  22.933  0.00  0.00    -0.083 NA
ATOM     10  C   UNL     1      -3.629   1.968  23.896  0.00  0.00    +0.086 A 
ATOM     13  C   UNL     1      -3.953   0.919  24.775  0.00  0.00    +0.071 A 
ATOM     14  C   UNL     1      -3.250  -0.148  24.281  0.00  0.00    +0.143 A 
BRANCH  14  12
ATOM     12  C   UNL     1      -3.105  -1.618  24.710  0.00  0.00    +0.023 C 
ATOM     16  C   UNL     1      -4.130  -2.484  23.944  0.00  0.00    +0.019 C 
ATOM     17  C   UNL     1      -3.364  -1.745  26.226  0.00  0.00    +0.019 C 
ATOM     18  C   UNL     1      -1.707  -2.214  24.434  0.00  0.00    +0.019 C 
ENDBRANCH  14  12
ENDBRANCH   9  10
ENDBRANCH   6   9
TORSDOF 7
ENDMDL
MODEL 2
REMARK VINA RESULT:      -4.4      1.975      5.068
REMARK  Name = 56775453
REMARK  11 active torsions:
REMARK  status: ('A' for Active; 'I' for Inactive)
REMARK    1  A    between atoms: O_3  and  C_23
REMARK    2  A    between atoms: O_3  and  C_24
REMARK    3  A    between atoms: N_4  and  C_6
REMARK    4  A    between atoms: N_4  and  C_11
REMARK    5  A    between atoms: C_6  and  C_9
REMARK    6  A    between atoms: C_9  and  C_10
REMARK    7  A    between atoms: C_11  and  C_15
REMARK    8  A    between atoms: C_12  and  C_14
REMARK    9  A    between atoms: C_12  and  C_16
REMARK   10  A    between atoms: C_12  and  C_17
REMARK   11  A    between atoms: C_12  and  C_18
REMARK                            x       y       z     vdW  Elec       q    Type
REMARK                         _______ _______ _______ _____ _____    ______ ____
ROOT
ATOM      1  O   UNL     1      -2.244  -3.712  24.291  0.00  0.00    -0.376 OA
ATOM      6  C   UNL     1      -2.972  -1.730  24.610  0.00  0.00    +0.072 C 
ATOM      7  C   UNL     1      -1.776  -2.392  23.934  0.00  0.00    +0.184 C 
ATOM      8  C   UNL     1      -3.351  -3.146  25.031  0.00  0.00    +0.184 C 
ENDROOT
BRANCH   6   4
ATOM      4  N   UNL     1      -2.506  -1.001  25.781  0.00  0.00    -0.302 NA
ATOM     25  H   UNL     1      -3.016  -0.144  25.987  0.00  0.00    +0.123 HD
BRANCH   4  11
ATOM     11  C   UNL     1      -1.080  -0.710  25.646  0.00  0.00    +0.117 C 
BRANCH  11  15
ATOM     15  C   UNL     1      -0.837   0.720  25.243  0.00  0.00    -0.033 A 
ATOM     19  C   UNL     1      -0.791   1.720  26.214  0.00  0.00    +0.008 A 
ATOM     20  C   UNL     1      -0.658   1.046  23.899  0.00  0.00    +0.008 A 
ATOM     21  C   UNL     1      -0.565   3.045  25.841  0.00  0.00    +0.046 A 
ATOM     22  C   UNL     1      -0.432   2.370  23.525  0.00  0.00    +0.046 A 
ATOM     23  C   UNL     1      -0.386   3.370  24.497  0.00  0.00    +0.120 A 
BRANCH  23   3
ATOM      3  O   UNL     1      -0.166   4.663  24.133  0.00  0.00    -0.495 OA
ATOM     24  C   UNL     1      -0.905   5.667  24.827  0.00  0.00    +0.277 C 
ENDBRANCH  23   3
ENDBRANCH  11  15
ENDBRANCH   4  11
ENDBRANCH   6   4
BRANCH   6   9
ATOM      9  C   UNL     1      -3.955  -0.921  23.753  0.00  0.00    +0.085 C 
BRANCH   9  10
ATOM      2  O   UNL     1      -5.253   1.668  25.842  0.00  0.00    -0.359 OA
ATOM      5  N   UNL     1      -5.123   0.334  25.476  0.00  0.00    -0.083 NA
ATOM     10  C   UNL     1      -4.316   0.345  24.412  0.00  0.00    +0.086 A 
ATOM     13  C   UNL     1      -3.907   1.644  24.064  0.00  0.00    +0.071 A 
ATOM     14  C   UNL     1      -4.525   2.439  24.994  0.00  0.00    +0.143 A 
BRANCH  14  12
ATOM     12  C   UNL     1      -4.550   3.955  25.251  0.00  0.00    +0.023 C 
ATOM     16  C   UNL     1      -4.009   4.700  24.011  0.00  0.00    +0.019 C 
ATOM     17  C   UNL     1      -3.666   4.291  26.471  0.00  0.00    +0.019 C 
ATOM     18  C   UNL     1      -5.960   4.517  25.541  0.00  0.00    +0.019 C 
ENDBRANCH  14  12
ENDBRANCH   9  10
ENDBRANCH   6   9
TORSDOF 7
ENDMDL
MODEL 3
REMARK VINA RESULT:      -4.1      1.334      1.616
REMARK  Name = 56775453
REMARK  11 active torsions:
REMARK  status: ('A' for Active; 'I' for Inactive)
REMARK    1  A    between atoms: O_3  and  C_23
REMARK    2  A    between atoms: O_3  and  C_24
REMARK    3  A    between atoms: N_4  and  C_6
REMARK    4  A    between atoms: N_4  and  C_11
REMARK    5  A    between atoms: C_6  and  C_9
REMARK    6  A    between atoms: C_9  and  C_10
REMARK    7  A    between atoms: C_11  and  C_15
REMARK    8  A    between atoms: C_12  and  C_14
REMARK    9  A    between atoms: C_12  and  C_16
REMARK   10  A    between atoms: C_12  and  C_17
REMARK   11  A    between atoms: C_12  and  C_18
REMARK                            x       y       z     vdW  Elec       q    Type
REMARK                         _______ _______ _______ _____ _____    ______ ____
ROOT
ATOM      1  O   UNL     1      -6.254   4.869  25.709  0.00  0.00    -0.376 OA
ATOM      6  C   UNL     1      -4.651   3.532  25.261  0.00  0.00    +0.072 C 
ATOM      7  C   UNL     1      -5.954   3.498  26.053  0.00  0.00    +0.184 C 
ATOM      8  C   UNL     1      -4.989   5.000  25.021  0.00  0.00    +0.184 C 
ENDROOT
BRANCH   6   4
ATOM      4  N   UNL     1      -3.534   3.454  26.192  0.00  0.00    -0.302 NA
ATOM     25  H   UNL     1      -3.679   3.930  27.081  0.00  0.00    +0.123 HD
BRANCH   4  11
ATOM     11  C   UNL     1      -2.321   3.958  25.551  0.00  0.00    +0.117 C 
BRANCH  11  15
ATOM     15  C   UNL     1      -1.478   2.843  24.992  0.00  0.00    -0.033 A 
ATOM     19  C   UNL     1      -1.074   1.794  25.818  0.00  0.00    +0.008 A 
ATOM     20  C   UNL     1      -1.102   2.857  23.650  0.00  0.00    +0.008 A 
ATOM     21  C   UNL     1      -0.293   0.760  25.301  0.00  0.00    +0.046 A 
ATOM     22  C   UNL     1      -0.321   1.824  23.132  0.00  0.00    +0.046 A 
ATOM     23  C   UNL     1       0.083   0.775  23.958  0.00  0.00    +0.120 A 
BRANCH  23   3
ATOM      3  O   UNL     1       0.845  -0.233  23.453  0.00  0.00    -0.495 OA
ATOM     24  C   UNL     1       2.030   0.139  22.751  0.00  0.00    +0.277 C 
ENDBRANCH  23   3
ENDBRANCH  11  15
ENDBRANCH   4  11
ENDBRANCH   6   4
BRANCH   6   9
ATOM      9  C   UNL     1      -4.491   2.598  24.054  0.00  0.00    +0.085 C 
BRANCH   9  10
ATOM      2  O   UNL     1      -4.281  -0.525  25.773  0.00  0.00    -0.359 OA
ATOM      5  N   UNL     1      -4.654   0.811  25.694  0.00  0.00    -0.083 NA
ATOM     10  C   UNL     1      -4.253   1.210  24.484  0.00  0.00    +0.086 A 
ATOM     13  C   UNL     1      -3.629   0.179  23.760  0.00  0.00    +0.071 A 
ATOM     14  C   UNL     1      -3.672  -0.890  24.616  0.00  0.00    +0.143 A 
BRANCH  14  12
ATOM     12  C   UNL     1      -3.191  -2.348  24.523  0.00  0.00    +0.023 C 
ATOM     16  C   UNL     1      -1.755  -2.385  23.955  0.00  0.00    +0.019 C 
ATOM     17  C   UNL     1      -4.127  -3.146  23.590  0.00  0.00    +0.019 C 
ATOM     18  C   UNL     1      -3.164  -3.085  25.881  0.00  0.00    +0.019 C 
ENDBRANCH  14  12
ENDBRANCH   9  10
ENDBRANCH   6   9
TORSDOF 7
ENDMDL
MODEL 4
REMARK VINA RESULT:      -4.1      1.927      5.522
REMARK  Name = 56775453
REMARK  11 active torsions:
REMARK  status: ('A' for Active; 'I' for Inactive)
REMARK    1  A    between atoms: O_3  and  C_23
REMARK    2  A    between atoms: O_3  and  C_24
REMARK    3  A    between atoms: N_4  and  C_6
REMARK    4  A    between atoms: N_4  and  C_11
REMARK    5  A    between atoms: C_6  and  C_9
REMARK    6  A    between atoms: C_9  and  C_10
REMARK    7  A    between atoms: C_11  and  C_15
REMARK    8  A    between atoms: C_12  and  C_14
REMARK    9  A    between atoms: C_12  and  C_16
REMARK   10  A    between atoms: C_12  and  C_17
REMARK   11  A    between atoms: C_12  and  C_18
REMARK                            x       y       z     vdW  Elec       q    Type
REMARK                         _______ _______ _______ _____ _____    ______ ____
ROOT
ATOM      1  O   UNL     1       3.409   0.509  21.823  0.00  0.00    -0.376 OA
ATOM      6  C   UNL     1       1.677   0.122  23.008  0.00  0.00    +0.072 C 
ATOM      7  C   UNL     1       2.175  -0.211  21.606  0.00  0.00    +0.184 C 
ATOM      8  C   UNL     1       2.958   0.940  23.127  0.00  0.00    +0.184 C 
ENDROOT
BRANCH   6   4
ATOM      4  N   UNL     1       0.546   1.034  22.900  0.00  0.00    -0.302 NA
ATOM     25  H   UNL     1       0.455   1.504  22.001  0.00  0.00    +0.123 HD
BRANCH   4  11
ATOM     11  C   UNL     1       0.605   2.023  23.974  0.00  0.00    +0.117 C 
BRANCH  11  15
ATOM     15  C   UNL     1      -0.764   2.525  24.349  0.00  0.00    -0.033 A 
ATOM     19  C   UNL     1      -1.872   2.165  23.582  0.00  0.00    +0.008 A 
ATOM     20  C   UNL     1      -0.924   3.349  25.462  0.00  0.00    +0.008 A 
ATOM     21  C   UNL     1      -3.141   2.629  23.930  0.00  0.00    +0.046 A 
ATOM     22  C   UNL     1      -2.192   3.814  25.810  0.00  0.00    +0.046 A 
ATOM     23  C   UNL     1      -3.301   3.453  25.043  0.00  0.00    +0.120 A 
BRANCH  23   3
ATOM      3  O   UNL     1      -4.539   3.906  25.382  0.00  0.00    -0.495 OA
ATOM     24  C   UNL     1      -5.527   2.925  25.691  0.00  0.00    +0.277 C 
ENDBRANCH  23   3
ENDBRANCH  11  15
ENDBRANCH   4  11
ENDBRANCH   6   4
BRANCH   6   9
ATOM      9  C   UNL     1       1.430  -1.022  24.000  0.00  0.00    +0.085 C 
BRANCH   9  10
ATOM      2  O   UNL     1      -1.628  -0.640  25.805  0.00  0.00    -0.359 OA
ATOM      5  N   UNL     1      -0.254  -0.479  25.667  0.00  0.00    -0.083 NA
ATOM     10  C   UNL     1       0.038  -1.019  24.480  0.00  0.00    +0.086 A 
ATOM     13  C   UNL     1      -1.099  -1.530  23.830  0.00  0.00    +0.071 A 
ATOM     14  C   UNL     1      -2.119  -1.267  24.706  0.00  0.00    +0.143 A 
BRANCH  14  12
ATOM     12  C   UNL     1      -3.635  -1.529  24.685  0.00  0.00    +0.023 C 
ATOM     16  C   UNL     1      -4.288  -0.897  25.934  0.00  0.00    +0.019 C 
ATOM     17  C   UNL     1      -3.900  -3.049  24.686  0.00  0.00    +0.019 C 
ATOM     18  C   UNL     1      -4.352  -0.942  23.448  0.00  0.00    +0.019 C 
ENDBRANCH  14  12
ENDBRANCH   9  10
ENDBRANCH   6   9
TORSDOF 7
ENDMDL
MODEL 5
REMARK VINA RESULT:      -3.7      1.999      4.968
REMARK  Name = 56775453
REMARK  11 active torsions:
REMARK  status: ('A' for Active; 'I' for Inactive)
REMARK    1  A    between atoms: O_3  and  C_23
REMARK    2  A    between atoms: O_3  and  C_24
REMARK    3  A    between atoms: N_4  and  C_6
REMARK    4  A    between atoms: N_4  and  C_11
REMARK    5  A    between atoms: C_6  and  C_9
REMARK    6  A    between atoms: C_9  and  C_10
REMARK    7  A    between atoms: C_11  and  C_15
REMARK    8  A    between atoms: C_12  and  C_14
REMARK    9  A    between atoms: C_12  and  C_16
REMARK   10  A    between atoms: C_12  and  C_17
REMARK   11  A    between atoms: C_12  and  C_18
REMARK                            x       y       z     vdW  Elec       q    Type
REMARK                         _______ _______ _______ _____ _____    ______ ____
ROOT
ATOM      1  O   UNL     1      -1.575   5.943  25.345  0.00  0.00    -0.376 OA
ATOM      6  C   UNL     1      -1.500   3.839  24.990  0.00  0.00    +0.072 C 
ATOM      7  C   UNL     1      -0.646   5.063  24.673  0.00  0.00    +0.184 C 
ATOM      8  C   UNL     1      -2.478   4.841  25.595  0.00  0.00    +0.184 C 
ENDROOT
BRANCH   6   4
ATOM      4  N   UNL     1      -2.063   3.326  23.749  0.00  0.00    -0.302 NA
ATOM     25  H   UNL     1      -1.956   3.937  22.941  0.00  0.00    +0.123 HD
BRANCH   4  11
ATOM     11  C   UNL     1      -3.474   3.002  23.943  0.00  0.00    +0.117 C 
BRANCH  11  15
ATOM     15  C   UNL     1      -3.701   1.517  24.033  0.00  0.00    -0.033 A 
ATOM     19  C   UNL     1      -4.321   0.974  25.159  0.00  0.00    +0.008 A 
ATOM     20  C   UNL     1      -3.292   0.683  22.993  0.00  0.00    +0.008 A 
ATOM     21  C   UNL     1      -4.532  -0.402  25.243  0.00  0.00    +0.046 A 
ATOM     22  C   UNL     1      -3.502  -0.693  23.077  0.00  0.00    +0.046 A 
ATOM     23  C   UNL     1      -4.123  -1.236  24.203  0.00  0.00    +0.120 A 
BRANCH  23   3
ATOM      3  O   UNL     1      -4.328  -2.578  24.286  0.00  0.00    -0.495 OA
ATOM     24  C   UNL     1      -3.270  -3.364  24.834  0.00  0.00    +0.277 C 
ENDBRANCH  23   3
ENDBRANCH  11  15
ENDBRANCH   4  11
ENDBRANCH   6   4
BRANCH   6   9
ATOM      9  C   UNL     1      -0.916   2.737  25.884  0.00  0.00    +0.085 C 
BRANCH   9  10
ATOM      2  O   UNL     1       0.232  -0.203  24.214  0.00  0.00    -0.359 OA
ATOM      5  N   UNL     1      -0.656   0.472  25.043  0.00  0.00    -0.083 NA
ATOM     10  C   UNL     1      -0.203   1.727  25.084  0.00  0.00    +0.086 A 
ATOM     13  C   UNL     1       0.956   1.904  24.309  0.00  0.00    +0.071 A 
ATOM     14  C   UNL     1       1.187   0.660  23.783  0.00  0.00    +0.143 A 
BRANCH  14  12
ATOM     12  C   UNL     1       2.263   0.083  22.848  0.00  0.00    +0.023 C 
ATOM     16  C   UNL     1       3.318   1.168  22.538  0.00  0.00    +0.019 C 
ATOM     17  C   UNL     1       1.610  -0.382  21.529  0.00  0.00    +0.019 C 
ATOM     18  C   UNL     1       3.017  -1.131  23.436  0.00  0.00    +0.019 C 
ENDBRANCH  14  12
ENDBRANCH   9  10
ENDBRANCH   6   9
TORSDOF 7
ENDMDL
MODEL 6
REMARK VINA RESULT:      -3.7      1.811      5.964
REMARK  Name = 56775453
REMARK  11 active torsions:
REMARK  status: ('A' for Active; 'I' for Inactive)
REMARK    1  A    between atoms: O_3  and  C_23
REMARK    2  A    between atoms: O_3  and  C_24
REMARK    3  A    between atoms: N_4  and  C_6
REMARK    4  A    between atoms: N_4  and  C_11
REMARK    5  A    between atoms: C_6  and  C_9
REMARK    6  A    between atoms: C_9  and  C_10
REMARK    7  A    between atoms: C_11  and  C_15
REMARK    8  A    between atoms: C_12  and  C_14
REMARK    9  A    between atoms: C_12  and  C_16
REMARK   10  A    between atoms: C_12  and  C_17
REMARK   11  A    between atoms: C_12  and  C_18
REMARK                            x       y       z     vdW  Elec       q    Type
REMARK                         _______ _______ _______ _____ _____    ______ ____
ROOT
ATOM      1  O   UNL     1      -3.606  -3.752  25.227  0.00  0.00    -0.376 OA
ATOM      6  C   UNL     1      -2.500  -2.155  24.342  0.00  0.00    +0.072 C 
ATOM      7  C   UNL     1      -3.241  -2.418  25.648  0.00  0.00    +0.184 C 
ATOM      8  C   UNL     1      -3.003  -3.535  23.931  0.00  0.00    +0.184 C 
ENDROOT
BRANCH   6   4
ATOM      4  N   UNL     1      -3.227  -1.146  23.584  0.00  0.00    -0.302 NA
ATOM     25  H   UNL     1      -2.701  -0.297  23.381  0.00  0.00    +0.123 HD
BRANCH   4  11
ATOM     11  C   UNL     1      -4.467  -0.806  24.278  0.00  0.00    +0.117 C 
BRANCH  11  15
ATOM     15  C   UNL     1      -4.588   0.675  24.516  0.00  0.00    -0.033 A 
ATOM     19  C   UNL     1      -3.826   1.566  23.761  0.00  0.00    +0.008 A 
ATOM     20  C   UNL     1      -5.461   1.157  25.491  0.00  0.00    +0.008 A 
ATOM     21  C   UNL     1      -3.937   2.940  23.980  0.00  0.00    +0.046 A 
ATOM     22  C   UNL     1      -5.573   2.530  25.711  0.00  0.00    +0.046 A 
ATOM     23  C   UNL     1      -4.810   3.422  24.955  0.00  0.00    +0.120 A 
BRANCH  23   3
ATOM      3  O   UNL     1      -4.919   4.761  25.170  0.00  0.00    -0.495 OA
ATOM     24  C   UNL     1      -6.189   5.248  25.600  0.00  0.00    +0.277 C 
ENDBRANCH  23   3
ENDBRANCH  11  15
ENDBRANCH   4  11
ENDBRANCH   6   4
BRANCH   6   9
ATOM      9  C   UNL     1      -0.988  -1.897  24.385  0.00  0.00    +0.085 C 
BRANCH   9  10
ATOM      2  O   UNL     1       0.028   1.495  23.918  0.00  0.00    -0.359 OA
ATOM      5  N   UNL     1      -0.088   0.177  23.492  0.00  0.00    -0.083 NA
ATOM     10  C   UNL     1      -0.697  -0.458  24.497  0.00  0.00    +0.086 A 
ATOM     13  C   UNL     1      -0.989   0.399  25.572  0.00  0.00    +0.071 A 
ATOM     14  C   UNL     1      -0.511   1.615  25.157  0.00  0.00    +0.143 A 
BRANCH  14  12
ATOM     12  C   UNL     1      -0.473   3.016  25.791  0.00  0.00    +0.023 C 
ATOM     16  C   UNL     1      -0.170   4.069  24.702  0.00  0.00    +0.019 C 
ATOM     17  C   UNL     1       0.629   3.068  26.870  0.00  0.00    +0.019 C 
ATOM     18  C   UNL     1      -1.797   3.430  26.470  0.00  0.00    +0.019 C 
ENDBRANCH  14  12
ENDBRANCH   9  10
ENDBRANCH   6   9
TORSDOF 7
ENDMDL
MODEL 7
REMARK VINA RESULT:      -3.5      1.824      4.604
REMARK  Name = 56775453
REMARK  11 active torsions:
REMARK  status: ('A' for Active; 'I' for Inactive)
REMARK    1  A    between atoms: O_3  and  C_23
REMARK    2  A    between atoms: O_3  and  C_24
REMARK    3  A    between atoms: N_4  and  C_6
REMARK    4  A    between atoms: N_4  and  C_11
REMARK    5  A    between atoms: C_6  and  C_9
REMARK    6  A    between atoms: C_9  and  C_10
REMARK    7  A    between atoms: C_11  and  C_15
REMARK    8  A    between atoms: C_12  and  C_14
REMARK    9  A    between atoms: C_12  and  C_16
REMARK   10  A    between atoms: C_12  and  C_17
REMARK   11  A    between atoms: C_12  and  C_18
REMARK                            x       y       z     vdW  Elec       q    Type
REMARK                         _______ _______ _______ _____ _____    ______ ____
ROOT
ATOM      1  O   UNL     1       0.267   2.231  27.639  0.00  0.00    -0.376 OA
ATOM      6  C   UNL     1       0.060   2.830  25.600  0.00  0.00    +0.072 C 
ATOM      7  C   UNL     1       1.120   2.914  26.693  0.00  0.00    +0.184 C 
ATOM      8  C   UNL     1      -0.815   2.203  26.680  0.00  0.00    +0.184 C 
ENDROOT
BRANCH   6   4
ATOM      4  N   UNL     1      -0.431   4.172  25.319  0.00  0.00    -0.302 NA
ATOM     25  H   UNL     1      -0.912   4.626  26.094  0.00  0.00    +0.123 HD
BRANCH   4  11
ATOM     11  C   UNL     1      -1.299   4.145  24.144  0.00  0.00    +0.117 C 
BRANCH  11  15
ATOM     15  C   UNL     1      -2.676   3.637  24.477  0.00  0.00    -0.033 A 
ATOM     19  C   UNL     1      -3.294   4.027  25.665  0.00  0.00    +0.008 A 
ATOM     20  C   UNL     1      -3.335   2.778  23.599  0.00  0.00    +0.008 A 
ATOM     21  C   UNL     1      -4.571   3.558  25.974  0.00  0.00    +0.046 A 
ATOM     22  C   UNL     1      -4.611   2.307  23.908  0.00  0.00    +0.046 A 
ATOM     23  C   UNL     1      -5.230   2.698  25.096  0.00  0.00    +0.120 A 
BRANCH  23   3
ATOM      3  O   UNL     1      -6.474   2.239  25.398  0.00  0.00    -0.495 OA
ATOM     24  C   UNL     1      -6.648   1.624  26.674  0.00  0.00    +0.277 C 
ENDBRANCH  23   3
ENDBRANCH  11  15
ENDBRANCH   4  11
ENDBRANCH   6   4
BRANCH   6   9
ATOM      9  C   UNL     1       0.365   2.027  24.329  0.00  0.00    +0.085 C 
BRANCH   9  10
ATOM      2  O   UNL     1      -0.741  -1.350  23.970  0.00  0.00    -0.359 OA
ATOM      5  N   UNL     1       0.212  -0.348  23.832  0.00  0.00    -0.083 NA
ATOM     10  C   UNL     1      -0.371   0.752  24.317  0.00  0.00    +0.086 A 
ATOM     13  C   UNL     1      -1.678   0.507  24.773  0.00  0.00    +0.071 A 
ATOM     14  C   UNL     1      -1.861  -0.829  24.531  0.00  0.00    +0.143 A 
BRANCH  14  12
ATOM     12  C   UNL     1      -3.030  -1.802  24.762  0.00  0.00    +0.023 C 
ATOM     16  C   UNL     1      -3.490  -1.719  26.234  0.00  0.00    +0.019 C 
ATOM     17  C   UNL     1      -2.576  -3.244  24.452  0.00  0.00    +0.019 C 
ATOM     18  C   UNL     1      -4.266  -1.514  23.881  0.00  0.00    +0.019 C 
ENDBRANCH  14  12
ENDBRANCH   9  10
ENDBRANCH   6   9
TORSDOF 7
ENDMDL
MODEL 8
REMARK VINA RESULT:      -2.8      1.804      4.681
REMARK  Name = 56775453
REMARK  11 active torsions:
REMARK  status: ('A' for Active; 'I' for Inactive)
REMARK    1  A    between atoms: O_3  and  C_23
REMARK    2  A    between atoms: O_3  and  C_24
REMARK    3  A    between atoms: N_4  and  C_6
REMARK    4  A    between atoms: N_4  and  C_11
REMARK    5  A    between atoms: C_6  and  C_9
REMARK    6  A    between atoms: C_9  and  C_10
REMARK    7  A    between atoms: C_11  and  C_15
REMARK    8  A    between atoms: C_12  and  C_14
REMARK    9  A    between atoms: C_12  and  C_16
REMARK   10  A    between atoms: C_12  and  C_17
REMARK   11  A    between atoms: C_12  and  C_18
REMARK                            x       y       z     vdW  Elec       q    Type
REMARK                         _______ _______ _______ _____ _____    ______ ____
ROOT
ATOM      1  O   UNL     1      -0.829   5.546  25.034  0.00  0.00    -0.376 OA
ATOM      6  C   UNL     1      -0.902   3.441  24.690  0.00  0.00    +0.072 C 
ATOM      7  C   UNL     1      -0.045   4.622  24.247  0.00  0.00    +0.184 C 
ATOM      8  C   UNL     1      -1.738   4.489  25.417  0.00  0.00    +0.184 C 
ENDROOT
BRANCH   6   4
ATOM      4  N   UNL     1      -1.656   2.952  23.543  0.00  0.00    -0.302 NA
ATOM     25  H   UNL     1      -1.144   2.943  22.663  0.00  0.00    +0.123 HD
BRANCH   4  11
ATOM     11  C   UNL     1      -2.885   3.728  23.394  0.00  0.00    +0.117 C 
BRANCH  11  15
ATOM     15  C   UNL     1      -4.013   3.151  24.209  0.00  0.00    -0.033 A 
ATOM     19  C   UNL     1      -4.306   1.790  24.128  0.00  0.00    +0.008 A 
ATOM     20  C   UNL     1      -4.764   3.977  25.045  0.00  0.00    +0.008 A 
ATOM     21  C   UNL     1      -5.350   1.255  24.883  0.00  0.00    +0.046 A 
ATOM     22  C   UNL     1      -5.808   3.444  25.799  0.00  0.00    +0.046 A 
ATOM     23  C   UNL     1      -6.101   2.081  25.718  0.00  0.00    +0.120 A 
BRANCH  23   3
ATOM      3  O   UNL     1      -7.120   1.560  26.454  0.00  0.00    -0.495 OA
ATOM     24  C   UNL     1      -6.815   1.151  27.787  0.00  0.00    +0.277 C 
ENDBRANCH  23   3
ENDBRANCH  11  15
ENDBRANCH   4  11
ENDBRANCH   6   4
BRANCH   6   9
ATOM      9  C   UNL     1      -0.250   2.314  25.502  0.00  0.00    +0.085 C 
BRANCH   9  10
ATOM      2  O   UNL     1      -0.735  -0.856  23.930  0.00  0.00    -0.359 OA
ATOM      5  N   UNL     1      -0.032   0.328  24.117  0.00  0.00    -0.083 NA
ATOM     10  C   UNL     1      -0.719   0.993  25.049  0.00  0.00    +0.086 A 
ATOM     13  C   UNL     1      -1.853   0.286  25.485  0.00  0.00    +0.071 A 
ATOM     14  C   UNL     1      -1.817  -0.869  24.749  0.00  0.00    +0.143 A 
BRANCH  14  12
ATOM     12  C   UNL     1      -2.718  -2.114  24.678  0.00  0.00    +0.023 C 
ATOM     16  C   UNL     1      -1.934  -3.286  24.047  0.00  0.00    +0.019 C 
ATOM     17  C   UNL     1      -3.959  -1.809  23.814  0.00  0.00    +0.019 C 
ATOM     18  C   UNL     1      -3.228  -2.595  26.055  0.00  0.00    +0.019 C 
ENDBRANCH  14  12
ENDBRANCH   9  10
ENDBRANCH   6   9
TORSDOF 7
ENDMDL
MODEL 9
REMARK VINA RESULT:      -2.8      2.146      5.335
REMARK  Name = 56775453
REMARK  11 active torsions:
REMARK  status: ('A' for Active; 'I' for Inactive)
REMARK    1  A    between atoms: O_3  and  C_23
REMARK    2  A    between atoms: O_3  and  C_24
REMARK    3  A    between atoms: N_4  and  C_6
REMARK    4  A    between atoms: N_4  and  C_11
REMARK    5  A    between atoms: C_6  and  C_9
REMARK    6  A    between atoms: C_9  and  C_10
REMARK    7  A    between atoms: C_11  and  C_15
REMARK    8  A    between atoms: C_12  and  C_14
REMARK    9  A    between atoms: C_12  and  C_16
REMARK   10  A    between atoms: C_12  and  C_17
REMARK   11  A    between atoms: C_12  and  C_18
REMARK                            x       y       z     vdW  Elec       q    Type
REMARK                         _______ _______ _______ _____ _____    ______ ____
ROOT
ATOM      1  O   UNL     1      -2.944  -3.303  25.001  0.00  0.00    -0.376 OA
ATOM      6  C   UNL     1      -2.778  -1.182  24.817  0.00  0.00    +0.072 C 
ATOM      7  C   UNL     1      -3.673  -2.180  25.545  0.00  0.00    +0.184 C 
ATOM      8  C   UNL     1      -2.120  -2.416  24.209  0.00  0.00    +0.184 C 
ENDROOT
BRANCH   6   4
ATOM      4  N   UNL     1      -3.561  -0.513  23.787  0.00  0.00    -0.302 NA
ATOM     25  H   UNL     1      -3.015  -0.041  23.069  0.00  0.00    +0.123 HD
BRANCH   4  11
ATOM     11  C   UNL     1      -4.488   0.432  24.407  0.00  0.00    +0.117 C 
BRANCH  11  15
ATOM     15  C   UNL     1      -3.871   1.795  24.570  0.00  0.00    -0.033 A 
ATOM     19  C   UNL     1      -3.133   2.355  23.527  0.00  0.00    +0.008 A 
ATOM     20  C   UNL     1      -4.038   2.500  25.762  0.00  0.00    +0.008 A 
ATOM     21  C   UNL     1      -2.562   3.619  23.677  0.00  0.00    +0.046 A 
ATOM     22  C   UNL     1      -3.467   3.763  25.912  0.00  0.00    +0.046 A 
ATOM     23  C   UNL     1      -2.729   4.323  24.869  0.00  0.00    +0.120 A 
BRANCH  23   3
ATOM      3  O   UNL     1      -2.171   5.555  25.015  0.00  0.00    -0.495 OA
ATOM     24  C   UNL     1      -0.766   5.663  24.788  0.00  0.00    +0.277 C 
ENDBRANCH  23   3
ENDBRANCH  11  15
ENDBRANCH   4  11
ENDBRANCH   6   4
BRANCH   6   9
ATOM      9  C   UNL     1      -1.922  -0.213  25.643  0.00  0.00    +0.085 C 
BRANCH   9  10
ATOM      2  O   UNL     1       0.859   1.465  24.157  0.00  0.00    -0.359 OA
ATOM      5  N   UNL     1      -0.297   1.448  24.929  0.00  0.00    -0.083 NA
ATOM     10  C   UNL     1      -0.705   0.176  24.912  0.00  0.00    +0.086 A 
ATOM     13  C   UNL     1       0.145  -0.648  24.153  0.00  0.00    +0.071 A 
ATOM     14  C   UNL     1       1.111   0.212  23.700  0.00  0.00    +0.143 A 
BRANCH  14  12
ATOM     12  C   UNL     1       2.362   0.039  22.822  0.00  0.00    +0.023 C 
ATOM     16  C   UNL     1       3.258  -1.074  23.408  0.00  0.00    +0.019 C 
ATOM     17  C   UNL     1       3.156   1.362  22.782  0.00  0.00    +0.019 C 
ATOM     18  C   UNL     1       2.050  -0.349  21.359  0.00  0.00    +0.019 C 
ENDBRANCH  14  12
ENDBRANCH   9  10
ENDBRANCH   6   9
TORSDOF 7
ENDMDL
MODEL 10
REMARK VINA RESULT:      -2.2      1.965      5.939
REMARK  Name = 56775453
REMARK  11 active torsions:
REMARK  status: ('A' for Active; 'I' for Inactive)
REMARK    1  A    between atoms: O_3  and  C_23
REMARK    2  A    between atoms: O_3  and  C_24
REMARK    3  A    between atoms: N_4  and  C_6
REMARK    4  A    between atoms: N_4  and  C_11
REMARK    5  A    between atoms: C_6  and  C_9
REMARK    6  A    between atoms: C_9  and  C_10
REMARK    7  A    between atoms: C_11  and  C_15
REMARK    8  A    between atoms: C_12  and  C_14
REMARK    9  A    between atoms: C_12  and  C_16
REMARK   10  A    between atoms: C_12  and  C_17
REMARK   11  A    between atoms: C_12  and  C_18
REMARK                            x       y       z     vdW  Elec       q    Type
REMARK                         _______ _______ _______ _____ _____    ______ ____
ROOT
ATOM      1  O   UNL     1      -2.809  -3.117  25.313  0.00  0.00    -0.376 OA
ATOM      6  C   UNL     1      -2.555  -1.061  24.797  0.00  0.00    +0.072 C 
ATOM      7  C   UNL     1      -3.548  -1.906  25.589  0.00  0.00    +0.184 C 
ATOM      8  C   UNL     1      -1.885  -2.392  24.470  0.00  0.00    +0.184 C 
ENDROOT
BRANCH   6   4
ATOM      4  N   UNL     1      -3.215  -0.561  23.600  0.00  0.00    -0.302 NA
ATOM     25  H   UNL     1      -3.057  -1.112  22.757  0.00  0.00    +0.123 HD
BRANCH   4  11
ATOM     11  C   UNL     1      -2.825   0.827  23.364  0.00  0.00    +0.117 C 
BRANCH  11  15
ATOM     15  C   UNL     1      -3.734   1.793  24.077  0.00  0.00    -0.033 A 
ATOM     19  C   UNL     1      -4.964   1.357  24.570  0.00  0.00    +0.008 A 
ATOM     20  C   UNL     1      -3.347   3.122  24.245  0.00  0.00    +0.008 A 
ATOM     21  C   UNL     1      -5.806   2.251  25.232  0.00  0.00    +0.046 A 
ATOM     22  C   UNL     1      -4.189   4.016  24.905  0.00  0.00    +0.046 A 
ATOM     23  C   UNL     1      -5.419   3.580  25.399  0.00  0.00    +0.120 A 
BRANCH  23   3
ATOM      3  O   UNL     1      -6.241   4.453  26.043  0.00  0.00    -0.495 OA
ATOM     24  C   UNL     1      -6.522   5.687  25.385  0.00  0.00    +0.277 C 
ENDBRANCH  23   3
ENDBRANCH  11  15
ENDBRANCH   4  11
ENDBRANCH   6   4
BRANCH   6   9
ATOM      9  C   UNL     1      -1.747   0.018  25.530  0.00  0.00    +0.085 C 
BRANCH   9  10
ATOM      2  O   UNL     1       1.061   1.576  23.969  0.00  0.00    -0.359 OA
ATOM      5  N   UNL     1      -0.113   1.620  24.712  0.00  0.00    -0.083 NA
ATOM     10  C   UNL     1      -0.514   0.349  24.797  0.00  0.00    +0.086 A 
ATOM     13  C   UNL     1       0.357  -0.533  24.135  0.00  0.00    +0.071 A 
ATOM     14  C   UNL     1       1.330   0.290  23.631  0.00  0.00    +0.143 A 
BRANCH  14  12
ATOM     12  C   UNL     1       2.603   0.049  22.801  0.00  0.00    +0.023 C 
ATOM     16  C   UNL     1       3.441   1.345  22.750  0.00  0.00    +0.019 C 
ATOM     17  C   UNL     1       2.217  -0.363  21.365  0.00  0.00    +0.019 C 
ATOM     18  C   UNL     1       3.515  -1.062  23.365  0.00  0.00    +0.019 C 
ENDBRANCH  14  12
ENDBRANCH   9  10
ENDBRANCH   6   9
TORSDOF 7
ENDMDL
