MODEL 1
REMARK VINA RESULT:       4.4      0.000      0.000
REMARK  Name = 7114646
REMARK  14 active torsions:
REMARK  status: ('A' for Active; 'I' for Inactive)
REMARK    1  A    between atoms: O_1  and  C_12
REMARK    2  A    between atoms: O_2  and  C_16
REMARK    3  A    between atoms: O_3  and  C_17
REMARK    4  A    between atoms: N_8  and  C_13
REMARK    5  A    between atoms: N_9  and  C_19
REMARK    6  A    between atoms: N_10  and  C_26
REMARK    7  A    between atoms: C_12  and  C_18
REMARK    8  A    between atoms: C_19  and  C_20
REMARK    9  A    between atoms: C_19  and  C_23
REMARK   10  A    between atoms: C_20  and  C_22
REMARK   11  A    between atoms: C_22  and  C_24
REMARK   12  A    between atoms: C_22  and  C_25
REMARK   13  A    between atoms: C_31  and  C_32
REMARK   14  A    between atoms: C_32  and  C_33
REMARK                            x       y       z     vdW  Elec       q    Type
REMARK                         _______ _______ _______ _____ _____    ______ ____
ROOT
ATOM     12  C   UNL     1      -4.176  -0.043  24.883  0.00  0.00    +0.146 C 
ATOM     13  C   UNL     1      -2.156  -1.375  24.106  0.00  0.00    +0.109 C 
ATOM     14  C   UNL     1      -2.825   0.003  24.167  0.00  0.00    +0.069 C 
ATOM     15  C   UNL     1      -5.099  -1.088  24.258  0.00  0.00    +0.078 C 
ATOM     16  C   UNL     1      -3.086  -2.435  23.501  0.00  0.00    +0.163 C 
ATOM     17  C   UNL     1      -4.448  -2.471  24.199  0.00  0.00    +0.148 C 
ENDROOT
BRANCH  13   8
ATOM      5  O   UNL     1       0.401  -0.543  25.091  0.00  0.00    -0.252 OA
ATOM      8  N   UNL     1      -0.925  -1.288  23.352  0.00  0.00    -0.294 N 
ATOM     10  N   UNL     1       1.296  -0.886  22.948  0.00  0.00    -0.269 N 
ATOM     21  C   UNL     1       0.284  -0.870  23.913  0.00  0.00    +0.304 C 
ATOM     34  H   UNL     1      -0.922  -1.617  22.390  0.00  0.00    +0.151 HD
ATOM     39  H   UNL     1       1.029  -1.183  22.013  0.00  0.00    +0.156 HD
BRANCH  10  26
ATOM     26  C   UNL     1       2.656  -0.535  23.112  0.00  0.00    +0.035 A 
ATOM     27  C   UNL     1       3.099   0.697  22.658  0.00  0.00    +0.024 A 
ATOM     28  C   UNL     1       3.517  -1.430  23.725  0.00  0.00    +0.024 A 
ATOM     29  C   UNL     1       4.441   1.042  22.821  0.00  0.00    +0.013 A 
ATOM     30  C   UNL     1       4.859  -1.085  23.887  0.00  0.00    +0.013 A 
ATOM     31  C   UNL     1       5.320   0.152  23.435  0.00  0.00    +0.017 A 
BRANCH  31  32
ATOM      7  O   UNL     1       7.055   1.573  24.169  0.00  0.00    -0.292 OA
ATOM     32  C   UNL     1       6.720   0.512  23.605  0.00  0.00    +0.160 C 
ATOM     33  C   UNL     1       7.818  -0.410  23.089  0.00  0.00    +0.091 C 
ENDBRANCH  31  32
ENDBRANCH  10  26
ENDBRANCH  13   8
BRANCH  12  18
ATOM      4  O   UNL     1      -6.040   1.443  25.039  0.00  0.00    -0.273 OA
ATOM      9  N   UNL     1      -3.930   2.323  24.598  0.00  0.00    -0.302 N 
ATOM     18  C   UNL     1      -4.833   1.307  24.860  0.00  0.00    +0.245 C 
ATOM     37  H   UNL     1      -2.938   2.124  24.595  0.00  0.00    +0.150 HD
BRANCH   9  19
ATOM     19  C   UNL     1      -4.312   3.713  24.499  0.00  0.00    +0.159 C 
BRANCH  19  23
ATOM      6  O   UNL     1      -4.254   4.160  26.889  0.00  0.00    -0.274 OA
ATOM     11  N   UNL     1      -6.234   4.457  25.765  0.00  0.00    -0.328 N 
ATOM     23  C   UNL     1      -4.903   4.109  25.847  0.00  0.00    +0.231 C 
ATOM     40  H   UNL     1      -6.753   4.433  24.892  0.00  0.00    +0.145 HD
ATOM     41  H   UNL     1      -6.746   4.755  26.588  0.00  0.00    +0.145 HD
ENDBRANCH  19  23
BRANCH  19  20
ATOM     20  C   UNL     1      -3.125   4.620  24.152  0.00  0.00    +0.034 C 
BRANCH  20  22
ATOM     22  C   UNL     1      -1.824   4.301  24.914  0.00  0.00    -0.015 C 
ATOM     24  C   UNL     1      -1.026   3.173  24.258  0.00  0.00    +0.007 C 
ATOM     25  C   UNL     1      -0.956   5.560  25.005  0.00  0.00    +0.007 C 
ENDBRANCH  20  22
ENDBRANCH  19  20
ENDBRANCH   9  19
ENDBRANCH  12  18
BRANCH  12   1
ATOM      1  O   UNL     1      -3.999  -0.344  26.262  0.00  0.00    -0.379 OA
ATOM     35  H   UNL     1      -4.873  -0.445  26.675  0.00  0.00    +0.211 HD
ENDBRANCH  12   1
BRANCH  16   2
ATOM      2  O   UNL     1      -2.487  -3.725  23.655  0.00  0.00    -0.387 OA
ATOM     36  H   UNL     1      -2.792  -4.282  22.920  0.00  0.00    +0.210 HD
ENDBRANCH  16   2
BRANCH  17   3
ATOM      3  O   UNL     1      -5.304  -3.353  23.475  0.00  0.00    -0.389 OA
ATOM     38  H   UNL     1      -5.817  -3.866  24.123  0.00  0.00    +0.210 HD
ENDBRANCH  17   3
TORSDOF 11
ENDMDL
MODEL 2
REMARK VINA RESULT:       5.0      2.003      4.889
REMARK  Name = 7114646
REMARK  14 active torsions:
REMARK  status: ('A' for Active; 'I' for Inactive)
REMARK    1  A    between atoms: O_1  and  C_12
REMARK    2  A    between atoms: O_2  and  C_16
REMARK    3  A    between atoms: O_3  and  C_17
REMARK    4  A    between atoms: N_8  and  C_13
REMARK    5  A    between atoms: N_9  and  C_19
REMARK    6  A    between atoms: N_10  and  C_26
REMARK    7  A    between atoms: C_12  and  C_18
REMARK    8  A    between atoms: C_19  and  C_20
REMARK    9  A    between atoms: C_19  and  C_23
REMARK   10  A    between atoms: C_20  and  C_22
REMARK   11  A    between atoms: C_22  and  C_24
REMARK   12  A    between atoms: C_22  and  C_25
REMARK   13  A    between atoms: C_31  and  C_32
REMARK   14  A    between atoms: C_32  and  C_33
REMARK                            x       y       z     vdW  Elec       q    Type
REMARK                         _______ _______ _______ _____ _____    ______ ____
ROOT
ATOM     12  C   UNL     1      -3.981   2.155  24.778  0.00  0.00    +0.146 C 
ATOM     13  C   UNL     1      -1.905   3.352  23.933  0.00  0.00    +0.109 C 
ATOM     14  C   UNL     1      -2.614   2.004  24.107  0.00  0.00    +0.069 C 
ATOM     15  C   UNL     1      -3.868   2.905  26.104  0.00  0.00    +0.078 C 
ATOM     16  C   UNL     1      -1.809   4.121  25.257  0.00  0.00    +0.163 C 
ATOM     17  C   UNL     1      -3.170   4.256  25.944  0.00  0.00    +0.148 C 
ENDROOT
BRANCH  13   8
ATOM      5  O   UNL     1      -0.059   1.271  24.618  0.00  0.00    -0.252 OA
ATOM      8  N   UNL     1      -0.589   3.142  23.369  0.00  0.00    -0.294 N 
ATOM     10  N   UNL     1       1.451   2.148  23.049  0.00  0.00    -0.269 N 
ATOM     21  C   UNL     1       0.250   2.097  23.763  0.00  0.00    +0.304 C 
ATOM     34  H   UNL     1      -0.292   3.736  22.600  0.00  0.00    +0.151 HD
ATOM     39  H   UNL     1       1.549   2.902  22.374  0.00  0.00    +0.156 HD
BRANCH  10  26
ATOM     26  C   UNL     1       2.558   1.274  23.152  0.00  0.00    +0.035 A 
ATOM     27  C   UNL     1       2.340  -0.088  23.277  0.00  0.00    +0.024 A 
ATOM     28  C   UNL     1       3.840   1.799  23.125  0.00  0.00    +0.024 A 
ATOM     29  C   UNL     1       3.433  -0.949  23.378  0.00  0.00    +0.013 A 
ATOM     30  C   UNL     1       4.933   0.938  23.226  0.00  0.00    +0.013 A 
ATOM     31  C   UNL     1       4.729  -0.436  23.353  0.00  0.00    +0.017 A 
BRANCH  31  32
ATOM      7  O   UNL     1       5.754  -2.478  23.941  0.00  0.00    -0.292 OA
ATOM     32  C   UNL     1       5.869  -1.333  23.458  0.00  0.00    +0.160 C 
ATOM     33  C   UNL     1       7.245  -0.887  22.976  0.00  0.00    +0.091 C 
ENDBRANCH  31  32
ENDBRANCH  10  26
ENDBRANCH  13   8
BRANCH  12  18
ATOM      4  O   UNL     1      -5.825   0.682  25.153  0.00  0.00    -0.273 OA
ATOM      9  N   UNL     1      -3.679  -0.210  25.017  0.00  0.00    -0.302 N 
ATOM     18  C   UNL     1      -4.613   0.810  24.996  0.00  0.00    +0.245 C 
ATOM     37  H   UNL     1      -2.722  -0.020  24.747  0.00  0.00    +0.150 HD
BRANCH   9  19
ATOM     19  C   UNL     1      -4.027  -1.596  25.234  0.00  0.00    +0.159 C 
BRANCH  19  23
ATOM      6  O   UNL     1      -4.386  -1.573  22.829  0.00  0.00    -0.274 OA
ATOM     11  N   UNL     1      -4.192  -3.600  23.891  0.00  0.00    -0.328 N 
ATOM     23  C   UNL     1      -4.238  -2.222  23.862  0.00  0.00    +0.231 C 
ATOM     40  H   UNL     1      -4.045  -4.124  24.749  0.00  0.00    +0.145 HD
ATOM     41  H   UNL     1      -4.304  -4.143  23.042  0.00  0.00    +0.145 HD
ENDBRANCH  19  23
BRANCH  19  20
ATOM     20  C   UNL     1      -2.939  -2.356  26.004  0.00  0.00    +0.034 C 
BRANCH  20  22
ATOM     22  C   UNL     1      -1.497  -1.894  25.710  0.00  0.00    -0.015 C 
ATOM     24  C   UNL     1      -1.209  -1.805  24.211  0.00  0.00    +0.007 C 
ATOM     25  C   UNL     1      -1.246  -0.533  26.364  0.00  0.00    +0.007 C 
ENDBRANCH  20  22
ENDBRANCH  19  20
ENDBRANCH   9  19
ENDBRANCH  12  18
BRANCH  12   1
ATOM      1  O   UNL     1      -4.881   2.851  23.924  0.00  0.00    -0.379 OA
ATOM     35  H   UNL     1      -5.241   2.227  23.273  0.00  0.00    +0.211 HD
ENDBRANCH  12   1
BRANCH  16   2
ATOM      2  O   UNL     1      -1.324   5.442  24.996  0.00  0.00    -0.387 OA
ATOM     36  H   UNL     1      -1.779   5.771  24.204  0.00  0.00    +0.210 HD
ENDBRANCH  16   2
BRANCH  17   3
ATOM      3  O   UNL     1      -2.970   4.828  27.236  0.00  0.00    -0.389 OA
ATOM     38  H   UNL     1      -2.080   4.576  27.536  0.00  0.00    +0.210 HD
ENDBRANCH  17   3
TORSDOF 11
ENDMDL
