MODEL 1
REMARK VINA RESULT:      -4.2      0.000      0.000
REMARK  Name = 28960095
REMARK  13 active torsions:
REMARK  status: ('A' for Active; 'I' for Inactive)
REMARK    1  A    between atoms: O_2  and  C_17
REMARK    2  A    between atoms: N_5  and  C_13
REMARK    3  A    between atoms: N_5  and  C_21
REMARK    4  A    between atoms: N_5  and  C_22
REMARK    5  A    between atoms: C_6  and  C_11
REMARK    6  A    between atoms: C_7  and  C_12
REMARK    7  A    between atoms: C_11  and  C_13
REMARK    8  A    between atoms: C_12  and  C_17
REMARK    9  A    between atoms: C_14  and  C_15
REMARK   10  A    between atoms: C_15  and  C_16
REMARK   11  A    between atoms: C_16  and  C_18
REMARK   12  A    between atoms: C_16  and  C_19
REMARK   13  A    between atoms: C_16  and  C_20
REMARK                            x       y       z     vdW  Elec       q    Type
REMARK                         _______ _______ _______ _____ _____    ______ ____
ROOT
ATOM      1  O   UNL     1      -3.680   2.930  23.147  0.00  0.00    -0.276 OA
ATOM      4  N   UNL     1      -2.920   1.482  24.798  0.00  0.00    -0.301 N 
ATOM      6  C   UNL     1      -1.605  -0.494  25.535  0.00  0.00    +0.012 C 
ATOM      7  C   UNL     1      -2.932  -1.288  25.645  0.00  0.00    +0.006 C 
ATOM      8  C   UNL     1      -1.879   1.010  25.721  0.00  0.00    +0.111 C 
ATOM      9  C   UNL     1      -4.007  -0.728  24.699  0.00  0.00    +0.023 C 
ATOM     10  C   UNL     1      -4.196   0.773  24.901  0.00  0.00    +0.108 C 
ATOM     14  C   UNL     1      -2.780   2.534  23.894  0.00  0.00    +0.216 C 
ENDROOT
BRANCH   6  11
ATOM     11  C   UNL     1      -0.840  -0.737  24.228  0.00  0.00    +0.024 C 
BRANCH  11  13
ATOM     13  C   UNL     1       0.279   0.271  24.015  0.00  0.00    +0.105 C 
BRANCH  13   5
ATOM      5  N   UNL     1       1.169  -0.162  22.966  0.00  0.00    -0.333 N 
ATOM     22  C   UNL     1       0.591  -0.627  21.703  0.00  0.00    +0.129 C 
BRANCH   5  21
ATOM     21  C   UNL     1       2.561  -0.154  23.137  0.00  0.00    +0.029 A 
ATOM     23  C   UNL     1       3.207  -1.275  23.658  0.00  0.00    +0.023 A 
ATOM     24  C   UNL     1       3.300   0.977  22.787  0.00  0.00    +0.023 A 
ATOM     25  C   UNL     1       4.591  -1.267  23.829  0.00  0.00    +0.002 A 
ATOM     26  C   UNL     1       4.684   0.986  22.958  0.00  0.00    +0.002 A 
ATOM     27  C   UNL     1       5.330  -0.136  23.479  0.00  0.00    +0.000 A 
ENDBRANCH   5  21
ENDBRANCH  13   5
ENDBRANCH  11  13
ENDBRANCH   6  11
BRANCH   7  12
ATOM     12  C   UNL     1      -2.752  -2.790  25.428  0.00  0.00    +0.124 C 
BRANCH  12  17
ATOM      3  O   UNL     1      -4.443  -3.229  23.729  0.00  0.00    -0.251 OA
ATOM     17  C   UNL     1      -3.275  -3.224  24.087  0.00  0.00    +0.305 C 
BRANCH  17   2
ATOM      2  O   UNL     1      -2.243  -3.624  23.301  0.00  0.00    -0.481 OA
ATOM     28  H   UNL     1      -2.356  -4.550  22.992  0.00  0.00    +0.295 HD
ENDBRANCH  17   2
ENDBRANCH  12  17
ENDBRANCH   7  12
BRANCH  14  15
ATOM     15  C   UNL     1      -1.435   3.212  23.848  0.00  0.00    +0.102 C 
BRANCH  15  16
ATOM     16  C   UNL     1      -1.185   4.131  25.058  0.00  0.00    -0.029 C 
ATOM     18  C   UNL     1      -0.621   5.492  24.614  0.00  0.00    +0.011 C 
ATOM     19  C   UNL     1      -0.151   3.443  25.968  0.00  0.00    +0.011 C 
ATOM     20  C   UNL     1      -2.478   4.352  25.862  0.00  0.00    +0.011 C 
ENDBRANCH  15  16
ENDBRANCH  14  15
TORSDOF 9
ENDMDL
MODEL 2
REMARK VINA RESULT:      -3.8      2.527      5.628
REMARK  Name = 28960095
REMARK  13 active torsions:
REMARK  status: ('A' for Active; 'I' for Inactive)
REMARK    1  A    between atoms: O_2  and  C_17
REMARK    2  A    between atoms: N_5  and  C_13
REMARK    3  A    between atoms: N_5  and  C_21
REMARK    4  A    between atoms: N_5  and  C_22
REMARK    5  A    between atoms: C_6  and  C_11
REMARK    6  A    between atoms: C_7  and  C_12
REMARK    7  A    between atoms: C_11  and  C_13
REMARK    8  A    between atoms: C_12  and  C_17
REMARK    9  A    between atoms: C_14  and  C_15
REMARK   10  A    between atoms: C_15  and  C_16
REMARK   11  A    between atoms: C_16  and  C_18
REMARK   12  A    between atoms: C_16  and  C_19
REMARK   13  A    between atoms: C_16  and  C_20
REMARK                            x       y       z     vdW  Elec       q    Type
REMARK                         _______ _______ _______ _____ _____    ______ ____
ROOT
ATOM      1  O   UNL     1      -2.408   5.261  25.691  0.00  0.00    -0.276 OA
ATOM      4  N   UNL     1      -1.821   3.335  24.531  0.00  0.00    -0.301 N 
ATOM      6  C   UNL     1      -0.726   1.108  24.408  0.00  0.00    +0.012 C 
ATOM      7  C   UNL     1       0.440   1.766  23.627  0.00  0.00    +0.006 C 
ATOM      8  C   UNL     1      -2.018   1.918  24.200  0.00  0.00    +0.111 C 
ATOM      9  C   UNL     1       0.578   3.260  23.967  0.00  0.00    +0.023 C 
ATOM     10  C   UNL     1      -0.748   3.994  23.786  0.00  0.00    +0.108 C 
ATOM     14  C   UNL     1      -2.578   4.063  25.449  0.00  0.00    +0.216 C 
ENDROOT
BRANCH   6  11
ATOM     11  C   UNL     1      -0.448   0.927  25.906  0.00  0.00    +0.024 C 
BRANCH  11  13
ATOM     13  C   UNL     1      -1.191  -0.261  26.494  0.00  0.00    +0.105 C 
BRANCH  13   5
ATOM      5  N   UNL     1      -1.239  -1.356  25.555  0.00  0.00    -0.333 N 
ATOM     22  C   UNL     1      -0.007  -2.100  25.283  0.00  0.00    +0.129 C 
BRANCH   5  21
ATOM     21  C   UNL     1      -2.428  -1.708  24.900  0.00  0.00    +0.029 A 
ATOM     23  C   UNL     1      -3.489  -0.803  24.848  0.00  0.00    +0.023 A 
ATOM     24  C   UNL     1      -2.550  -2.962  24.302  0.00  0.00    +0.023 A 
ATOM     25  C   UNL     1      -4.672  -1.153  24.197  0.00  0.00    +0.002 A 
ATOM     26  C   UNL     1      -3.733  -3.312  23.651  0.00  0.00    +0.002 A 
ATOM     27  C   UNL     1      -4.795  -2.408  23.599  0.00  0.00    +0.000 A 
ENDBRANCH   5  21
ENDBRANCH  13   5
ENDBRANCH  11  13
ENDBRANCH   6  11
BRANCH   7  12
ATOM     12  C   UNL     1       1.773   1.045  23.817  0.00  0.00    +0.124 C 
BRANCH  12  17
ATOM      3  O   UNL     1       1.585  -0.389  21.854  0.00  0.00    -0.251 OA
ATOM     17  C   UNL     1       2.232   0.382  22.548  0.00  0.00    +0.305 C 
BRANCH  17   2
ATOM      2  O   UNL     1       3.504   0.766  22.264  0.00  0.00    -0.481 OA
ATOM     28  H   UNL     1       4.122   0.553  22.997  0.00  0.00    +0.295 HD
ENDBRANCH  17   2
ENDBRANCH  12  17
ENDBRANCH   7  12
BRANCH  14  15
ATOM     15  C   UNL     1      -3.662   3.311  26.178  0.00  0.00    +0.102 C 
BRANCH  15  16
ATOM     16  C   UNL     1      -4.957   3.182  25.355  0.00  0.00    -0.029 C 
ATOM     18  C   UNL     1      -4.649   3.043  23.854  0.00  0.00    +0.011 C 
ATOM     19  C   UNL     1      -5.783   4.464  25.570  0.00  0.00    +0.011 C 
ATOM     20  C   UNL     1      -5.791   1.976  25.819  0.00  0.00    +0.011 C 
ENDBRANCH  15  16
ENDBRANCH  14  15
TORSDOF 9
ENDMDL
MODEL 3
REMARK VINA RESULT:      -3.6      1.767      4.742
REMARK  Name = 28960095
REMARK  13 active torsions:
REMARK  status: ('A' for Active; 'I' for Inactive)
REMARK    1  A    between atoms: O_2  and  C_17
REMARK    2  A    between atoms: N_5  and  C_13
REMARK    3  A    between atoms: N_5  and  C_21
REMARK    4  A    between atoms: N_5  and  C_22
REMARK    5  A    between atoms: C_6  and  C_11
REMARK    6  A    between atoms: C_7  and  C_12
REMARK    7  A    between atoms: C_11  and  C_13
REMARK    8  A    between atoms: C_12  and  C_17
REMARK    9  A    between atoms: C_14  and  C_15
REMARK   10  A    between atoms: C_15  and  C_16
REMARK   11  A    between atoms: C_16  and  C_18
REMARK   12  A    between atoms: C_16  and  C_19
REMARK   13  A    between atoms: C_16  and  C_20
REMARK                            x       y       z     vdW  Elec       q    Type
REMARK                         _______ _______ _______ _____ _____    ______ ____
ROOT
ATOM      1  O   UNL     1      -5.239   0.074  25.382  0.00  0.00    -0.276 OA
ATOM      4  N   UNL     1      -3.869   1.050  23.778  0.00  0.00    -0.301 N 
ATOM      6  C   UNL     1      -1.627   1.682  22.912  0.00  0.00    +0.012 C 
ATOM      7  C   UNL     1      -1.907   3.140  23.359  0.00  0.00    +0.006 C 
ATOM      8  C   UNL     1      -2.956   0.957  22.632  0.00  0.00    +0.111 C 
ATOM      9  C   UNL     1      -2.905   3.192  24.528  0.00  0.00    +0.023 C 
ATOM     10  C   UNL     1      -4.179   2.416  24.204  0.00  0.00    +0.108 C 
ATOM     14  C   UNL     1      -4.453  -0.032  24.435  0.00  0.00    +0.216 C 
ENDROOT
BRANCH   6  11
ATOM     11  C   UNL     1      -0.782   0.876  23.907  0.00  0.00    +0.024 C 
BRANCH  11  13
ATOM     13  C   UNL     1       0.696   1.224  23.827  0.00  0.00    +0.105 C 
BRANCH  13   5
ATOM      5  N   UNL     1       1.408   0.264  23.018  0.00  0.00    -0.333 N 
ATOM     22  C   UNL     1       0.664  -0.487  22.006  0.00  0.00    +0.129 C 
BRANCH   5  21
ATOM     21  C   UNL     1       2.781   0.036  23.191  0.00  0.00    +0.029 A 
ATOM     23  C   UNL     1       3.230  -1.201  23.654  0.00  0.00    +0.023 A 
ATOM     24  C   UNL     1       3.697   1.047  22.901  0.00  0.00    +0.023 A 
ATOM     25  C   UNL     1       4.595  -1.427  23.826  0.00  0.00    +0.002 A 
ATOM     26  C   UNL     1       5.062   0.821  23.073  0.00  0.00    +0.002 A 
ATOM     27  C   UNL     1       5.512  -0.417  23.536  0.00  0.00    +0.000 A 
ENDBRANCH   5  21
ENDBRANCH  13   5
ENDBRANCH  11  13
ENDBRANCH   6  11
BRANCH   7  12
ATOM     12  C   UNL     1      -0.636   3.917  23.700  0.00  0.00    +0.124 C 
BRANCH  12  17
ATOM      3  O   UNL     1      -1.220   5.709  25.247  0.00  0.00    -0.251 OA
ATOM     17  C   UNL     1      -0.746   4.603  25.033  0.00  0.00    +0.305 C 
BRANCH  17   2
ATOM      2  O   UNL     1      -0.229   3.804  26.003  0.00  0.00    -0.481 OA
ATOM     28  H   UNL     1      -0.874   3.643  26.726  0.00  0.00    +0.295 HD
ENDBRANCH  17   2
ENDBRANCH  12  17
ENDBRANCH   7  12
BRANCH  14  15
ATOM     15  C   UNL     1      -4.081  -1.405  23.938  0.00  0.00    +0.102 C 
BRANCH  15  16
ATOM     16  C   UNL     1      -3.081  -2.125  24.862  0.00  0.00    -0.029 C 
ATOM     18  C   UNL     1      -1.678  -2.170  24.233  0.00  0.00    +0.011 C 
ATOM     19  C   UNL     1      -3.577  -3.570  25.060  0.00  0.00    +0.011 C 
ATOM     20  C   UNL     1      -3.003  -1.440  26.236  0.00  0.00    +0.011 C 
ENDBRANCH  15  16
ENDBRANCH  14  15
TORSDOF 9
ENDMDL
MODEL 4
REMARK VINA RESULT:      -3.4      2.627      6.687
REMARK  Name = 28960095
REMARK  13 active torsions:
REMARK  status: ('A' for Active; 'I' for Inactive)
REMARK    1  A    between atoms: O_2  and  C_17
REMARK    2  A    between atoms: N_5  and  C_13
REMARK    3  A    between atoms: N_5  and  C_21
REMARK    4  A    between atoms: N_5  and  C_22
REMARK    5  A    between atoms: C_6  and  C_11
REMARK    6  A    between atoms: C_7  and  C_12
REMARK    7  A    between atoms: C_11  and  C_13
REMARK    8  A    between atoms: C_12  and  C_17
REMARK    9  A    between atoms: C_14  and  C_15
REMARK   10  A    between atoms: C_15  and  C_16
REMARK   11  A    between atoms: C_16  and  C_18
REMARK   12  A    between atoms: C_16  and  C_19
REMARK   13  A    between atoms: C_16  and  C_20
REMARK                            x       y       z     vdW  Elec       q    Type
REMARK                         _______ _______ _______ _____ _____    ______ ____
ROOT
ATOM      1  O   UNL     1      -2.104  -2.836  24.587  0.00  0.00    -0.276 OA
ATOM      4  N   UNL     1      -0.775  -1.000  25.099  0.00  0.00    -0.301 N 
ATOM      6  C   UNL     1       0.063   1.291  24.622  0.00  0.00    +0.012 C 
ATOM      7  C   UNL     1       1.379   0.660  24.098  0.00  0.00    +0.006 C 
ATOM      8  C   UNL     1      -0.596   0.351  25.648  0.00  0.00    +0.111 C 
ATOM      9  C   UNL     1       1.153  -0.770  23.580  0.00  0.00    +0.023 C 
ATOM     10  C   UNL     1       0.455  -1.636  24.625  0.00  0.00    +0.108 C 
ATOM     14  C   UNL     1      -1.985  -1.690  25.031  0.00  0.00    +0.216 C 
ENDROOT
BRANCH   6  11
ATOM     11  C   UNL     1      -0.937   1.655  23.517  0.00  0.00    +0.024 C 
BRANCH  11  13
ATOM     13  C   UNL     1      -0.907   3.136  23.173  0.00  0.00    +0.105 C 
BRANCH  13   5
ATOM      5  N   UNL     1      -1.385   3.931  24.278  0.00  0.00    -0.333 N 
ATOM     22  C   UNL     1      -0.472   4.899  24.891  0.00  0.00    +0.129 C 
BRANCH   5  21
ATOM     21  C   UNL     1      -2.689   3.787  24.773  0.00  0.00    +0.029 A 
ATOM     23  C   UNL     1      -2.935   3.922  26.140  0.00  0.00    +0.023 A 
ATOM     24  C   UNL     1      -3.740   3.510  23.899  0.00  0.00    +0.023 A 
ATOM     25  C   UNL     1      -4.231   3.778  26.632  0.00  0.00    +0.002 A 
ATOM     26  C   UNL     1      -5.037   3.366  24.391  0.00  0.00    +0.002 A 
ATOM     27  C   UNL     1      -5.283   3.500  25.758  0.00  0.00    +0.000 A 
ENDBRANCH   5  21
ENDBRANCH  13   5
ENDBRANCH  11  13
ENDBRANCH   6  11
BRANCH   7  12
ATOM     12  C   UNL     1       2.074   1.515  23.040  0.00  0.00    +0.124 C 
BRANCH  12  17
ATOM      3  O   UNL     1       4.372   0.848  23.507  0.00  0.00    -0.251 OA
ATOM     17  C   UNL     1       3.448   0.994  22.721  0.00  0.00    +0.305 C 
BRANCH  17   2
ATOM      2  O   UNL     1       3.530   0.697  21.398  0.00  0.00    -0.481 OA
ATOM     28  H   UNL     1       2.740   0.205  21.085  0.00  0.00    +0.295 HD
ENDBRANCH  17   2
ENDBRANCH  12  17
ENDBRANCH   7  12
BRANCH  14  15
ATOM     15  C   UNL     1      -3.206  -0.965  25.535  0.00  0.00    +0.102 C 
BRANCH  15  16
ATOM     16  C   UNL     1      -4.198  -0.610  24.413  0.00  0.00    -0.029 C 
ATOM     18  C   UNL     1      -5.402   0.175  24.963  0.00  0.00    +0.011 C 
ATOM     19  C   UNL     1      -4.709  -1.926  23.799  0.00  0.00    +0.011 C 
ATOM     20  C   UNL     1      -3.514   0.214  23.308  0.00  0.00    +0.011 C 
ENDBRANCH  15  16
ENDBRANCH  14  15
TORSDOF 9
ENDMDL
MODEL 5
REMARK VINA RESULT:      -3.0     17.058     18.919
REMARK  Name = 28960095
REMARK  13 active torsions:
REMARK  status: ('A' for Active; 'I' for Inactive)
REMARK    1  A    between atoms: O_2  and  C_17
REMARK    2  A    between atoms: N_5  and  C_13
REMARK    3  A    between atoms: N_5  and  C_21
REMARK    4  A    between atoms: N_5  and  C_22
REMARK    5  A    between atoms: C_6  and  C_11
REMARK    6  A    between atoms: C_7  and  C_12
REMARK    7  A    between atoms: C_11  and  C_13
REMARK    8  A    between atoms: C_12  and  C_17
REMARK    9  A    between atoms: C_14  and  C_15
REMARK   10  A    between atoms: C_15  and  C_16
REMARK   11  A    between atoms: C_16  and  C_18
REMARK   12  A    between atoms: C_16  and  C_19
REMARK   13  A    between atoms: C_16  and  C_20
REMARK                            x       y       z     vdW  Elec       q    Type
REMARK                         _______ _______ _______ _____ _____    ______ ____
ROOT
ATOM      1  O   UNL     1      16.183  -3.913  29.180  0.00  0.00    -0.276 OA
ATOM      4  N   UNL     1      16.041  -5.745  30.603  0.00  0.00    -0.301 N 
ATOM      6  C   UNL     1      15.168  -7.998  31.182  0.00  0.00    +0.012 C 
ATOM      7  C   UNL     1      14.195  -7.323  32.182  0.00  0.00    +0.006 C 
ATOM      8  C   UNL     1      16.413  -7.113  30.985  0.00  0.00    +0.111 C 
ATOM      9  C   UNL     1      13.873  -5.877  31.770  0.00  0.00    +0.023 C 
ATOM     10  C   UNL     1      15.148  -5.068  31.544  0.00  0.00    +0.108 C 
ATOM     14  C   UNL     1      16.490  -5.074  29.466  0.00  0.00    +0.216 C 
ENDROOT
BRANCH   6  11
ATOM     11  C   UNL     1      14.535  -8.334  29.826  0.00  0.00    +0.024 C 
BRANCH  11  13
ATOM     13  C   UNL     1      14.507  -9.829  29.553  0.00  0.00    +0.105 C 
BRANCH  13   5
ATOM      5  N   UNL     1      15.531 -10.199  28.605  0.00  0.00    -0.333 N 
ATOM     22  C   UNL     1      16.904 -10.366  29.087  0.00  0.00    +0.129 C 
BRANCH   5  21
ATOM     21  C   UNL     1      15.237 -10.390  27.247  0.00  0.00    +0.029 A 
ATOM     23  C   UNL     1      16.264 -10.377  26.303  0.00  0.00    +0.023 A 
ATOM     24  C   UNL     1      13.918 -10.592  26.841  0.00  0.00    +0.023 A 
ATOM     25  C   UNL     1      15.972 -10.566  24.953  0.00  0.00    +0.002 A 
ATOM     26  C   UNL     1      13.626 -10.781  25.491  0.00  0.00    +0.002 A 
ATOM     27  C   UNL     1      14.653 -10.768  24.546  0.00  0.00    +0.000 A 
ENDBRANCH   5  21
ENDBRANCH  13   5
ENDBRANCH  11  13
ENDBRANCH   6  11
BRANCH   7  12
ATOM     12  C   UNL     1      12.910  -8.121  32.399  0.00  0.00    +0.124 C 
BRANCH  12  17
ATOM      3  O   UNL     1      11.128  -6.523  32.865  0.00  0.00    -0.251 OA
ATOM     17  C   UNL     1      11.688  -7.297  32.103  0.00  0.00    +0.305 C 
BRANCH  17   2
ATOM      2  O   UNL     1      11.274  -7.533  30.831  0.00  0.00    -0.481 OA
ATOM     28  H   UNL     1      11.988  -7.368  30.177  0.00  0.00    +0.295 HD
ENDBRANCH  17   2
ENDBRANCH  12  17
ENDBRANCH   7  12
BRANCH  14  15
ATOM     15  C   UNL     1      17.404  -5.841  28.545  0.00  0.00    +0.102 C 
BRANCH  15  16
ATOM     16  C   UNL     1      16.778  -6.105  27.164  0.00  0.00    -0.029 C 
ATOM     18  C   UNL     1      17.390  -7.356  26.507  0.00  0.00    +0.011 C 
ATOM     19  C   UNL     1      17.074  -4.887  26.270  0.00  0.00    +0.011 C 
ATOM     20  C   UNL     1      15.254  -6.279  27.270  0.00  0.00    +0.011 C 
ENDBRANCH  15  16
ENDBRANCH  14  15
TORSDOF 9
ENDMDL
MODEL 6
REMARK VINA RESULT:      -2.7      1.947      5.195
REMARK  Name = 28960095
REMARK  13 active torsions:
REMARK  status: ('A' for Active; 'I' for Inactive)
REMARK    1  A    between atoms: O_2  and  C_17
REMARK    2  A    between atoms: N_5  and  C_13
REMARK    3  A    between atoms: N_5  and  C_21
REMARK    4  A    between atoms: N_5  and  C_22
REMARK    5  A    between atoms: C_6  and  C_11
REMARK    6  A    between atoms: C_7  and  C_12
REMARK    7  A    between atoms: C_11  and  C_13
REMARK    8  A    between atoms: C_12  and  C_17
REMARK    9  A    between atoms: C_14  and  C_15
REMARK   10  A    between atoms: C_15  and  C_16
REMARK   11  A    between atoms: C_16  and  C_18
REMARK   12  A    between atoms: C_16  and  C_19
REMARK   13  A    between atoms: C_16  and  C_20
REMARK                            x       y       z     vdW  Elec       q    Type
REMARK                         _______ _______ _______ _____ _____    ______ ____
ROOT
ATOM      1  O   UNL     1      -5.742  -0.674  24.724  0.00  0.00    -0.276 OA
ATOM      4  N   UNL     1      -4.437   1.125  24.049  0.00  0.00    -0.301 N 
ATOM      6  C   UNL     1      -2.478   2.630  24.327  0.00  0.00    +0.012 C 
ATOM      7  C   UNL     1      -3.438   3.714  24.882  0.00  0.00    +0.006 C 
ATOM      8  C   UNL     1      -3.248   1.681  23.390  0.00  0.00    +0.111 C 
ATOM      9  C   UNL     1      -4.691   3.089  25.518  0.00  0.00    +0.023 C 
ATOM     10  C   UNL     1      -5.378   2.124  24.555  0.00  0.00    +0.108 C 
ATOM     14  C   UNL     1      -4.721  -0.232  24.188  0.00  0.00    +0.216 C 
ENDROOT
BRANCH   6  11
ATOM     11  C   UNL     1      -1.749   1.828  25.413  0.00  0.00    +0.024 C 
BRANCH  11  13
ATOM     13  C   UNL     1      -0.794   0.798  24.831  0.00  0.00    +0.105 C 
BRANCH  13   5
ATOM      5  N   UNL     1       0.509   1.375  24.604  0.00  0.00    -0.333 N 
ATOM     22  C   UNL     1       0.936   2.494  25.447  0.00  0.00    +0.129 C 
BRANCH   5  21
ATOM     21  C   UNL     1       1.358   0.893  23.597  0.00  0.00    +0.029 A 
ATOM     23  C   UNL     1       0.873  -0.009  22.649  0.00  0.00    +0.023 A 
ATOM     24  C   UNL     1       2.686   1.316  23.543  0.00  0.00    +0.023 A 
ATOM     25  C   UNL     1       1.717  -0.489  21.648  0.00  0.00    +0.002 A 
ATOM     26  C   UNL     1       3.530   0.836  22.542  0.00  0.00    +0.002 A 
ATOM     27  C   UNL     1       3.046  -0.066  21.594  0.00  0.00    +0.000 A 
ENDBRANCH   5  21
ENDBRANCH  13   5
ENDBRANCH  11  13
ENDBRANCH   6  11
BRANCH   7  12
ATOM     12  C   UNL     1      -2.759   4.673  25.859  0.00  0.00    +0.124 C 
BRANCH  12  17
ATOM      3  O   UNL     1      -0.527   5.039  24.950  0.00  0.00    -0.251 OA
ATOM     17  C   UNL     1      -1.652   5.446  25.199  0.00  0.00    +0.305 C 
BRANCH  17   2
ATOM      2  O   UNL     1      -2.082   6.701  24.906  0.00  0.00    -0.481 OA
ATOM     28  H   UNL     1      -1.675   7.043  24.081  0.00  0.00    +0.295 HD
ENDBRANCH  17   2
ENDBRANCH  12  17
ENDBRANCH   7  12
BRANCH  14  15
ATOM     15  C   UNL     1      -3.700  -1.197  23.643  0.00  0.00    +0.102 C 
BRANCH  15  16
ATOM     16  C   UNL     1      -3.062  -2.074  24.736  0.00  0.00    -0.029 C 
ATOM     18  C   UNL     1      -1.555  -2.261  24.487  0.00  0.00    +0.011 C 
ATOM     19  C   UNL     1      -3.742  -3.454  24.692  0.00  0.00    +0.011 C 
ATOM     20  C   UNL     1      -3.276  -1.464  26.132  0.00  0.00    +0.011 C 
ENDBRANCH  15  16
ENDBRANCH  14  15
TORSDOF 9
ENDMDL
MODEL 7
REMARK VINA RESULT:      -2.3      2.721      5.774
REMARK  Name = 28960095
REMARK  13 active torsions:
REMARK  status: ('A' for Active; 'I' for Inactive)
REMARK    1  A    between atoms: O_2  and  C_17
REMARK    2  A    between atoms: N_5  and  C_13
REMARK    3  A    between atoms: N_5  and  C_21
REMARK    4  A    between atoms: N_5  and  C_22
REMARK    5  A    between atoms: C_6  and  C_11
REMARK    6  A    between atoms: C_7  and  C_12
REMARK    7  A    between atoms: C_11  and  C_13
REMARK    8  A    between atoms: C_12  and  C_17
REMARK    9  A    between atoms: C_14  and  C_15
REMARK   10  A    between atoms: C_15  and  C_16
REMARK   11  A    between atoms: C_16  and  C_18
REMARK   12  A    between atoms: C_16  and  C_19
REMARK   13  A    between atoms: C_16  and  C_20
REMARK                            x       y       z     vdW  Elec       q    Type
REMARK                         _______ _______ _______ _____ _____    ______ ____
ROOT
ATOM      1  O   UNL     1      -0.830   4.064  25.742  0.00  0.00    -0.276 OA
ATOM      4  N   UNL     1      -0.648   2.403  24.127  0.00  0.00    -0.301 N 
ATOM      6  C   UNL     1      -0.272   0.040  23.457  0.00  0.00    +0.012 C 
ATOM      7  C   UNL     1       1.161   0.432  23.014  0.00  0.00    +0.006 C 
ATOM      8  C   UNL     1      -1.199   1.267  23.377  0.00  0.00    +0.111 C 
ATOM      9  C   UNL     1       1.677   1.657  23.789  0.00  0.00    +0.023 C 
ATOM     10  C   UNL     1       0.692   2.819  23.710  0.00  0.00    +0.108 C 
ATOM     14  C   UNL     1      -1.305   3.094  25.144  0.00  0.00    +0.216 C 
ENDROOT
BRANCH   6  11
ATOM     11  C   UNL     1      -0.342  -0.589  24.855  0.00  0.00    +0.024 C 
BRANCH  11  13
ATOM     13  C   UNL     1      -0.552  -2.094  24.803  0.00  0.00    +0.105 C 
BRANCH  13   5
ATOM      5  N   UNL     1      -1.898  -2.412  24.390  0.00  0.00    -0.333 N 
ATOM     22  C   UNL     1      -2.125  -3.645  23.633  0.00  0.00    +0.129 C 
BRANCH   5  21
ATOM     21  C   UNL     1      -2.975  -1.565  24.689  0.00  0.00    +0.029 A 
ATOM     23  C   UNL     1      -3.185  -1.141  26.001  0.00  0.00    +0.023 A 
ATOM     24  C   UNL     1      -3.837  -1.149  23.675  0.00  0.00    +0.023 A 
ATOM     25  C   UNL     1      -4.256  -0.300  26.299  0.00  0.00    +0.002 A 
ATOM     26  C   UNL     1      -4.909  -0.308  23.972  0.00  0.00    +0.002 A 
ATOM     27  C   UNL     1      -5.119   0.117  25.285  0.00  0.00    +0.000 A 
ENDBRANCH   5  21
ENDBRANCH  13   5
ENDBRANCH  11  13
ENDBRANCH   6  11
BRANCH   7  12
ATOM     12  C   UNL     1       2.156  -0.723  23.106  0.00  0.00    +0.124 C 
BRANCH  12  17
ATOM      3  O   UNL     1       3.985   0.647  22.259  0.00  0.00    -0.251 OA
ATOM     17  C   UNL     1       3.576  -0.244  22.987  0.00  0.00    +0.305 C 
BRANCH  17   2
ATOM      2  O   UNL     1       4.372  -0.958  23.825  0.00  0.00    -0.481 OA
ATOM     28  H   UNL     1       5.172  -1.297  23.369  0.00  0.00    +0.295 HD
ENDBRANCH  17   2
ENDBRANCH  12  17
ENDBRANCH   7  12
BRANCH  14  15
ATOM     15  C   UNL     1      -2.680   2.602  25.517  0.00  0.00    +0.102 C 
BRANCH  15  16
ATOM     16  C   UNL     1      -3.804   3.524  25.009  0.00  0.00    -0.029 C 
ATOM     18  C   UNL     1      -5.091   3.334  25.830  0.00  0.00    +0.011 C 
ATOM     19  C   UNL     1      -4.096   3.150  23.544  0.00  0.00    +0.011 C 
ATOM     20  C   UNL     1      -3.377   5.000  25.063  0.00  0.00    +0.011 C 
ENDBRANCH  15  16
ENDBRANCH  14  15
TORSDOF 9
ENDMDL
MODEL 8
REMARK VINA RESULT:      -2.3      1.015      1.775
REMARK  Name = 28960095
REMARK  13 active torsions:
REMARK  status: ('A' for Active; 'I' for Inactive)
REMARK    1  A    between atoms: O_2  and  C_17
REMARK    2  A    between atoms: N_5  and  C_13
REMARK    3  A    between atoms: N_5  and  C_21
REMARK    4  A    between atoms: N_5  and  C_22
REMARK    5  A    between atoms: C_6  and  C_11
REMARK    6  A    between atoms: C_7  and  C_12
REMARK    7  A    between atoms: C_11  and  C_13
REMARK    8  A    between atoms: C_12  and  C_17
REMARK    9  A    between atoms: C_14  and  C_15
REMARK   10  A    between atoms: C_15  and  C_16
REMARK   11  A    between atoms: C_16  and  C_18
REMARK   12  A    between atoms: C_16  and  C_19
REMARK   13  A    between atoms: C_16  and  C_20
REMARK                            x       y       z     vdW  Elec       q    Type
REMARK                         _______ _______ _______ _____ _____    ______ ____
ROOT
ATOM      1  O   UNL     1      -4.406   4.276  24.870  0.00  0.00    -0.276 OA
ATOM      4  N   UNL     1      -3.826   2.118  25.508  0.00  0.00    -0.301 N 
ATOM      6  C   UNL     1      -2.511   0.031  25.209  0.00  0.00    +0.012 C 
ATOM      7  C   UNL     1      -3.776  -0.636  24.610  0.00  0.00    +0.006 C 
ATOM      8  C   UNL     1      -2.921   1.166  26.165  0.00  0.00    +0.111 C 
ATOM      9  C   UNL     1      -4.718   0.403  23.977  0.00  0.00    +0.023 C 
ATOM     10  C   UNL     1      -5.046   1.524  24.960  0.00  0.00    +0.108 C 
ATOM     14  C   UNL     1      -3.616   3.492  25.405  0.00  0.00    +0.216 C 
ENDROOT
BRANCH   6  11
ATOM     11  C   UNL     1      -1.524   0.553  24.157  0.00  0.00    +0.024 C 
BRANCH  11  13
ATOM     13  C   UNL     1      -0.083   0.195  24.486  0.00  0.00    +0.105 C 
BRANCH  13   5
ATOM      5  N   UNL     1       0.668  -0.072  23.283  0.00  0.00    -0.333 N 
ATOM     22  C   UNL     1      -0.062  -0.427  22.065  0.00  0.00    +0.129 C 
BRANCH   5  21
ATOM     21  C   UNL     1       2.070  -0.008  23.266  0.00  0.00    +0.029 A 
ATOM     23  C   UNL     1       2.709   1.181  22.914  0.00  0.00    +0.023 A 
ATOM     24  C   UNL     1       2.823  -1.133  23.601  0.00  0.00    +0.023 A 
ATOM     25  C   UNL     1       4.101   1.245  22.897  0.00  0.00    +0.002 A 
ATOM     26  C   UNL     1       4.216  -1.069  23.584  0.00  0.00    +0.002 A 
ATOM     27  C   UNL     1       4.856   0.120  23.232  0.00  0.00    +0.000 A 
ENDBRANCH   5  21
ENDBRANCH  13   5
ENDBRANCH  11  13
ENDBRANCH   6  11
BRANCH   7  12
ATOM     12  C   UNL     1      -3.453  -1.748  23.613  0.00  0.00    +0.124 C 
BRANCH  12  17
ATOM      3  O   UNL     1      -1.547  -3.235  23.924  0.00  0.00    -0.251 OA
ATOM     17  C   UNL     1      -2.660  -2.854  24.252  0.00  0.00    +0.305 C 
BRANCH  17   2
ATOM      2  O   UNL     1      -3.368  -3.391  25.279  0.00  0.00    -0.481 OA
ATOM     28  H   UNL     1      -4.073  -2.784  25.594  0.00  0.00    +0.295 HD
ENDBRANCH  17   2
ENDBRANCH  12  17
ENDBRANCH   7  12
BRANCH  14  15
ATOM     15  C   UNL     1      -2.334   4.026  25.992  0.00  0.00    +0.102 C 
BRANCH  15  16
ATOM     16  C   UNL     1      -1.186   4.085  24.968  0.00  0.00    -0.029 C 
ATOM     18  C   UNL     1      -1.582   3.395  23.650  0.00  0.00    +0.011 C 
ATOM     19  C   UNL     1       0.021   3.341  25.567  0.00  0.00    +0.011 C 
ATOM     20  C   UNL     1      -0.775   5.539  24.679  0.00  0.00    +0.011 C 
ENDBRANCH  15  16
ENDBRANCH  14  15
TORSDOF 9
ENDMDL
MODEL 9
REMARK VINA RESULT:      -0.8      2.636      5.454
REMARK  Name = 28960095
REMARK  13 active torsions:
REMARK  status: ('A' for Active; 'I' for Inactive)
REMARK    1  A    between atoms: O_2  and  C_17
REMARK    2  A    between atoms: N_5  and  C_13
REMARK    3  A    between atoms: N_5  and  C_21
REMARK    4  A    between atoms: N_5  and  C_22
REMARK    5  A    between atoms: C_6  and  C_11
REMARK    6  A    between atoms: C_7  and  C_12
REMARK    7  A    between atoms: C_11  and  C_13
REMARK    8  A    between atoms: C_12  and  C_17
REMARK    9  A    between atoms: C_14  and  C_15
REMARK   10  A    between atoms: C_15  and  C_16
REMARK   11  A    between atoms: C_16  and  C_18
REMARK   12  A    between atoms: C_16  and  C_19
REMARK   13  A    between atoms: C_16  and  C_20
REMARK                            x       y       z     vdW  Elec       q    Type
REMARK                         _______ _______ _______ _____ _____    ______ ____
ROOT
ATOM      1  O   UNL     1      -2.710   4.275  26.811  0.00  0.00    -0.276 OA
ATOM      4  N   UNL     1      -1.530   3.624  24.918  0.00  0.00    -0.301 N 
ATOM      6  C   UNL     1      -1.083   2.031  23.063  0.00  0.00    +0.012 C 
ATOM      7  C   UNL     1       0.164   1.535  23.840  0.00  0.00    +0.006 C 
ATOM      8  C   UNL     1      -1.403   3.484  23.461  0.00  0.00    +0.111 C 
ATOM      9  C   UNL     1       0.007   1.747  25.355  0.00  0.00    +0.023 C 
ATOM     10  C   UNL     1      -0.356   3.193  25.678  0.00  0.00    +0.108 C 
ATOM     14  C   UNL     1      -2.638   4.143  25.585  0.00  0.00    +0.216 C 
ENDROOT
BRANCH   6  11
ATOM     11  C   UNL     1      -2.322   1.146  23.242  0.00  0.00    +0.024 C 
BRANCH  11  13
ATOM     13  C   UNL     1      -2.982   1.339  24.598  0.00  0.00    +0.105 C 
BRANCH  13   5
ATOM      5  N   UNL     1      -3.782   0.191  24.950  0.00  0.00    -0.333 N 
ATOM     22  C   UNL     1      -5.024   0.404  25.696  0.00  0.00    +0.129 C 
BRANCH   5  21
ATOM     21  C   UNL     1      -3.388  -1.110  24.603  0.00  0.00    +0.029 A 
ATOM     23  C   UNL     1      -4.263  -1.939  23.901  0.00  0.00    +0.023 A 
ATOM     24  C   UNL     1      -2.122  -1.574  24.959  0.00  0.00    +0.023 A 
ATOM     25  C   UNL     1      -3.872  -3.232  23.556  0.00  0.00    +0.002 A 
ATOM     26  C   UNL     1      -1.731  -2.867  24.614  0.00  0.00    +0.002 A 
ATOM     27  C   UNL     1      -2.606  -3.697  23.912  0.00  0.00    +0.000 A 
ENDBRANCH   5  21
ENDBRANCH  13   5
ENDBRANCH  11  13
ENDBRANCH   6  11
BRANCH   7  12
ATOM     12  C   UNL     1       0.523   0.082  23.532  0.00  0.00    +0.124 C 
BRANCH  12  17
ATOM      3  O   UNL     1       2.825   0.225  22.743  0.00  0.00    -0.251 OA
ATOM     17  C   UNL     1       1.645  -0.014  22.536  0.00  0.00    +0.305 C 
BRANCH  17   2
ATOM      2  O   UNL     1       1.156  -0.414  21.334  0.00  0.00    -0.481 OA
ATOM     28  H   UNL     1       1.800  -0.261  20.608  0.00  0.00    +0.295 HD
ENDBRANCH  17   2
ENDBRANCH  12  17
ENDBRANCH   7  12
BRANCH  14  15
ATOM     15  C   UNL     1      -3.807   4.561  24.731  0.00  0.00    +0.102 C 
BRANCH  15  16
ATOM     16  C   UNL     1      -5.149   4.003  25.239  0.00  0.00    -0.029 C 
ATOM     18  C   UNL     1      -6.174   5.130  25.454  0.00  0.00    +0.011 C 
ATOM     19  C   UNL     1      -4.892   3.309  26.589  0.00  0.00    +0.011 C 
ATOM     20  C   UNL     1      -5.727   2.969  24.257  0.00  0.00    +0.011 C 
ENDBRANCH  15  16
ENDBRANCH  14  15
TORSDOF 9
ENDMDL
