MODEL 1
REMARK VINA RESULT:      -3.7      0.000      0.000
REMARK  Name = 26743814
REMARK  6 active torsions:
REMARK  status: ('A' for Active; 'I' for Inactive)
REMARK    1  A    between atoms: O_2  and  C_14
REMARK    2  A    between atoms: N_4  and  C_10
REMARK    3  A    between atoms: C_7  and  C_10
REMARK    4  A    between atoms: C_11  and  C_15
REMARK    5  A    between atoms: C_16  and  C_17
REMARK    6  A    between atoms: C_22  and  C_23
REMARK                            x       y       z     vdW  Elec       q    Type
REMARK                         _______ _______ _______ _____ _____    ______ ____
ROOT
ATOM      3  O   UNL     1      -1.009  -0.040  23.521  0.00  0.00    -0.336 OA
ATOM      5  N   UNL     1       0.527   1.579  23.714  0.00  0.00    -0.190 NA
ATOM      6  N   UNL     1       0.234  -0.662  23.357  0.00  0.00    -0.056 NA
ATOM     15  C   UNL     1      -0.747   1.277  23.726  0.00  0.00    +0.245 A 
ATOM     16  C   UNL     1       1.089   0.358  23.483  0.00  0.00    +0.202 A 
ENDROOT
BRANCH  16  17
ATOM      1  F   UNL     1       5.041  -2.329  24.068  0.00  0.00    -0.205 F 
ATOM     17  C   UNL     1       2.510   0.190  23.385  0.00  0.00    +0.025 A 
ATOM     18  C   UNL     1       3.100  -1.010  23.781  0.00  0.00    +0.050 A 
ATOM     19  C   UNL     1       3.302   1.227  22.894  0.00  0.00    +0.012 A 
ATOM     20  C   UNL     1       4.483  -1.172  23.685  0.00  0.00    +0.127 A 
ATOM     21  C   UNL     1       4.684   1.065  22.798  0.00  0.00    +0.007 A 
ATOM     22  C   UNL     1       5.275  -0.135  23.193  0.00  0.00    -0.015 A 
ATOM     23  C   UNL     1       6.753  -0.306  23.090  0.00  0.00    +0.047 C 
ENDBRANCH  16  17
BRANCH  15  11
ATOM      4  N   UNL     1      -3.001   1.543  24.751  0.00  0.00    -0.289 NA
ATOM     11  C   UNL     1      -1.946   2.180  23.936  0.00  0.00    +0.148 C 
ATOM     12  C   UNL     1      -3.689   2.624  25.454  0.00  0.00    +0.116 C 
ATOM     13  C   UNL     1      -1.591   3.474  24.692  0.00  0.00    +0.061 C 
ATOM     14  C   UNL     1      -2.530   3.501  25.892  0.00  0.00    +0.130 C 
BRANCH  14   2
ATOM      2  O   UNL     1      -2.948   4.822  26.173  0.00  0.00    -0.390 OA
ATOM     24  H   UNL     1      -2.665   5.030  27.079  0.00  0.00    +0.210 HD
ENDBRANCH  14   2
BRANCH   4  10
ATOM     10  C   UNL     1      -3.919   0.727  23.967  0.00  0.00    +0.088 C 
BRANCH  10   7
ATOM      7  C   UNL     1      -4.323  -0.503  24.713  0.00  0.00    +0.003 C 
ATOM      8  C   UNL     1      -3.282  -1.528  25.055  0.00  0.00    +0.005 C 
ATOM      9  C   UNL     1      -4.310  -1.825  24.003  0.00  0.00    +0.005 C 
ENDBRANCH  10   7
ENDBRANCH   4  10
ENDBRANCH  15  11
TORSDOF 5
ENDMDL
MODEL 2
REMARK VINA RESULT:      -3.7      1.771      2.458
REMARK  Name = 26743814
REMARK  6 active torsions:
REMARK  status: ('A' for Active; 'I' for Inactive)
REMARK    1  A    between atoms: O_2  and  C_14
REMARK    2  A    between atoms: N_4  and  C_10
REMARK    3  A    between atoms: C_7  and  C_10
REMARK    4  A    between atoms: C_11  and  C_15
REMARK    5  A    between atoms: C_16  and  C_17
REMARK    6  A    between atoms: C_22  and  C_23
REMARK                            x       y       z     vdW  Elec       q    Type
REMARK                         _______ _______ _______ _____ _____    ______ ____
ROOT
ATOM      3  O   UNL     1      -1.559   3.254  24.247  0.00  0.00    -0.336 OA
ATOM      5  N   UNL     1      -1.375   1.088  23.707  0.00  0.00    -0.190 NA
ATOM      6  N   UNL     1      -0.187   2.994  24.142  0.00  0.00    -0.056 NA
ATOM     15  C   UNL     1      -2.186   2.080  23.977  0.00  0.00    +0.245 A 
ATOM     16  C   UNL     1      -0.160   1.698  23.822  0.00  0.00    +0.202 A 
ENDROOT
BRANCH  16  17
ATOM      1  F   UNL     1       4.549   1.654  22.818  0.00  0.00    -0.205 F 
ATOM     17  C   UNL     1       1.065   0.981  23.609  0.00  0.00    +0.025 A 
ATOM     18  C   UNL     1       2.237   1.676  23.311  0.00  0.00    +0.050 A 
ATOM     19  C   UNL     1       1.083  -0.411  23.699  0.00  0.00    +0.012 A 
ATOM     20  C   UNL     1       3.427   0.977  23.104  0.00  0.00    +0.127 A 
ATOM     21  C   UNL     1       2.273  -1.108  23.492  0.00  0.00    +0.007 A 
ATOM     22  C   UNL     1       3.445  -0.414  23.194  0.00  0.00    -0.015 A 
ATOM     23  C   UNL     1       4.717  -1.162  22.974  0.00  0.00    +0.047 C 
ENDBRANCH  16  17
BRANCH  15  11
ATOM      4  N   UNL     1      -4.251   1.076  24.940  0.00  0.00    -0.289 NA
ATOM     11  C   UNL     1      -3.700   2.096  24.025  0.00  0.00    +0.148 C 
ATOM     12  C   UNL     1      -5.516   1.609  25.441  0.00  0.00    +0.116 C 
ATOM     13  C   UNL     1      -4.265   3.433  24.539  0.00  0.00    +0.061 C 
ATOM     14  C   UNL     1      -5.157   3.058  25.716  0.00  0.00    +0.130 C 
BRANCH  14   2
ATOM      2  O   UNL     1      -6.304   3.884  25.759  0.00  0.00    -0.390 OA
ATOM     24  H   UNL     1      -6.117   4.671  25.220  0.00  0.00    +0.210 HD
ENDBRANCH  14   2
BRANCH   4  10
ATOM     10  C   UNL     1      -4.416  -0.230  24.313  0.00  0.00    +0.088 C 
BRANCH  10   7
ATOM      7  C   UNL     1      -3.749  -1.303  25.110  0.00  0.00    +0.003 C 
ATOM      8  C   UNL     1      -2.461  -1.891  24.614  0.00  0.00    +0.005 C 
ATOM      9  C   UNL     1      -3.721  -2.703  24.572  0.00  0.00    +0.005 C 
ENDBRANCH  10   7
ENDBRANCH   4  10
ENDBRANCH  15  11
TORSDOF 5
ENDMDL
MODEL 3
REMARK VINA RESULT:      -3.5     15.564     18.324
REMARK  Name = 26743814
REMARK  6 active torsions:
REMARK  status: ('A' for Active; 'I' for Inactive)
REMARK    1  A    between atoms: O_2  and  C_14
REMARK    2  A    between atoms: N_4  and  C_10
REMARK    3  A    between atoms: C_7  and  C_10
REMARK    4  A    between atoms: C_11  and  C_15
REMARK    5  A    between atoms: C_16  and  C_17
REMARK    6  A    between atoms: C_22  and  C_23
REMARK                            x       y       z     vdW  Elec       q    Type
REMARK                         _______ _______ _______ _____ _____    ______ ____
ROOT
ATOM      3  O   UNL     1      -3.388  -9.401  10.641  0.00  0.00    -0.336 OA
ATOM      5  N   UNL     1      -5.343  -9.825  11.648  0.00  0.00    -0.190 NA
ATOM      6  N   UNL     1      -4.379  -8.862   9.811  0.00  0.00    -0.056 NA
ATOM     15  C   UNL     1      -4.041  -9.950  11.699  0.00  0.00    +0.245 A 
ATOM     16  C   UNL     1      -5.503  -9.153  10.472  0.00  0.00    +0.202 A 
ENDROOT
BRANCH  16  17
ATOM      1  F   UNL     1     -10.303  -9.379  10.760  0.00  0.00    -0.205 F 
ATOM     17  C   UNL     1      -6.801  -8.785   9.985  0.00  0.00    +0.025 A 
ATOM     18  C   UNL     1      -7.947  -9.268  10.619  0.00  0.00    +0.050 A 
ATOM     19  C   UNL     1      -6.919  -7.945   8.878  0.00  0.00    +0.012 A 
ATOM     20  C   UNL     1      -9.209  -8.910  10.145  0.00  0.00    +0.127 A 
ATOM     21  C   UNL     1      -8.181  -7.588   8.404  0.00  0.00    +0.007 A 
ATOM     22  C   UNL     1      -9.326  -8.070   9.037  0.00  0.00    -0.015 A 
ATOM     23  C   UNL     1     -10.675  -7.686   8.529  0.00  0.00    +0.047 C 
ENDBRANCH  16  17
BRANCH  15  11
ATOM      4  N   UNL     1      -1.972  -9.818  13.077  0.00  0.00    -0.289 NA
ATOM     11  C   UNL     1      -3.179 -10.606  12.757  0.00  0.00    +0.148 C 
ATOM     12  C   UNL     1      -1.646 -10.108  14.473  0.00  0.00    +0.116 C 
ATOM     13  C   UNL     1      -3.911 -10.770  14.102  0.00  0.00    +0.061 C 
ATOM     14  C   UNL     1      -3.016 -10.081  15.125  0.00  0.00    +0.130 C 
BRANCH  14   2
ATOM      2  O   UNL     1      -3.026 -10.781  16.354  0.00  0.00    -0.390 OA
ATOM     24  H   UNL     1      -3.767 -11.410  16.324  0.00  0.00    +0.210 HD
ENDBRANCH  14   2
BRANCH   4  10
ATOM     10  C   UNL     1      -0.853 -10.092  12.185  0.00  0.00    +0.088 C 
BRANCH  10   7
ATOM      7  C   UNL     1      -0.485  -8.883  11.388  0.00  0.00    +0.003 C 
ATOM      8  C   UNL     1       0.869  -8.813  10.745  0.00  0.00    +0.005 C 
ATOM      9  C   UNL     1       0.552  -7.941  11.924  0.00  0.00    +0.005 C 
ENDBRANCH  10   7
ENDBRANCH   4  10
ENDBRANCH  15  11
TORSDOF 5
ENDMDL
MODEL 4
REMARK VINA RESULT:      -2.9      1.524      3.317
REMARK  Name = 26743814
REMARK  6 active torsions:
REMARK  status: ('A' for Active; 'I' for Inactive)
REMARK    1  A    between atoms: O_2  and  C_14
REMARK    2  A    between atoms: N_4  and  C_10
REMARK    3  A    between atoms: C_7  and  C_10
REMARK    4  A    between atoms: C_11  and  C_15
REMARK    5  A    between atoms: C_16  and  C_17
REMARK    6  A    between atoms: C_22  and  C_23
REMARK                            x       y       z     vdW  Elec       q    Type
REMARK                         _______ _______ _______ _____ _____    ______ ____
ROOT
ATOM      3  O   UNL     1      -1.136   0.980  23.524  0.00  0.00    -0.336 OA
ATOM      5  N   UNL     1       0.152  -0.680  24.300  0.00  0.00    -0.190 NA
ATOM      6  N   UNL     1       0.171   1.281  23.121  0.00  0.00    -0.056 NA
ATOM     15  C   UNL     1      -1.058  -0.189  24.212  0.00  0.00    +0.245 A 
ATOM     16  C   UNL     1       0.871   0.257  23.616  0.00  0.00    +0.202 A 
ENDROOT
BRANCH  16  17
ATOM      1  F   UNL     1       4.944  -2.277  24.032  0.00  0.00    -0.205 F 
ATOM     17  C   UNL     1       2.291   0.139  23.446  0.00  0.00    +0.025 A 
ATOM     18  C   UNL     1       2.944  -1.034  23.828  0.00  0.00    +0.050 A 
ATOM     19  C   UNL     1       3.018   1.196  22.900  0.00  0.00    +0.012 A 
ATOM     20  C   UNL     1       4.325  -1.147  23.662  0.00  0.00    +0.127 A 
ATOM     21  C   UNL     1       4.398   1.082  22.735  0.00  0.00    +0.007 A 
ATOM     22  C   UNL     1       5.052  -0.089  23.116  0.00  0.00    -0.015 A 
ATOM     23  C   UNL     1       6.528  -0.209  22.938  0.00  0.00    +0.047 C 
ENDBRANCH  16  17
BRANCH  15  11
ATOM      4  N   UNL     1      -3.533   0.054  24.338  0.00  0.00    -0.289 NA
ATOM     11  C   UNL     1      -2.360  -0.737  24.761  0.00  0.00    +0.148 C 
ATOM     12  C   UNL     1      -4.661  -0.875  24.286  0.00  0.00    +0.116 C 
ATOM     13  C   UNL     1      -2.653  -2.169  24.276  0.00  0.00    +0.061 C 
ATOM     14  C   UNL     1      -4.033  -2.093  23.634  0.00  0.00    +0.130 C 
BRANCH  14   2
ATOM      2  O   UNL     1      -4.774  -3.269  23.895  0.00  0.00    -0.390 OA
ATOM     24  H   UNL     1      -5.088  -3.217  24.813  0.00  0.00    +0.210 HD
ENDBRANCH  14   2
BRANCH   4  10
ATOM     10  C   UNL     1      -3.801   1.194  25.205  0.00  0.00    +0.088 C 
BRANCH  10   7
ATOM      7  C   UNL     1      -4.471   2.300  24.456  0.00  0.00    +0.003 C 
ATOM      8  C   UNL     1      -3.786   3.631  24.347  0.00  0.00    +0.005 C 
ATOM      9  C   UNL     1      -5.000   3.481  25.215  0.00  0.00    +0.005 C 
ENDBRANCH  10   7
ENDBRANCH   4  10
ENDBRANCH  15  11
TORSDOF 5
ENDMDL
MODEL 5
REMARK VINA RESULT:      -2.6      1.577      3.075
REMARK  Name = 26743814
REMARK  6 active torsions:
REMARK  status: ('A' for Active; 'I' for Inactive)
REMARK    1  A    between atoms: O_2  and  C_14
REMARK    2  A    between atoms: N_4  and  C_10
REMARK    3  A    between atoms: C_7  and  C_10
REMARK    4  A    between atoms: C_11  and  C_15
REMARK    5  A    between atoms: C_16  and  C_17
REMARK    6  A    between atoms: C_22  and  C_23
REMARK                            x       y       z     vdW  Elec       q    Type
REMARK                         _______ _______ _______ _____ _____    ______ ____
ROOT
ATOM      3  O   UNL     1      -1.869  -0.596  24.031  0.00  0.00    -0.336 OA
ATOM      5  N   UNL     1      -0.389   0.942  24.710  0.00  0.00    -0.190 NA
ATOM      6  N   UNL     1      -0.631  -0.990  23.509  0.00  0.00    -0.056 NA
ATOM     15  C   UNL     1      -1.638   0.550  24.724  0.00  0.00    +0.245 A 
ATOM     16  C   UNL     1       0.190  -0.034  23.952  0.00  0.00    +0.202 A 
ENDROOT
BRANCH  16  17
ATOM      1  F   UNL     1       4.481  -2.217  23.919  0.00  0.00    -0.205 F 
ATOM     17  C   UNL     1       1.594  -0.023  23.657  0.00  0.00    +0.025 A 
ATOM     18  C   UNL     1       2.374  -1.145  23.936  0.00  0.00    +0.050 A 
ATOM     19  C   UNL     1       2.178   1.110  23.091  0.00  0.00    +0.012 A 
ATOM     20  C   UNL     1       3.739  -1.133  23.647  0.00  0.00    +0.127 A 
ATOM     21  C   UNL     1       3.543   1.121  22.804  0.00  0.00    +0.007 A 
ATOM     22  C   UNL     1       4.323  -0.000  23.082  0.00  0.00    -0.015 A 
ATOM     23  C   UNL     1       5.783   0.014  22.773  0.00  0.00    +0.047 C 
ENDBRANCH  16  17
BRANCH  15  11
ATOM      4  N   UNL     1      -2.889   2.649  25.201  0.00  0.00    -0.289 NA
ATOM     11  C   UNL     1      -2.838   1.186  25.396  0.00  0.00    +0.148 C 
ATOM     12  C   UNL     1      -4.303   3.020  25.225  0.00  0.00    +0.116 C 
ATOM     13  C   UNL     1      -4.176   0.666  24.840  0.00  0.00    +0.061 C 
ATOM     14  C   UNL     1      -4.931   1.914  24.397  0.00  0.00    +0.130 C 
BRANCH  14   2
ATOM      2  O   UNL     1      -6.315   1.783  24.659  0.00  0.00    -0.390 OA
ATOM     24  H   UNL     1      -6.423   1.705  25.622  0.00  0.00    +0.210 HD
ENDBRANCH  14   2
BRANCH   4  10
ATOM     10  C   UNL     1      -2.111   3.388  26.186  0.00  0.00    +0.088 C 
BRANCH  10   7
ATOM      7  C   UNL     1      -0.949   4.081  25.551  0.00  0.00    +0.003 C 
ATOM      8  C   UNL     1      -1.168   5.393  24.858  0.00  0.00    +0.005 C 
ATOM      9  C   UNL     1      -0.873   4.161  24.055  0.00  0.00    +0.005 C 
ENDBRANCH  10   7
ENDBRANCH   4  10
ENDBRANCH  15  11
TORSDOF 5
ENDMDL
MODEL 6
REMARK VINA RESULT:      -1.8      1.175      1.504
REMARK  Name = 26743814
REMARK  6 active torsions:
REMARK  status: ('A' for Active; 'I' for Inactive)
REMARK    1  A    between atoms: O_2  and  C_14
REMARK    2  A    between atoms: N_4  and  C_10
REMARK    3  A    between atoms: C_7  and  C_10
REMARK    4  A    between atoms: C_11  and  C_15
REMARK    5  A    between atoms: C_16  and  C_17
REMARK    6  A    between atoms: C_22  and  C_23
REMARK                            x       y       z     vdW  Elec       q    Type
REMARK                         _______ _______ _______ _____ _____    ______ ____
ROOT
ATOM      3  O   UNL     1      -0.806   0.313  23.229  0.00  0.00    -0.336 OA
ATOM      5  N   UNL     1       0.842   1.737  23.750  0.00  0.00    -0.190 NA
ATOM      6  N   UNL     1       0.390  -0.392  23.047  0.00  0.00    -0.056 NA
ATOM     15  C   UNL     1      -0.451   1.557  23.643  0.00  0.00    +0.245 A 
ATOM     16  C   UNL     1       1.315   0.515  23.373  0.00  0.00    +0.202 A 
ENDROOT
BRANCH  16  17
ATOM      1  F   UNL     1       4.999  -2.511  24.046  0.00  0.00    -0.205 F 
ATOM     17  C   UNL     1       2.721   0.231  23.334  0.00  0.00    +0.025 A 
ATOM     18  C   UNL     1       3.190  -1.026  23.716  0.00  0.00    +0.050 A 
ATOM     19  C   UNL     1       3.618   1.213  22.916  0.00  0.00    +0.012 A 
ATOM     20  C   UNL     1       4.558  -1.300  23.677  0.00  0.00    +0.127 A 
ATOM     21  C   UNL     1       4.985   0.939  22.878  0.00  0.00    +0.007 A 
ATOM     22  C   UNL     1       5.455  -0.318  23.258  0.00  0.00    -0.015 A 
ATOM     23  C   UNL     1       6.918  -0.609  23.217  0.00  0.00    +0.047 C 
ENDBRANCH  16  17
BRANCH  15  11
ATOM      4  N   UNL     1      -2.317   2.210  25.155  0.00  0.00    -0.289 NA
ATOM     11  C   UNL     1      -1.582   2.527  23.914  0.00  0.00    +0.148 C 
ATOM     12  C   UNL     1      -2.826   3.480  25.671  0.00  0.00    +0.116 C 
ATOM     13  C   UNL     1      -1.091   3.974  24.106  0.00  0.00    +0.061 C 
ATOM     14  C   UNL     1      -1.638   4.401  25.462  0.00  0.00    +0.130 C 
BRANCH  14   2
ATOM      2  O   UNL     1      -2.025   5.761  25.442  0.00  0.00    -0.390 OA
ATOM     24  H   UNL     1      -2.997   5.787  25.440  0.00  0.00    +0.210 HD
ENDBRANCH  14   2
BRANCH   4  10
ATOM     10  C   UNL     1      -3.379   1.232  24.961  0.00  0.00    +0.088 C 
BRANCH  10   7
ATOM      7  C   UNL     1      -4.674   1.717  25.527  0.00  0.00    +0.003 C 
ATOM      8  C   UNL     1      -5.961   1.151  25.002  0.00  0.00    +0.005 C 
ATOM      9  C   UNL     1      -5.574   2.563  24.676  0.00  0.00    +0.005 C 
ENDBRANCH  10   7
ENDBRANCH   4  10
ENDBRANCH  15  11
TORSDOF 5
ENDMDL
MODEL 7
REMARK VINA RESULT:      -0.7      3.376      7.196
REMARK  Name = 26743814
REMARK  6 active torsions:
REMARK  status: ('A' for Active; 'I' for Inactive)
REMARK    1  A    between atoms: O_2  and  C_14
REMARK    2  A    between atoms: N_4  and  C_10
REMARK    3  A    between atoms: C_7  and  C_10
REMARK    4  A    between atoms: C_11  and  C_15
REMARK    5  A    between atoms: C_16  and  C_17
REMARK    6  A    between atoms: C_22  and  C_23
REMARK                            x       y       z     vdW  Elec       q    Type
REMARK                         _______ _______ _______ _____ _____    ______ ____
ROOT
ATOM      3  O   UNL     1       0.766   2.319  25.680  0.00  0.00    -0.336 OA
ATOM      5  N   UNL     1      -0.983   1.610  24.474  0.00  0.00    -0.190 NA
ATOM      6  N   UNL     1      -0.323   3.107  26.073  0.00  0.00    -0.056 NA
ATOM     15  C   UNL     1       0.291   1.465  24.737  0.00  0.00    +0.245 A 
ATOM     16  C   UNL     1      -1.316   2.630  25.318  0.00  0.00    +0.202 A 
ENDROOT
BRANCH  16  17
ATOM      1  F   UNL     1      -6.042   2.137  24.545  0.00  0.00    -0.205 F 
ATOM     17  C   UNL     1      -2.652   3.149  25.381  0.00  0.00    +0.025 A 
ATOM     18  C   UNL     1      -3.722   2.379  24.924  0.00  0.00    +0.050 A 
ATOM     19  C   UNL     1      -2.881   4.423  25.899  0.00  0.00    +0.012 A 
ATOM     20  C   UNL     1      -5.021   2.884  24.987  0.00  0.00    +0.127 A 
ATOM     21  C   UNL     1      -4.179   4.928  25.960  0.00  0.00    +0.007 A 
ATOM     22  C   UNL     1      -5.249   4.159  25.504  0.00  0.00    -0.015 A 
ATOM     23  C   UNL     1      -6.637   4.701  25.571  0.00  0.00    +0.047 C 
ENDBRANCH  16  17
BRANCH  15  11
ATOM      4  N   UNL     1       0.670  -0.438  23.177  0.00  0.00    -0.289 NA
ATOM     11  C   UNL     1       1.288   0.490  24.145  0.00  0.00    +0.148 C 
ATOM     12  C   UNL     1       1.712  -0.785  22.212  0.00  0.00    +0.116 C 
ATOM     13  C   UNL     1       2.410   1.192  23.357  0.00  0.00    +0.061 C 
ATOM     14  C   UNL     1       2.375   0.559  21.971  0.00  0.00    +0.130 C 
BRANCH  14   2
ATOM      2  O   UNL     1       3.682   0.415  21.451  0.00  0.00    -0.390 OA
ATOM     24  H   UNL     1       3.638  -0.232  20.727  0.00  0.00    +0.210 HD
ENDBRANCH  14   2
BRANCH   4  10
ATOM     10  C   UNL     1       0.088  -1.618  23.803  0.00  0.00    +0.088 C 
BRANCH  10   7
ATOM      7  C   UNL     1      -1.385  -1.461  23.994  0.00  0.00    +0.003 C 
ATOM      8  C   UNL     1      -1.953  -1.507  25.383  0.00  0.00    +0.005 C 
ATOM      9  C   UNL     1      -2.196  -2.644  24.435  0.00  0.00    +0.005 C 
ENDBRANCH  10   7
ENDBRANCH   4  10
ENDBRANCH  15  11
TORSDOF 5
ENDMDL
