MODEL 1
REMARK VINA RESULT:      -2.2      0.000      0.000
REMARK  Name = 45783472
REMARK  9 active torsions:
REMARK  status: ('A' for Active; 'I' for Inactive)
REMARK    1  A    between atoms: O_3  and  C_28
REMARK    2  A    between atoms: O_3  and  C_29
REMARK    3  A    between atoms: N_4  and  C_13
REMARK    4  A    between atoms: N_8  and  C_26
REMARK    5  A    between atoms: N_8  and  C_27
REMARK    6  A    between atoms: C_9  and  C_14
REMARK    7  A    between atoms: C_13  and  C_15
REMARK    8  A    between atoms: C_18  and  C_21
REMARK    9  A    between atoms: C_27  and  C_28
REMARK                            x       y       z     vdW  Elec       q    Type
REMARK                         _______ _______ _______ _____ _____    ______ ____
ROOT
ATOM      2  O   UNL     1      -2.368   2.811  25.700  0.00  0.00    -0.336 OA
ATOM      5  N   UNL     1      -2.147   1.860  23.685  0.00  0.00    -0.190 NA
ATOM      6  N   UNL     1      -1.016   2.464  25.580  0.00  0.00    -0.056 NA
ATOM     14  C   UNL     1      -2.962   2.421  24.543  0.00  0.00    +0.245 A 
ATOM     18  C   UNL     1      -0.965   1.909  24.365  0.00  0.00    +0.204 A 
ENDROOT
BRANCH  18  21
ATOM      7  N   UNL     1       2.587   1.721  23.281  0.00  0.00    -0.240 NA
ATOM     21  C   UNL     1       0.249   1.392  23.803  0.00  0.00    +0.041 A 
ATOM     23  C   UNL     1       0.297   0.118  23.249  0.00  0.00    +0.016 A 
ATOM     24  C   UNL     1       1.411   2.148  23.794  0.00  0.00    +0.124 A 
ATOM     25  C   UNL     1       1.490  -0.355  22.711  0.00  0.00    +0.044 A 
ATOM     26  C   UNL     1       2.596   0.478  22.751  0.00  0.00    +0.119 A 
BRANCH  26   8
ATOM      8  N   UNL     1       3.803  -0.019  22.200  0.00  0.00    -0.327 N 
ATOM     30  H   UNL     1       3.712  -0.728  21.482  0.00  0.00    +0.148 HD
BRANCH   8  27
ATOM     27  C   UNL     1       5.087   0.437  22.621  0.00  0.00    +0.131 C 
BRANCH  27  28
ATOM     28  C   UNL     1       5.263   0.193  24.110  0.00  0.00    +0.178 C 
BRANCH  28   3
ATOM      3  O   UNL     1       5.655  -1.156  24.327  0.00  0.00    -0.381 OA
ATOM     29  C   UNL     1       4.600  -2.059  24.029  0.00  0.00    +0.194 C 
ENDBRANCH  28   3
ENDBRANCH  27  28
ENDBRANCH   8  27
ENDBRANCH  26   8
ENDBRANCH  18  21
BRANCH  14   9
ATOM      4  N   UNL     1      -5.245   1.915  25.393  0.00  0.00    -0.287 NA
ATOM      9  C   UNL     1      -4.447   2.689  24.422  0.00  0.00    +0.146 C 
ATOM     10  C   UNL     1      -4.809   4.160  24.700  0.00  0.00    +0.030 C 
ATOM     11  C   UNL     1      -5.861   4.108  25.800  0.00  0.00    +0.017 C 
ATOM     12  C   UNL     1      -6.438   2.712  25.677  0.00  0.00    +0.085 C 
BRANCH   4  13
ATOM     13  C   UNL     1      -5.579   0.576  24.925  0.00  0.00    +0.120 C 
BRANCH  13  15
ATOM      1 CL   UNL     1      -0.789  -3.064  24.948  0.00  0.00    -0.084 Cl
ATOM     15  C   UNL     1      -4.380  -0.334  24.930  0.00  0.00    -0.033 A 
ATOM     16  C   UNL     1      -3.541  -0.377  26.043  0.00  0.00    +0.006 A 
ATOM     17  C   UNL     1      -4.107  -1.136  23.821  0.00  0.00    +0.006 A 
ATOM     19  C   UNL     1      -2.430  -1.220  26.048  0.00  0.00    +0.020 A 
ATOM     20  C   UNL     1      -2.997  -1.980  23.826  0.00  0.00    +0.020 A 
ATOM     22  C   UNL     1      -2.158  -2.022  24.939  0.00  0.00    +0.041 A 
ENDBRANCH  13  15
ENDBRANCH   4  13
ENDBRANCH  14   9
TORSDOF 8
ENDMDL
MODEL 2
REMARK VINA RESULT:       0.3      2.386      3.666
REMARK  Name = 45783472
REMARK  9 active torsions:
REMARK  status: ('A' for Active; 'I' for Inactive)
REMARK    1  A    between atoms: O_3  and  C_28
REMARK    2  A    between atoms: O_3  and  C_29
REMARK    3  A    between atoms: N_4  and  C_13
REMARK    4  A    between atoms: N_8  and  C_26
REMARK    5  A    between atoms: N_8  and  C_27
REMARK    6  A    between atoms: C_9  and  C_14
REMARK    7  A    between atoms: C_13  and  C_15
REMARK    8  A    between atoms: C_18  and  C_21
REMARK    9  A    between atoms: C_27  and  C_28
REMARK                            x       y       z     vdW  Elec       q    Type
REMARK                         _______ _______ _______ _____ _____    ______ ____
ROOT
ATOM      2  O   UNL     1      -2.976  -1.067  25.428  0.00  0.00    -0.336 OA
ATOM      5  N   UNL     1      -2.346   0.880  24.517  0.00  0.00    -0.190 NA
ATOM      6  N   UNL     1      -1.657  -1.249  24.993  0.00  0.00    -0.056 NA
ATOM     14  C   UNL     1      -3.305   0.212  25.109  0.00  0.00    +0.245 A 
ATOM     18  C   UNL     1      -1.356  -0.058  24.468  0.00  0.00    +0.204 A 
ENDROOT
BRANCH  18  21
ATOM      7  N   UNL     1       1.852   1.678  23.749  0.00  0.00    -0.240 NA
ATOM     21  C   UNL     1      -0.077   0.228  23.886  0.00  0.00    +0.041 A 
ATOM     23  C   UNL     1       0.479  -0.614  22.930  0.00  0.00    +0.016 A 
ATOM     24  C   UNL     1       0.643   1.352  24.258  0.00  0.00    +0.124 A 
ATOM     25  C   UNL     1       1.722  -0.311  22.383  0.00  0.00    +0.044 A 
ATOM     26  C   UNL     1       2.361   0.837  22.822  0.00  0.00    +0.119 A 
BRANCH  26   8
ATOM      8  N   UNL     1       3.627   1.131  22.256  0.00  0.00    -0.327 N 
ATOM     30  H   UNL     1       3.674   1.947  21.656  0.00  0.00    +0.148 HD
BRANCH   8  27
ATOM     27  C   UNL     1       4.784   0.334  22.500  0.00  0.00    +0.131 C 
BRANCH  27  28
ATOM     28  C   UNL     1       5.259   0.532  23.929  0.00  0.00    +0.178 C 
BRANCH  28   3
ATOM      3  O   UNL     1       5.574  -0.731  24.503  0.00  0.00    -0.381 OA
ATOM     29  C   UNL     1       4.775  -1.767  23.949  0.00  0.00    +0.194 C 
ENDBRANCH  28   3
ENDBRANCH  27  28
ENDBRANCH   8  27
ENDBRANCH  26   8
ENDBRANCH  18  21
BRANCH  14   9
ATOM      4  N   UNL     1      -4.961   2.069  25.111  0.00  0.00    -0.287 NA
ATOM      9  C   UNL     1      -4.702   0.663  25.480  0.00  0.00    +0.146 C 
ATOM     10  C   UNL     1      -5.797  -0.140  24.756  0.00  0.00    +0.030 C 
ATOM     11  C   UNL     1      -6.659   0.903  24.058  0.00  0.00    +0.017 C 
ATOM     12  C   UNL     1      -6.396   2.170  24.847  0.00  0.00    +0.085 C 
BRANCH   4  13
ATOM     13  C   UNL     1      -4.522   3.019  26.126  0.00  0.00    +0.120 C 
BRANCH  13  15
ATOM      1 CL   UNL     1       0.472   5.926  24.454  0.00  0.00    -0.084 Cl
ATOM     15  C   UNL     1      -3.273   3.747  25.708  0.00  0.00    -0.033 A 
ATOM     16  C   UNL     1      -2.029   3.325  26.177  0.00  0.00    +0.006 A 
ATOM     17  C   UNL     1      -3.358   4.845  24.852  0.00  0.00    +0.006 A 
ATOM     19  C   UNL     1      -0.872   3.999  25.790  0.00  0.00    +0.020 A 
ATOM     20  C   UNL     1      -2.200   5.519  24.464  0.00  0.00    +0.020 A 
ATOM     22  C   UNL     1      -0.957   5.097  24.933  0.00  0.00    +0.041 A 
ENDBRANCH  13  15
ENDBRANCH   4  13
ENDBRANCH  14   9
TORSDOF 8
ENDMDL
MODEL 3
REMARK VINA RESULT:       0.5      2.128      3.738
REMARK  Name = 45783472
REMARK  9 active torsions:
REMARK  status: ('A' for Active; 'I' for Inactive)
REMARK    1  A    between atoms: O_3  and  C_28
REMARK    2  A    between atoms: O_3  and  C_29
REMARK    3  A    between atoms: N_4  and  C_13
REMARK    4  A    between atoms: N_8  and  C_26
REMARK    5  A    between atoms: N_8  and  C_27
REMARK    6  A    between atoms: C_9  and  C_14
REMARK    7  A    between atoms: C_13  and  C_15
REMARK    8  A    between atoms: C_18  and  C_21
REMARK    9  A    between atoms: C_27  and  C_28
REMARK                            x       y       z     vdW  Elec       q    Type
REMARK                         _______ _______ _______ _____ _____    ______ ____
ROOT
ATOM      2  O   UNL     1      -2.008   0.826  25.989  0.00  0.00    -0.336 OA
ATOM      5  N   UNL     1      -1.430  -0.362  24.182  0.00  0.00    -0.190 NA
ATOM      6  N   UNL     1      -0.706   1.226  25.660  0.00  0.00    -0.056 NA
ATOM     14  C   UNL     1      -2.358  -0.111  25.070  0.00  0.00    +0.245 A 
ATOM     18  C   UNL     1      -0.436   0.481  24.584  0.00  0.00    +0.204 A 
ENDROOT
BRANCH  18  21
ATOM      7  N   UNL     1       2.484  -0.531  22.516  0.00  0.00    -0.240 NA
ATOM     21  C   UNL     1       0.817   0.555  23.890  0.00  0.00    +0.041 A 
ATOM     23  C   UNL     1       1.574   1.720  23.900  0.00  0.00    +0.016 A 
ATOM     24  C   UNL     1       1.311  -0.534  23.190  0.00  0.00    +0.124 A 
ATOM     25  C   UNL     1       2.786   1.761  23.218  0.00  0.00    +0.044 A 
ATOM     26  C   UNL     1       3.192   0.619  22.547  0.00  0.00    +0.119 A 
BRANCH  26   8
ATOM      8  N   UNL     1       4.428   0.678  21.857  0.00  0.00    -0.327 N 
ATOM     30  H   UNL     1       4.435   1.196  20.986  0.00  0.00    +0.148 HD
BRANCH   8  27
ATOM     27  C   UNL     1       5.611   0.045  22.341  0.00  0.00    +0.131 C 
BRANCH  27  28
ATOM     28  C   UNL     1       5.875   0.464  23.777  0.00  0.00    +0.178 C 
BRANCH  28   3
ATOM      3  O   UNL     1       5.560  -0.613  24.650  0.00  0.00    -0.381 OA
ATOM     29  C   UNL     1       5.148  -1.765  23.927  0.00  0.00    +0.194 C 
ENDBRANCH  28   3
ENDBRANCH  27  28
ENDBRANCH   8  27
ENDBRANCH  26   8
ENDBRANCH  18  21
BRANCH  14   9
ATOM      4  N   UNL     1      -4.715  -0.113  24.272  0.00  0.00    -0.287 NA
ATOM      9  C   UNL     1      -3.742  -0.710  25.209  0.00  0.00    +0.146 C 
ATOM     10  C   UNL     1      -3.771  -2.217  24.897  0.00  0.00    +0.030 C 
ATOM     11  C   UNL     1      -4.832  -2.379  23.818  0.00  0.00    +0.017 C 
ATOM     12  C   UNL     1      -5.705  -1.152  23.987  0.00  0.00    +0.085 C 
BRANCH   4  13
ATOM     13  C   UNL     1      -5.330   1.106  24.781  0.00  0.00    +0.120 C 
BRANCH  13  15
ATOM      1 CL   UNL     1      -1.408   5.660  25.032  0.00  0.00    -0.084 Cl
ATOM     15  C   UNL     1      -4.348   2.245  24.844  0.00  0.00    -0.033 A 
ATOM     16  C   UNL     1      -3.563   2.552  23.734  0.00  0.00    +0.006 A 
ATOM     17  C   UNL     1      -4.223   2.995  26.014  0.00  0.00    +0.006 A 
ATOM     19  C   UNL     1      -2.653   3.607  23.792  0.00  0.00    +0.020 A 
ATOM     20  C   UNL     1      -3.314   4.050  26.072  0.00  0.00    +0.020 A 
ATOM     22  C   UNL     1      -2.528   4.357  24.962  0.00  0.00    +0.041 A 
ENDBRANCH  13  15
ENDBRANCH   4  13
ENDBRANCH  14   9
TORSDOF 8
ENDMDL
