MODEL 1
REMARK VINA RESULT:      -5.3      0.000      0.000
REMARK  Name = 40777880
REMARK  13 active torsions:
REMARK  status: ('A' for Active; 'I' for Inactive)
REMARK    1  A    between atoms: O_2  and  C_10
REMARK    2  A    between atoms: O_3  and  C_11
REMARK    3  A    between atoms: O_6  and  C_27
REMARK    4  A    between atoms: O_6  and  C_28
REMARK    5  A    between atoms: N_7  and  C_15
REMARK    6  A    between atoms: N_8  and  C_18
REMARK    7  A    between atoms: N_9  and  C_19
REMARK    8  A    between atoms: C_12  and  C_14
REMARK    9  A    between atoms: C_13  and  C_15
REMARK   10  A    between atoms: C_14  and  C_16
REMARK   11  A    between atoms: C_18  and  C_20
REMARK   12  A    between atoms: C_19  and  C_21
REMARK   13  A    between atoms: C_19  and  C_22
REMARK                            x       y       z     vdW  Elec       q    Type
REMARK                         _______ _______ _______ _____ _____    ______ ____
ROOT
ATOM      1  O   UNL     1      -2.291  -0.366  25.866  0.00  0.00    -0.366 OA
ATOM     10  C   UNL     1      -1.626  -1.976  24.275  0.00  0.00    +0.175 C 
ATOM     11  C   UNL     1      -0.376  -1.419  24.925  0.00  0.00    +0.176 C 
ATOM     12  C   UNL     1      -2.685  -1.634  25.310  0.00  0.00    +0.158 C 
ATOM     13  C   UNL     1      -0.895  -0.135  25.565  0.00  0.00    +0.167 C 
ENDROOT
BRANCH  10   2
ATOM      2  O   UNL     1      -1.556  -3.364  24.027  0.00  0.00    -0.387 OA
ATOM     29  H   UNL     1      -1.398  -3.482  23.075  0.00  0.00    +0.210 HD
ENDBRANCH  10   2
BRANCH  11   3
ATOM      3  O   UNL     1       0.068  -2.285  25.968  0.00  0.00    -0.387 OA
ATOM     30  H   UNL     1       0.284  -1.729  26.736  0.00  0.00    +0.210 HD
ENDBRANCH  11   3
BRANCH  12  14
ATOM     14  C   UNL     1      -4.083  -1.525  24.728  0.00  0.00    +0.130 C 
BRANCH  14  16
ATOM      4  O   UNL     1      -4.002   0.382  23.242  0.00  0.00    -0.276 OA
ATOM      8  N   UNL     1      -5.248   0.522  25.199  0.00  0.00    -0.311 N 
ATOM     16  C   UNL     1      -4.422  -0.114  24.284  0.00  0.00    +0.216 C 
ATOM     32  H   UNL     1      -5.550   0.018  26.029  0.00  0.00    +0.149 HD
BRANCH   8  18
ATOM     18  C   UNL     1      -5.722   1.876  25.025  0.00  0.00    +0.139 C 
BRANCH  18  20
ATOM     20  C   UNL     1      -4.598   2.871  25.044  0.00  0.00    -0.030 A 
ATOM     23  C   UNL     1      -3.965   3.185  26.247  0.00  0.00    +0.009 A 
ATOM     24  C   UNL     1      -4.186   3.480  23.859  0.00  0.00    +0.009 A 
ATOM     25  C   UNL     1      -2.920   4.109  26.265  0.00  0.00    +0.046 A 
ATOM     26  C   UNL     1      -3.141   4.405  23.876  0.00  0.00    +0.046 A 
ATOM     27  C   UNL     1      -2.508   4.719  25.079  0.00  0.00    +0.120 A 
BRANCH  27   6
ATOM      6  O   UNL     1      -1.488   5.620  25.097  0.00  0.00    -0.495 OA
ATOM     28  C   UNL     1      -0.218   5.172  24.626  0.00  0.00    +0.277 C 
ENDBRANCH  27   6
ENDBRANCH  18  20
ENDBRANCH   8  18
ENDBRANCH  14  16
ENDBRANCH  12  14
BRANCH  13  15
ATOM     15  C   UNL     1      -0.812   1.069  24.637  0.00  0.00    +0.140 C 
BRANCH  15   7
ATOM      5  O   UNL     1       1.039  -0.057  22.731  0.00  0.00    -0.253 OA
ATOM      7  N   UNL     1       0.572   1.466  24.418  0.00  0.00    -0.297 N 
ATOM      9  N   UNL     1       2.655   1.433  23.472  0.00  0.00    -0.297 N 
ATOM     17  C   UNL     1       1.386   0.861  23.472  0.00  0.00    +0.300 C 
ATOM     31  H   UNL     1       0.947   2.228  24.974  0.00  0.00    +0.150 HD
ATOM     33  H   UNL     1       2.869   2.136  24.174  0.00  0.00    +0.150 HD
BRANCH   9  19
ATOM     19  C   UNL     1       3.709   0.998  22.587  0.00  0.00    +0.068 C 
ATOM     21  C   UNL     1       3.158   0.039  21.539  0.00  0.00    +0.027 C 
ATOM     22  C   UNL     1       4.843   0.358  23.378  0.00  0.00    +0.027 C 
ENDBRANCH   9  19
ENDBRANCH  15   7
ENDBRANCH  13  15
TORSDOF 10
ENDMDL
MODEL 2
REMARK VINA RESULT:      -4.3      1.689      4.823
REMARK  Name = 40777880
REMARK  13 active torsions:
REMARK  status: ('A' for Active; 'I' for Inactive)
REMARK    1  A    between atoms: O_2  and  C_10
REMARK    2  A    between atoms: O_3  and  C_11
REMARK    3  A    between atoms: O_6  and  C_27
REMARK    4  A    between atoms: O_6  and  C_28
REMARK    5  A    between atoms: N_7  and  C_15
REMARK    6  A    between atoms: N_8  and  C_18
REMARK    7  A    between atoms: N_9  and  C_19
REMARK    8  A    between atoms: C_12  and  C_14
REMARK    9  A    between atoms: C_13  and  C_15
REMARK   10  A    between atoms: C_14  and  C_16
REMARK   11  A    between atoms: C_18  and  C_20
REMARK   12  A    between atoms: C_19  and  C_21
REMARK   13  A    between atoms: C_19  and  C_22
REMARK                            x       y       z     vdW  Elec       q    Type
REMARK                         _______ _______ _______ _____ _____    ______ ____
ROOT
ATOM      1  O   UNL     1      -2.940   3.588  23.441  0.00  0.00    -0.366 OA
ATOM     10  C   UNL     1      -2.789   3.695  25.792  0.00  0.00    +0.175 C 
ATOM     11  C   UNL     1      -1.389   3.515  25.243  0.00  0.00    +0.176 C 
ATOM     12  C   UNL     1      -3.523   4.246  24.581  0.00  0.00    +0.158 C 
ATOM     13  C   UNL     1      -1.664   3.026  23.824  0.00  0.00    +0.167 C 
ENDROOT
BRANCH  10   2
ATOM      2  O   UNL     1      -2.848   4.576  26.894  0.00  0.00    -0.387 OA
ATOM     29  H   UNL     1      -2.520   4.093  27.671  0.00  0.00    +0.210 HD
ENDBRANCH  10   2
BRANCH  11   3
ATOM      3  O   UNL     1      -0.725   4.775  25.156  0.00  0.00    -0.387 OA
ATOM     30  H   UNL     1      -0.320   4.830  24.273  0.00  0.00    +0.210 HD
ENDBRANCH  11   3
BRANCH  12  14
ATOM     14  C   UNL     1      -5.018   3.987  24.613  0.00  0.00    +0.130 C 
BRANCH  14  16
ATOM      4  O   UNL     1      -5.723   2.673  26.518  0.00  0.00    -0.276 OA
ATOM      8  N   UNL     1      -5.244   1.598  24.513  0.00  0.00    -0.311 N 
ATOM     16  C   UNL     1      -5.373   2.704  25.341  0.00  0.00    +0.216 C 
ATOM     32  H   UNL     1      -4.956   1.732  23.548  0.00  0.00    +0.149 HD
BRANCH   8  18
ATOM     18  C   UNL     1      -5.516   0.249  24.953  0.00  0.00    +0.139 C 
BRANCH  18  20
ATOM     20  C   UNL     1      -4.281  -0.605  24.945  0.00  0.00    -0.030 A 
ATOM     23  C   UNL     1      -3.231  -0.321  25.818  0.00  0.00    +0.009 A 
ATOM     24  C   UNL     1      -4.183  -1.681  24.064  0.00  0.00    +0.009 A 
ATOM     25  C   UNL     1      -2.084  -1.113  25.812  0.00  0.00    +0.046 A 
ATOM     26  C   UNL     1      -3.036  -2.475  24.056  0.00  0.00    +0.046 A 
ATOM     27  C   UNL     1      -1.986  -2.191  24.930  0.00  0.00    +0.120 A 
BRANCH  27   6
ATOM      6  O   UNL     1      -0.866  -2.965  24.924  0.00  0.00    -0.495 OA
ATOM     28  C   UNL     1       0.335  -2.372  25.416  0.00  0.00    +0.277 C 
ENDBRANCH  27   6
ENDBRANCH  18  20
ENDBRANCH   8  18
ENDBRANCH  14  16
ENDBRANCH  12  14
BRANCH  13  15
ATOM     15  C   UNL     1      -1.774   1.511  23.727  0.00  0.00    +0.140 C 
BRANCH  15   7
ATOM      5  O   UNL     1       0.910   1.615  24.779  0.00  0.00    -0.253 OA
ATOM      7  N   UNL     1      -0.576   0.936  23.132  0.00  0.00    -0.297 N 
ATOM      9  N   UNL     1       1.641   0.403  22.941  0.00  0.00    -0.297 N 
ATOM     17  C   UNL     1       0.676   1.039  23.718  0.00  0.00    +0.300 C 
ATOM     31  H   UNL     1      -0.669   0.427  22.259  0.00  0.00    +0.150 HD
ATOM     33  H   UNL     1       1.363   0.020  22.042  0.00  0.00    +0.150 HD
BRANCH   9  19
ATOM     19  C   UNL     1       3.035   0.353  23.311  0.00  0.00    +0.068 C 
ATOM     21  C   UNL     1       3.881   1.102  22.289  0.00  0.00    +0.027 C 
ATOM     22  C   UNL     1       3.499  -1.091  23.459  0.00  0.00    +0.027 C 
ENDBRANCH   9  19
ENDBRANCH  15   7
ENDBRANCH  13  15
TORSDOF 10
ENDMDL
MODEL 3
REMARK VINA RESULT:      -3.2      1.960      7.058
REMARK  Name = 40777880
REMARK  13 active torsions:
REMARK  status: ('A' for Active; 'I' for Inactive)
REMARK    1  A    between atoms: O_2  and  C_10
REMARK    2  A    between atoms: O_3  and  C_11
REMARK    3  A    between atoms: O_6  and  C_27
REMARK    4  A    between atoms: O_6  and  C_28
REMARK    5  A    between atoms: N_7  and  C_15
REMARK    6  A    between atoms: N_8  and  C_18
REMARK    7  A    between atoms: N_9  and  C_19
REMARK    8  A    between atoms: C_12  and  C_14
REMARK    9  A    between atoms: C_13  and  C_15
REMARK   10  A    between atoms: C_14  and  C_16
REMARK   11  A    between atoms: C_18  and  C_20
REMARK   12  A    between atoms: C_19  and  C_21
REMARK   13  A    between atoms: C_19  and  C_22
REMARK                            x       y       z     vdW  Elec       q    Type
REMARK                         _______ _______ _______ _____ _____    ______ ____
ROOT
ATOM      1  O   UNL     1      -2.375   2.909  26.366  0.00  0.00    -0.366 OA
ATOM     10  C   UNL     1      -1.379   3.599  24.342  0.00  0.00    +0.175 C 
ATOM     11  C   UNL     1      -2.415   4.635  24.729  0.00  0.00    +0.176 C 
ATOM     12  C   UNL     1      -1.112   2.923  25.676  0.00  0.00    +0.158 C 
ATOM     13  C   UNL     1      -3.256   3.877  25.751  0.00  0.00    +0.167 C 
ENDROOT
BRANCH  10   2
ATOM      2  O   UNL     1      -0.208   4.159  23.788  0.00  0.00    -0.387 OA
ATOM     29  H   UNL     1       0.312   3.430  23.410  0.00  0.00    +0.210 HD
ENDBRANCH  10   2
BRANCH  11   3
ATOM      3  O   UNL     1      -1.792   5.733  25.394  0.00  0.00    -0.387 OA
ATOM     30  H   UNL     1      -2.098   5.724  26.318  0.00  0.00    +0.210 HD
ENDBRANCH  11   3
BRANCH  12  14
ATOM     14  C   UNL     1      -0.587   1.505  25.540  0.00  0.00    +0.130 C 
BRANCH  14  16
ATOM      4  O   UNL     1       1.321   2.185  24.219  0.00  0.00    -0.276 OA
ATOM      8  N   UNL     1       0.217   0.211  23.683  0.00  0.00    -0.311 N 
ATOM     16  C   UNL     1       0.431   1.365  24.424  0.00  0.00    +0.216 C 
ATOM     32  H   UNL     1      -0.544  -0.410  23.942  0.00  0.00    +0.149 HD
BRANCH   8  18
ATOM     18  C   UNL     1       1.041  -0.166  22.557  0.00  0.00    +0.139 C 
BRANCH  18  20
ATOM     20  C   UNL     1       2.500  -0.181  22.909  0.00  0.00    -0.030 A 
ATOM     23  C   UNL     1       3.051  -1.287  23.555  0.00  0.00    +0.009 A 
ATOM     24  C   UNL     1       3.305   0.912  22.589  0.00  0.00    +0.009 A 
ATOM     25  C   UNL     1       4.408  -1.301  23.882  0.00  0.00    +0.046 A 
ATOM     26  C   UNL     1       4.661   0.900  22.915  0.00  0.00    +0.046 A 
ATOM     27  C   UNL     1       5.212  -0.207  23.561  0.00  0.00    +0.120 A 
BRANCH  27   6
ATOM      6  O   UNL     1       6.536  -0.221  23.879  0.00  0.00    -0.495 OA
ATOM     28  C   UNL     1       7.445  -0.619  22.854  0.00  0.00    +0.277 C 
ENDBRANCH  27   6
ENDBRANCH  18  20
ENDBRANCH   8  18
ENDBRANCH  14  16
ENDBRANCH  12  14
BRANCH  13  15
ATOM     15  C   UNL     1      -4.416   3.118  25.122  0.00  0.00    +0.140 C 
BRANCH  15   7
ATOM      5  O   UNL     1      -3.366   1.146  23.297  0.00  0.00    -0.253 OA
ATOM      7  N   UNL     1      -4.292   1.686  25.354  0.00  0.00    -0.297 N 
ATOM      9  N   UNL     1      -3.767  -0.492  24.890  0.00  0.00    -0.297 N 
ATOM     17  C   UNL     1      -3.771   0.815  24.410  0.00  0.00    +0.300 C 
ATOM     31  H   UNL     1      -4.587   1.317  26.253  0.00  0.00    +0.150 HD
ATOM     33  H   UNL     1      -4.192  -0.676  25.794  0.00  0.00    +0.150 HD
BRANCH   9  19
ATOM     19  C   UNL     1      -3.278  -1.608  24.116  0.00  0.00    +0.068 C 
ATOM     21  C   UNL     1      -4.405  -2.595  23.840  0.00  0.00    +0.027 C 
ATOM     22  C   UNL     1      -2.114  -2.285  24.828  0.00  0.00    +0.027 C 
ENDBRANCH   9  19
ENDBRANCH  15   7
ENDBRANCH  13  15
TORSDOF 10
ENDMDL
MODEL 4
REMARK VINA RESULT:      -3.2      2.084      6.498
REMARK  Name = 40777880
REMARK  13 active torsions:
REMARK  status: ('A' for Active; 'I' for Inactive)
REMARK    1  A    between atoms: O_2  and  C_10
REMARK    2  A    between atoms: O_3  and  C_11
REMARK    3  A    between atoms: O_6  and  C_27
REMARK    4  A    between atoms: O_6  and  C_28
REMARK    5  A    between atoms: N_7  and  C_15
REMARK    6  A    between atoms: N_8  and  C_18
REMARK    7  A    between atoms: N_9  and  C_19
REMARK    8  A    between atoms: C_12  and  C_14
REMARK    9  A    between atoms: C_13  and  C_15
REMARK   10  A    between atoms: C_14  and  C_16
REMARK   11  A    between atoms: C_18  and  C_20
REMARK   12  A    between atoms: C_19  and  C_21
REMARK   13  A    between atoms: C_19  and  C_22
REMARK                            x       y       z     vdW  Elec       q    Type
REMARK                         _______ _______ _______ _____ _____    ______ ____
ROOT
ATOM      1  O   UNL     1      -2.798   0.035  23.901  0.00  0.00    -0.366 OA
ATOM     10  C   UNL     1      -3.427  -1.602  25.478  0.00  0.00    +0.175 C 
ATOM     11  C   UNL     1      -4.619  -1.336  24.583  0.00  0.00    +0.176 C 
ATOM     12  C   UNL     1      -2.281  -1.102  24.616  0.00  0.00    +0.158 C 
ATOM     13  C   UNL     1      -4.243  -0.004  23.941  0.00  0.00    +0.167 C 
ENDROOT
BRANCH  10   2
ATOM      2  O   UNL     1      -3.278  -2.964  25.820  0.00  0.00    -0.387 OA
ATOM     29  H   UNL     1      -4.061  -3.222  26.336  0.00  0.00    +0.210 HD
ENDBRANCH  10   2
BRANCH  11   3
ATOM      3  O   UNL     1      -4.694  -2.319  23.552  0.00  0.00    -0.387 OA
ATOM     30  H   UNL     1      -4.061  -2.063  22.860  0.00  0.00    +0.210 HD
ENDBRANCH  11   3
BRANCH  12  14
ATOM     14  C   UNL     1      -1.058  -0.691  25.416  0.00  0.00    +0.130 C 
BRANCH  14  16
ATOM      4  O   UNL     1       0.195   1.332  24.979  0.00  0.00    -0.276 OA
ATOM      8  N   UNL     1       0.332  -0.434  23.474  0.00  0.00    -0.311 N 
ATOM     16  C   UNL     1      -0.116   0.197  24.626  0.00  0.00    +0.216 C 
ATOM     32  H   UNL     1       0.022  -1.382  23.276  0.00  0.00    +0.149 HD
BRANCH   8  18
ATOM     18  C   UNL     1       1.238   0.188  22.536  0.00  0.00    +0.139 C 
BRANCH  18  20
ATOM     20  C   UNL     1       2.674  -0.003  22.932  0.00  0.00    -0.030 A 
ATOM     23  C   UNL     1       3.593   1.029  22.741  0.00  0.00    +0.009 A 
ATOM     24  C   UNL     1       3.088  -1.211  23.492  0.00  0.00    +0.009 A 
ATOM     25  C   UNL     1       4.927   0.853  23.110  0.00  0.00    +0.046 A 
ATOM     26  C   UNL     1       4.422  -1.388  23.861  0.00  0.00    +0.046 A 
ATOM     27  C   UNL     1       5.341  -0.356  23.670  0.00  0.00    +0.120 A 
BRANCH  27   6
ATOM      6  O   UNL     1       6.642  -0.527  24.030  0.00  0.00    -0.495 OA
ATOM     28  C   UNL     1       7.621  -0.419  22.998  0.00  0.00    +0.277 C 
ENDBRANCH  27   6
ENDBRANCH  18  20
ENDBRANCH   8  18
ENDBRANCH  14  16
ENDBRANCH  12  14
BRANCH  13  15
ATOM     15  C   UNL     1      -4.720   1.199  24.742  0.00  0.00    +0.140 C 
BRANCH  15   7
ATOM      5  O   UNL     1      -3.363   3.555  23.776  0.00  0.00    -0.253 OA
ATOM      7  N   UNL     1      -3.600   1.887  25.370  0.00  0.00    -0.297 N 
ATOM      9  N   UNL     1      -1.969   3.470  25.628  0.00  0.00    -0.297 N 
ATOM     17  C   UNL     1      -3.013   3.018  24.825  0.00  0.00    +0.300 C 
ATOM     31  H   UNL     1      -3.248   1.526  26.251  0.00  0.00    +0.150 HD
ATOM     33  H   UNL     1      -1.706   2.915  26.437  0.00  0.00    +0.150 HD
BRANCH   9  19
ATOM     19  C   UNL     1      -1.179   4.633  25.302  0.00  0.00    +0.068 C 
ATOM     21  C   UNL     1      -2.080   5.845  25.098  0.00  0.00    +0.027 C 
ATOM     22  C   UNL     1      -0.320   4.370  24.071  0.00  0.00    +0.027 C 
ENDBRANCH   9  19
ENDBRANCH  15   7
ENDBRANCH  13  15
TORSDOF 10
ENDMDL
MODEL 5
REMARK VINA RESULT:      -2.5      2.162      2.941
REMARK  Name = 40777880
REMARK  13 active torsions:
REMARK  status: ('A' for Active; 'I' for Inactive)
REMARK    1  A    between atoms: O_2  and  C_10
REMARK    2  A    between atoms: O_3  and  C_11
REMARK    3  A    between atoms: O_6  and  C_27
REMARK    4  A    between atoms: O_6  and  C_28
REMARK    5  A    between atoms: N_7  and  C_15
REMARK    6  A    between atoms: N_8  and  C_18
REMARK    7  A    between atoms: N_9  and  C_19
REMARK    8  A    between atoms: C_12  and  C_14
REMARK    9  A    between atoms: C_13  and  C_15
REMARK   10  A    between atoms: C_14  and  C_16
REMARK   11  A    between atoms: C_18  and  C_20
REMARK   12  A    between atoms: C_19  and  C_21
REMARK   13  A    between atoms: C_19  and  C_22
REMARK                            x       y       z     vdW  Elec       q    Type
REMARK                         _______ _______ _______ _____ _____    ______ ____
ROOT
ATOM      1  O   UNL     1      -2.490  -0.627  25.968  0.00  0.00    -0.366 OA
ATOM     10  C   UNL     1      -1.571  -1.798  24.139  0.00  0.00    +0.175 C 
ATOM     11  C   UNL     1      -0.437  -1.428  25.073  0.00  0.00    +0.176 C 
ATOM     12  C   UNL     1      -2.770  -1.715  25.068  0.00  0.00    +0.158 C 
ATOM     13  C   UNL     1      -1.074  -0.339  25.930  0.00  0.00    +0.167 C 
ENDROOT
BRANCH  10   2
ATOM      2  O   UNL     1      -1.430  -3.082  23.569  0.00  0.00    -0.387 OA
ATOM     29  H   UNL     1      -0.496  -3.338  23.655  0.00  0.00    +0.210 HD
ENDBRANCH  10   2
BRANCH  11   3
ATOM      3  O   UNL     1      -0.116  -2.529  25.922  0.00  0.00    -0.387 OA
ATOM     30  H   UNL     1      -0.096  -3.328  25.367  0.00  0.00    +0.210 HD
ENDBRANCH  11   3
BRANCH  12  14
ATOM     14  C   UNL     1      -4.078  -1.456  24.342  0.00  0.00    +0.130 C 
BRANCH  14  16
ATOM      4  O   UNL     1      -3.702   0.672  23.255  0.00  0.00    -0.276 OA
ATOM      8  N   UNL     1      -5.318   0.519  24.919  0.00  0.00    -0.311 N 
ATOM     16  C   UNL     1      -4.323   0.021  24.091  0.00  0.00    +0.216 C 
ATOM     32  H   UNL     1      -5.780  -0.108  25.571  0.00  0.00    +0.149 HD
BRANCH   8  18
ATOM     18  C   UNL     1      -5.749   1.898  24.891  0.00  0.00    +0.139 C 
BRANCH  18  20
ATOM     20  C   UNL     1      -4.592   2.850  24.982  0.00  0.00    -0.030 A 
ATOM     23  C   UNL     1      -4.019   3.134  26.222  0.00  0.00    +0.009 A 
ATOM     24  C   UNL     1      -4.090   3.450  23.828  0.00  0.00    +0.009 A 
ATOM     25  C   UNL     1      -2.943   4.018  26.307  0.00  0.00    +0.046 A 
ATOM     26  C   UNL     1      -3.014   4.334  23.912  0.00  0.00    +0.046 A 
ATOM     27  C   UNL     1      -2.441   4.618  25.152  0.00  0.00    +0.120 A 
BRANCH  27   6
ATOM      6  O   UNL     1      -1.390   5.481  25.236  0.00  0.00    -0.495 OA
ATOM     28  C   UNL     1      -0.190   5.108  24.562  0.00  0.00    +0.277 C 
ENDBRANCH  27   6
ENDBRANCH  18  20
ENDBRANCH   8  18
ENDBRANCH  14  16
ENDBRANCH  12  14
BRANCH  13  15
ATOM     15  C   UNL     1      -0.898   1.056  25.348  0.00  0.00    +0.140 C 
BRANCH  15   7
ATOM      5  O   UNL     1      -0.526   2.080  28.020  0.00  0.00    -0.253 OA
ATOM      7  N   UNL     1       0.294   1.700  25.884  0.00  0.00    -0.297 N 
ATOM      9  N   UNL     1       1.623   2.730  27.435  0.00  0.00    -0.297 N 
ATOM     17  C   UNL     1       0.376   2.160  27.188  0.00  0.00    +0.300 C 
ATOM     31  H   UNL     1       1.100   1.800  25.275  0.00  0.00    +0.150 HD
ATOM     33  H   UNL     1       2.276   2.819  26.662  0.00  0.00    +0.150 HD
BRANCH   9  19
ATOM     19  C   UNL     1       1.986   3.293  28.714  0.00  0.00    +0.068 C 
ATOM     21  C   UNL     1       3.495   3.485  28.798  0.00  0.00    +0.027 C 
ATOM     22  C   UNL     1       1.478   2.414  29.850  0.00  0.00    +0.027 C 
ENDBRANCH   9  19
ENDBRANCH  15   7
ENDBRANCH  13  15
TORSDOF 10
ENDMDL
MODEL 6
REMARK VINA RESULT:      -2.4     16.321     19.177
REMARK  Name = 40777880
REMARK  13 active torsions:
REMARK  status: ('A' for Active; 'I' for Inactive)
REMARK    1  A    between atoms: O_2  and  C_10
REMARK    2  A    between atoms: O_3  and  C_11
REMARK    3  A    between atoms: O_6  and  C_27
REMARK    4  A    between atoms: O_6  and  C_28
REMARK    5  A    between atoms: N_7  and  C_15
REMARK    6  A    between atoms: N_8  and  C_18
REMARK    7  A    between atoms: N_9  and  C_19
REMARK    8  A    between atoms: C_12  and  C_14
REMARK    9  A    between atoms: C_13  and  C_15
REMARK   10  A    between atoms: C_14  and  C_16
REMARK   11  A    between atoms: C_18  and  C_20
REMARK   12  A    between atoms: C_19  and  C_21
REMARK   13  A    between atoms: C_19  and  C_22
REMARK                            x       y       z     vdW  Elec       q    Type
REMARK                         _______ _______ _______ _____ _____    ______ ____
ROOT
ATOM      1  O   UNL     1      15.494  -6.385  26.978  0.00  0.00    -0.366 OA
ATOM     10  C   UNL     1      16.920  -7.113  28.709  0.00  0.00    +0.175 C 
ATOM     11  C   UNL     1      16.883  -5.599  28.742  0.00  0.00    +0.176 C 
ATOM     12  C   UNL     1      15.642  -7.433  27.954  0.00  0.00    +0.158 C 
ATOM     13  C   UNL     1      16.324  -5.265  27.363  0.00  0.00    +0.167 C 
ENDROOT
BRANCH  10   2
ATOM      2  O   UNL     1      16.938  -7.699  29.994  0.00  0.00    -0.387 OA
ATOM     29  H   UNL     1      17.602  -7.224  30.521  0.00  0.00    +0.210 HD
ENDBRANCH  10   2
BRANCH  11   3
ATOM      3  O   UNL     1      15.948  -5.147  29.720  0.00  0.00    -0.387 OA
ATOM     30  H   UNL     1      15.343  -4.527  29.279  0.00  0.00    +0.210 HD
ENDBRANCH  11   3
BRANCH  12  14
ATOM     14  C   UNL     1      15.674  -8.781  27.257  0.00  0.00    +0.130 C 
BRANCH  14  16
ATOM      4  O   UNL     1      14.330 -10.781  27.468  0.00  0.00    -0.276 OA
ATOM      8  N   UNL     1      14.956  -9.628  29.386  0.00  0.00    -0.311 N 
ATOM     16  C   UNL     1      14.911  -9.849  28.017  0.00  0.00    +0.216 C 
ATOM     32  H   UNL     1      15.474  -8.830  29.743  0.00  0.00    +0.149 HD
BRANCH   8  18
ATOM     18  C   UNL     1      14.309 -10.493  30.346  0.00  0.00    +0.139 C 
BRANCH  18  20
ATOM     20  C   UNL     1      13.057  -9.878  30.902  0.00  0.00    -0.030 A 
ATOM     23  C   UNL     1      13.037  -8.526  31.245  0.00  0.00    +0.009 A 
ATOM     24  C   UNL     1      11.914 -10.659  31.074  0.00  0.00    +0.009 A 
ATOM     25  C   UNL     1      11.873  -7.955  31.761  0.00  0.00    +0.046 A 
ATOM     26  C   UNL     1      10.750 -10.088  31.589  0.00  0.00    +0.046 A 
ATOM     27  C   UNL     1      10.730  -8.736  31.933  0.00  0.00    +0.120 A 
BRANCH  27   6
ATOM      6  O   UNL     1       9.595  -8.178  32.436  0.00  0.00    -0.495 OA
ATOM     28  C   UNL     1       8.356  -8.783  32.068  0.00  0.00    +0.277 C 
ENDBRANCH  27   6
ENDBRANCH  18  20
ENDBRANCH   8  18
ENDBRANCH  14  16
ENDBRANCH  12  14
BRANCH  13  15
ATOM     15  C   UNL     1      17.405  -5.102  26.304  0.00  0.00    +0.140 C 
BRANCH  15   7
ATOM      5  O   UNL     1      17.390  -2.620  24.834  0.00  0.00    -0.253 OA
ATOM      7  N   UNL     1      16.822  -4.863  24.991  0.00  0.00    -0.297 N 
ATOM      9  N   UNL     1      16.235  -3.679  23.124  0.00  0.00    -0.297 N 
ATOM     17  C   UNL     1      16.866  -3.628  24.364  0.00  0.00    +0.300 C 
ATOM     31  H   UNL     1      16.377  -5.641  24.514  0.00  0.00    +0.150 HD
ATOM     33  H   UNL     1      15.766  -4.539  22.855  0.00  0.00    +0.150 HD
BRANCH   9  19
ATOM     19  C   UNL     1      16.131  -2.534  22.251  0.00  0.00    +0.068 C 
ATOM     21  C   UNL     1      17.405  -1.701  22.317  0.00  0.00    +0.027 C 
ATOM     22  C   UNL     1      14.908  -1.699  22.606  0.00  0.00    +0.027 C 
ENDBRANCH   9  19
ENDBRANCH  15   7
ENDBRANCH  13  15
TORSDOF 10
ENDMDL
MODEL 7
REMARK VINA RESULT:      -2.4      2.089      6.543
REMARK  Name = 40777880
REMARK  13 active torsions:
REMARK  status: ('A' for Active; 'I' for Inactive)
REMARK    1  A    between atoms: O_2  and  C_10
REMARK    2  A    between atoms: O_3  and  C_11
REMARK    3  A    between atoms: O_6  and  C_27
REMARK    4  A    between atoms: O_6  and  C_28
REMARK    5  A    between atoms: N_7  and  C_15
REMARK    6  A    between atoms: N_8  and  C_18
REMARK    7  A    between atoms: N_9  and  C_19
REMARK    8  A    between atoms: C_12  and  C_14
REMARK    9  A    between atoms: C_13  and  C_15
REMARK   10  A    between atoms: C_14  and  C_16
REMARK   11  A    between atoms: C_18  and  C_20
REMARK   12  A    between atoms: C_19  and  C_21
REMARK   13  A    between atoms: C_19  and  C_22
REMARK                            x       y       z     vdW  Elec       q    Type
REMARK                         _______ _______ _______ _____ _____    ______ ____
ROOT
ATOM      1  O   UNL     1      -4.232   2.765  26.473  0.00  0.00    -0.366 OA
ATOM     10  C   UNL     1      -4.168   4.224  24.621  0.00  0.00    +0.175 C 
ATOM     11  C   UNL     1      -5.621   3.931  24.933  0.00  0.00    +0.176 C 
ATOM     12  C   UNL     1      -3.498   3.884  25.941  0.00  0.00    +0.158 C 
ATOM     13  C   UNL     1      -5.513   2.686  25.807  0.00  0.00    +0.167 C 
ENDROOT
BRANCH  10   2
ATOM      2  O   UNL     1      -3.937   5.564  24.240  0.00  0.00    -0.387 OA
ATOM     29  H   UNL     1      -3.094   5.588  23.757  0.00  0.00    +0.210 HD
ENDBRANCH  10   2
BRANCH  11   3
ATOM      3  O   UNL     1      -6.179   4.980  25.723  0.00  0.00    -0.387 OA
ATOM     30  H   UNL     1      -6.319   4.626  26.618  0.00  0.00    +0.210 HD
ENDBRANCH  11   3
BRANCH  12  14
ATOM     14  C   UNL     1      -2.033   3.512  25.797  0.00  0.00    +0.130 C 
BRANCH  14  16
ATOM      4  O   UNL     1      -1.776   3.346  23.397  0.00  0.00    -0.276 OA
ATOM      8  N   UNL     1      -1.438   1.456  24.707  0.00  0.00    -0.311 N 
ATOM     16  C   UNL     1      -1.740   2.793  24.493  0.00  0.00    +0.216 C 
ATOM     32  H   UNL     1      -1.425   1.097  25.658  0.00  0.00    +0.149 HD
BRANCH   8  18
ATOM     18  C   UNL     1      -1.122   0.538  23.637  0.00  0.00    +0.139 C 
BRANCH  18  20
ATOM     20  C   UNL     1       0.343   0.546  23.305  0.00  0.00    -0.030 A 
ATOM     23  C   UNL     1       1.175   1.527  23.845  0.00  0.00    +0.009 A 
ATOM     24  C   UNL     1       0.870  -0.427  22.457  0.00  0.00    +0.009 A 
ATOM     25  C   UNL     1       2.536   1.534  23.537  0.00  0.00    +0.046 A 
ATOM     26  C   UNL     1       2.231  -0.420  22.148  0.00  0.00    +0.046 A 
ATOM     27  C   UNL     1       3.063   0.560  22.688  0.00  0.00    +0.120 A 
BRANCH  27   6
ATOM      6  O   UNL     1       4.391   0.567  22.388  0.00  0.00    -0.495 OA
ATOM     28  C   UNL     1       5.286   0.095  23.395  0.00  0.00    +0.277 C 
ENDBRANCH  27   6
ENDBRANCH  18  20
ENDBRANCH   8  18
ENDBRANCH  14  16
ENDBRANCH  12  14
BRANCH  13  15
ATOM     15  C   UNL     1      -5.543   1.392  25.006  0.00  0.00    +0.140 C 
BRANCH  15   7
ATOM      5  O   UNL     1      -4.365  -0.909  23.724  0.00  0.00    -0.253 OA
ATOM      7  N   UNL     1      -4.706   0.373  25.626  0.00  0.00    -0.297 N 
ATOM      9  N   UNL     1      -3.424  -1.517  25.755  0.00  0.00    -0.297 N 
ATOM     17  C   UNL     1      -4.184  -0.700  24.922  0.00  0.00    +0.300 C 
ATOM     31  H   UNL     1      -4.488   0.466  26.614  0.00  0.00    +0.150 HD
ATOM     33  H   UNL     1      -3.396  -1.303  26.748  0.00  0.00    +0.150 HD
BRANCH   9  19
ATOM     19  C   UNL     1      -2.760  -2.710  25.287  0.00  0.00    +0.068 C 
ATOM     21  C   UNL     1      -1.370  -2.372  24.764  0.00  0.00    +0.027 C 
ATOM     22  C   UNL     1      -3.598  -3.405  24.221  0.00  0.00    +0.027 C 
ENDBRANCH   9  19
ENDBRANCH  15   7
ENDBRANCH  13  15
TORSDOF 10
ENDMDL
MODEL 8
REMARK VINA RESULT:      -2.0      2.074      7.010
REMARK  Name = 40777880
REMARK  13 active torsions:
REMARK  status: ('A' for Active; 'I' for Inactive)
REMARK    1  A    between atoms: O_2  and  C_10
REMARK    2  A    between atoms: O_3  and  C_11
REMARK    3  A    between atoms: O_6  and  C_27
REMARK    4  A    between atoms: O_6  and  C_28
REMARK    5  A    between atoms: N_7  and  C_15
REMARK    6  A    between atoms: N_8  and  C_18
REMARK    7  A    between atoms: N_9  and  C_19
REMARK    8  A    between atoms: C_12  and  C_14
REMARK    9  A    between atoms: C_13  and  C_15
REMARK   10  A    between atoms: C_14  and  C_16
REMARK   11  A    between atoms: C_18  and  C_20
REMARK   12  A    between atoms: C_19  and  C_21
REMARK   13  A    between atoms: C_19  and  C_22
REMARK                            x       y       z     vdW  Elec       q    Type
REMARK                         _______ _______ _______ _____ _____    ______ ____
ROOT
ATOM      1  O   UNL     1      -3.166   3.184  25.572  0.00  0.00    -0.366 OA
ATOM     10  C   UNL     1      -2.553   2.191  23.523  0.00  0.00    +0.175 C 
ATOM     11  C   UNL     1      -3.945   2.767  23.363  0.00  0.00    +0.176 C 
ATOM     12  C   UNL     1      -2.030   2.981  24.711  0.00  0.00    +0.158 C 
ATOM     13  C   UNL     1      -4.376   2.961  24.813  0.00  0.00    +0.167 C 
ENDROOT
BRANCH  10   2
ATOM      2  O   UNL     1      -1.744   2.360  22.377  0.00  0.00    -0.387 OA
ATOM     29  H   UNL     1      -1.000   2.932  22.629  0.00  0.00    +0.210 HD
ENDBRANCH  10   2
BRANCH  11   3
ATOM      3  O   UNL     1      -3.882   4.051  22.745  0.00  0.00    -0.387 OA
ATOM     30  H   UNL     1      -3.860   4.715  23.455  0.00  0.00    +0.210 HD
ENDBRANCH  11   3
BRANCH  12  14
ATOM     14  C   UNL     1      -0.930   2.266  25.474  0.00  0.00    +0.130 C 
BRANCH  14  16
ATOM      4  O   UNL     1      -0.941  -0.133  25.165  0.00  0.00    -0.276 OA
ATOM      8  N   UNL     1       0.394   1.181  23.789  0.00  0.00    -0.311 N 
ATOM     16  C   UNL     1      -0.515   0.964  24.815  0.00  0.00    +0.216 C 
ATOM     32  H   UNL     1       0.676   2.132  23.570  0.00  0.00    +0.149 HD
BRANCH   8  18
ATOM     18  C   UNL     1       0.956   0.112  22.995  0.00  0.00    +0.139 C 
BRANCH  18  20
ATOM     20  C   UNL     1       2.446   0.015  23.159  0.00  0.00    -0.030 A 
ATOM     23  C   UNL     1       3.020  -1.166  23.630  0.00  0.00    +0.009 A 
ATOM     24  C   UNL     1       3.255   1.105  22.841  0.00  0.00    +0.009 A 
ATOM     25  C   UNL     1       4.403  -1.257  23.782  0.00  0.00    +0.046 A 
ATOM     26  C   UNL     1       4.638   1.015  22.993  0.00  0.00    +0.046 A 
ATOM     27  C   UNL     1       5.213  -0.166  23.463  0.00  0.00    +0.120 A 
BRANCH  27   6
ATOM      6  O   UNL     1       6.563  -0.255  23.611  0.00  0.00    -0.495 OA
ATOM     28  C   UNL     1       7.288  -0.911  22.572  0.00  0.00    +0.277 C 
ENDBRANCH  27   6
ENDBRANCH  18  20
ENDBRANCH   8  18
ENDBRANCH  14  16
ENDBRANCH  12  14
BRANCH  13  15
ATOM     15  C   UNL     1      -5.072   1.739  25.396  0.00  0.00    +0.140 C 
BRANCH  15   7
ATOM      5  O   UNL     1      -3.791  -0.656  26.370  0.00  0.00    -0.253 OA
ATOM      7  N   UNL     1      -4.754   0.541  24.632  0.00  0.00    -0.297 N 
ATOM      9  N   UNL     1      -3.949  -1.565  24.242  0.00  0.00    -0.297 N 
ATOM     17  C   UNL     1      -4.134  -0.565  25.193  0.00  0.00    +0.300 C 
ATOM     31  H   UNL     1      -5.012   0.514  23.650  0.00  0.00    +0.150 HD
ATOM     33  H   UNL     1      -4.198  -1.367  23.277  0.00  0.00    +0.150 HD
BRANCH   9  19
ATOM     19  C   UNL     1      -3.326  -2.831  24.549  0.00  0.00    +0.068 C 
ATOM     21  C   UNL     1      -1.836  -2.777  24.235  0.00  0.00    +0.027 C 
ATOM     22  C   UNL     1      -4.009  -3.961  23.790  0.00  0.00    +0.027 C 
ENDBRANCH   9  19
ENDBRANCH  15   7
ENDBRANCH  13  15
TORSDOF 10
ENDMDL
