MODEL 1
REMARK VINA RESULT:      -3.0      0.000      0.000
REMARK  Name = 51137148
REMARK  5 active torsions:
REMARK  status: ('A' for Active; 'I' for Inactive)
REMARK    1  A    between atoms: O_3  and  C_15
REMARK    2  A    between atoms: O_3  and  C_24
REMARK    3  A    between atoms: N_4  and  C_10
REMARK    4  A    between atoms: C_6  and  C_11
REMARK    5  A    between atoms: C_10  and  C_12
REMARK                            x       y       z     vdW  Elec       q    Type
REMARK                         _______ _______ _______ _____ _____    ______ ____
ROOT
ATOM      4  N   UNL     1      -2.786  -0.019  24.667  0.00  0.00    -0.297 NA
ATOM      6  C   UNL     1      -0.828  -0.924  23.745  0.00  0.00    +0.090 C 
ATOM      7  C   UNL     1      -1.243  -1.745  24.978  0.00  0.00    +0.029 C 
ATOM      8  C   UNL     1      -1.633   0.378  23.857  0.00  0.00    +0.097 C 
ATOM      9  C   UNL     1      -2.228  -0.858  25.729  0.00  0.00    +0.085 C 
ENDROOT
BRANCH   6  11
ATOM      1  F   UNL     1       6.366  -0.387  23.328  0.00  0.00    -0.205 F 
ATOM      2  O   UNL     1       1.027   0.524  23.112  0.00  0.00    -0.439 OA
ATOM      5  N   UNL     1       1.645  -1.504  23.909  0.00  0.00    -0.213 NA
ATOM     11  C   UNL     1       0.659  -0.689  23.609  0.00  0.00    +0.201 A 
ATOM     13  C   UNL     1       2.765  -0.778  23.585  0.00  0.00    +0.112 A 
ATOM     14  C   UNL     1       2.391   0.465  23.097  0.00  0.00    +0.156 A 
ATOM     17  C   UNL     1       4.130  -1.088  23.672  0.00  0.00    +0.070 A 
ATOM     18  C   UNL     1       3.275   1.450  22.676  0.00  0.00    +0.051 A 
ATOM     22  C   UNL     1       5.054  -0.119  23.257  0.00  0.00    +0.126 A 
ATOM     23  C   UNL     1       4.633   1.125  22.769  0.00  0.00    +0.042 A 
ENDBRANCH   6  11
BRANCH   4  10
ATOM     10  C   UNL     1      -3.517   1.125  25.192  0.00  0.00    +0.123 C 
BRANCH  10  12
ATOM     12  C   UNL     1      -2.682   2.377  25.182  0.00  0.00    +0.008 A 
ATOM     15  C   UNL     1      -3.242   3.603  24.825  0.00  0.00    +0.124 A 
ATOM     16  C   UNL     1      -1.335   2.300  25.535  0.00  0.00    +0.008 A 
ATOM     19  C   UNL     1      -2.453   4.755  24.822  0.00  0.00    +0.046 A 
ATOM     20  C   UNL     1      -0.547   3.452  25.530  0.00  0.00    +0.001 A 
ATOM     21  C   UNL     1      -1.106   4.678  25.174  0.00  0.00    +0.004 A 
BRANCH  15   3
ATOM      3  O   UNL     1      -4.556   3.697  24.478  0.00  0.00    -0.495 OA
ATOM     24  C   UNL     1      -5.496   3.866  25.537  0.00  0.00    +0.277 C 
ENDBRANCH  15   3
ENDBRANCH  10  12
ENDBRANCH   4  10
TORSDOF 4
ENDMDL
MODEL 2
REMARK VINA RESULT:      -2.5      1.395      2.612
REMARK  Name = 51137148
REMARK  5 active torsions:
REMARK  status: ('A' for Active; 'I' for Inactive)
REMARK    1  A    between atoms: O_3  and  C_15
REMARK    2  A    between atoms: O_3  and  C_24
REMARK    3  A    between atoms: N_4  and  C_10
REMARK    4  A    between atoms: C_6  and  C_11
REMARK    5  A    between atoms: C_10  and  C_12
REMARK                            x       y       z     vdW  Elec       q    Type
REMARK                         _______ _______ _______ _____ _____    ______ ____
ROOT
ATOM      4  N   UNL     1      -2.109   0.952  23.342  0.00  0.00    -0.297 NA
ATOM      6  C   UNL     1      -0.163  -0.352  23.244  0.00  0.00    +0.090 C 
ATOM      7  C   UNL     1      -0.837  -0.534  24.615  0.00  0.00    +0.029 C 
ATOM      8  C   UNL     1      -0.818   0.904  22.654  0.00  0.00    +0.097 C 
ATOM      9  C   UNL     1      -1.805   0.635  24.737  0.00  0.00    +0.085 C 
ENDROOT
BRANCH   6  11
ATOM      1  F   UNL     1       6.994   0.645  23.208  0.00  0.00    -0.205 F 
ATOM      2  O   UNL     1       1.993  -1.381  23.726  0.00  0.00    -0.439 OA
ATOM      5  N   UNL     1       2.116   0.742  22.945  0.00  0.00    -0.213 NA
ATOM     11  C   UNL     1       1.346  -0.268  23.284  0.00  0.00    +0.201 A 
ATOM     13  C   UNL     1       3.383   0.266  23.181  0.00  0.00    +0.112 A 
ATOM     14  C   UNL     1       3.312  -1.034  23.658  0.00  0.00    +0.156 A 
ATOM     17  C   UNL     1       4.643   0.860  23.019  0.00  0.00    +0.070 A 
ATOM     18  C   UNL     1       4.410  -1.814  23.999  0.00  0.00    +0.051 A 
ATOM     22  C   UNL     1       5.776   0.104  23.352  0.00  0.00    +0.126 A 
ATOM     23  C   UNL     1       5.659  -1.207  23.832  0.00  0.00    +0.042 A 
ENDBRANCH   6  11
BRANCH   4  10
ATOM     10  C   UNL     1      -2.768   2.243  23.198  0.00  0.00    +0.123 C 
BRANCH  10  12
ATOM     12  C   UNL     1      -3.863   2.430  24.213  0.00  0.00    +0.008 A 
ATOM     15  C   UNL     1      -3.953   3.607  24.955  0.00  0.00    +0.124 A 
ATOM     16  C   UNL     1      -4.794   1.410  24.406  0.00  0.00    +0.008 A 
ATOM     19  C   UNL     1      -4.975   3.764  25.892  0.00  0.00    +0.046 A 
ATOM     20  C   UNL     1      -5.816   1.567  25.344  0.00  0.00    +0.001 A 
ATOM     21  C   UNL     1      -5.906   2.743  26.086  0.00  0.00    +0.004 A 
BRANCH  15   3
ATOM      3  O   UNL     1      -3.052   4.614  24.779  0.00  0.00    -0.495 OA
ATOM     24  C   UNL     1      -1.826   4.520  25.502  0.00  0.00    +0.277 C 
ENDBRANCH  15   3
ENDBRANCH  10  12
ENDBRANCH   4  10
TORSDOF 4
ENDMDL
MODEL 3
REMARK VINA RESULT:      -2.4      1.094      2.233
REMARK  Name = 51137148
REMARK  5 active torsions:
REMARK  status: ('A' for Active; 'I' for Inactive)
REMARK    1  A    between atoms: O_3  and  C_15
REMARK    2  A    between atoms: O_3  and  C_24
REMARK    3  A    between atoms: N_4  and  C_10
REMARK    4  A    between atoms: C_6  and  C_11
REMARK    5  A    between atoms: C_10  and  C_12
REMARK                            x       y       z     vdW  Elec       q    Type
REMARK                         _______ _______ _______ _____ _____    ______ ____
ROOT
ATOM      4  N   UNL     1      -2.454   0.582  23.666  0.00  0.00    -0.297 NA
ATOM      6  C   UNL     1      -0.474  -0.672  23.723  0.00  0.00    +0.090 C 
ATOM      7  C   UNL     1      -1.033  -0.529  25.149  0.00  0.00    +0.029 C 
ATOM      8  C   UNL     1      -1.218   0.391  22.905  0.00  0.00    +0.097 C 
ATOM      9  C   UNL     1      -2.032   0.618  25.067  0.00  0.00    +0.085 C 
ENDROOT
BRANCH   6  11
ATOM      1  F   UNL     1       6.748  -0.686  23.476  0.00  0.00    -0.205 F 
ATOM      2  O   UNL     1       1.499   0.596  23.057  0.00  0.00    -0.439 OA
ATOM      5  N   UNL     1       1.946  -1.420  23.990  0.00  0.00    -0.213 NA
ATOM     11  C   UNL     1       1.030  -0.555  23.615  0.00  0.00    +0.201 A 
ATOM     13  C   UNL     1       3.124  -0.798  23.655  0.00  0.00    +0.112 A 
ATOM     14  C   UNL     1       2.855   0.437  23.085  0.00  0.00    +0.156 A 
ATOM     17  C   UNL     1       4.460  -1.201  23.798  0.00  0.00    +0.070 A 
ATOM     18  C   UNL     1       3.819   1.328  22.631  0.00  0.00    +0.051 A 
ATOM     22  C   UNL     1       5.462  -0.328  23.352  0.00  0.00    +0.126 A 
ATOM     23  C   UNL     1       5.146   0.910  22.781  0.00  0.00    +0.042 A 
ENDBRANCH   6  11
BRANCH   4  10
ATOM     10  C   UNL     1      -3.169   1.787  23.272  0.00  0.00    +0.123 C 
BRANCH  10  12
ATOM     12  C   UNL     1      -4.166   2.214  24.316  0.00  0.00    +0.008 A 
ATOM     15  C   UNL     1      -4.077   3.471  24.913  0.00  0.00    +0.124 A 
ATOM     16  C   UNL     1      -5.186   1.338  24.683  0.00  0.00    +0.008 A 
ATOM     19  C   UNL     1      -5.010   3.851  25.879  0.00  0.00    +0.046 A 
ATOM     20  C   UNL     1      -6.118   1.717  25.649  0.00  0.00    +0.001 A 
ATOM     21  C   UNL     1      -6.030   2.974  26.247  0.00  0.00    +0.004 A 
BRANCH  15   3
ATOM      3  O   UNL     1      -3.087   4.340  24.567  0.00  0.00    -0.495 OA
ATOM     24  C   UNL     1      -1.961   4.421  25.438  0.00  0.00    +0.277 C 
ENDBRANCH  15   3
ENDBRANCH  10  12
ENDBRANCH   4  10
TORSDOF 4
ENDMDL
MODEL 4
REMARK VINA RESULT:      -1.7      1.702      2.914
REMARK  Name = 51137148
REMARK  5 active torsions:
REMARK  status: ('A' for Active; 'I' for Inactive)
REMARK    1  A    between atoms: O_3  and  C_15
REMARK    2  A    between atoms: O_3  and  C_24
REMARK    3  A    between atoms: N_4  and  C_10
REMARK    4  A    between atoms: C_6  and  C_11
REMARK    5  A    between atoms: C_10  and  C_12
REMARK                            x       y       z     vdW  Elec       q    Type
REMARK                         _______ _______ _______ _____ _____    ______ ____
ROOT
ATOM      4  N   UNL     1      -1.408   0.952  24.416  0.00  0.00    -0.297 NA
ATOM      6  C   UNL     1       0.490   0.514  23.111  0.00  0.00    +0.090 C 
ATOM      7  C   UNL     1      -0.343  -0.771  23.255  0.00  0.00    +0.029 C 
ATOM      8  C   UNL     1      -0.048   1.450  24.201  0.00  0.00    +0.097 C 
ATOM      9  C   UNL     1      -1.278  -0.505  24.428  0.00  0.00    +0.085 C 
ENDROOT
BRANCH   6  11
ATOM      1  F   UNL     1       7.705   0.170  23.323  0.00  0.00    -0.205 F 
ATOM      2  O   UNL     1       2.403  -0.933  23.545  0.00  0.00    -0.439 OA
ATOM      5  N   UNL     1       2.941   1.190  22.962  0.00  0.00    -0.213 NA
ATOM     11  C   UNL     1       1.986   0.314  23.191  0.00  0.00    +0.201 A 
ATOM     13  C   UNL     1       4.090   0.469  23.182  0.00  0.00    +0.112 A 
ATOM     14  C   UNL     1       3.765  -0.831  23.539  0.00  0.00    +0.156 A 
ATOM     17  C   UNL     1       5.442   0.832  23.102  0.00  0.00    +0.070 A 
ATOM     18  C   UNL     1       4.688  -1.826  23.832  0.00  0.00    +0.051 A 
ATOM     22  C   UNL     1       6.404  -0.146  23.391  0.00  0.00    +0.126 A 
ATOM     23  C   UNL     1       6.032  -1.448  23.748  0.00  0.00    +0.042 A 
ENDBRANCH   6  11
BRANCH   4  10
ATOM     10  C   UNL     1      -2.000   1.465  25.643  0.00  0.00    +0.123 C 
BRANCH  10  12
ATOM     12  C   UNL     1      -3.398   1.977  25.420  0.00  0.00    +0.008 A 
ATOM     15  C   UNL     1      -4.469   1.092  25.299  0.00  0.00    +0.124 A 
ATOM     16  C   UNL     1      -3.615   3.351  25.335  0.00  0.00    +0.008 A 
ATOM     19  C   UNL     1      -5.759   1.584  25.092  0.00  0.00    +0.046 A 
ATOM     20  C   UNL     1      -4.904   3.843  25.128  0.00  0.00    +0.001 A 
ATOM     21  C   UNL     1      -5.975   2.960  25.007  0.00  0.00    +0.004 A 
BRANCH  15   3
ATOM      3  O   UNL     1      -4.276  -0.254  25.379  0.00  0.00    -0.495 OA
ATOM     24  C   UNL     1      -4.479  -1.010  24.187  0.00  0.00    +0.277 C 
ENDBRANCH  15   3
ENDBRANCH  10  12
ENDBRANCH   4  10
TORSDOF 4
ENDMDL
MODEL 5
REMARK VINA RESULT:      -1.5      3.274      5.192
REMARK  Name = 51137148
REMARK  5 active torsions:
REMARK  status: ('A' for Active; 'I' for Inactive)
REMARK    1  A    between atoms: O_3  and  C_15
REMARK    2  A    between atoms: O_3  and  C_24
REMARK    3  A    between atoms: N_4  and  C_10
REMARK    4  A    between atoms: C_6  and  C_11
REMARK    5  A    between atoms: C_10  and  C_12
REMARK                            x       y       z     vdW  Elec       q    Type
REMARK                         _______ _______ _______ _____ _____    ______ ____
ROOT
ATOM      4  N   UNL     1      -0.426   3.558  25.346  0.00  0.00    -0.297 NA
ATOM      6  C   UNL     1      -0.221   1.223  25.287  0.00  0.00    +0.090 C 
ATOM      7  C   UNL     1       0.647   1.844  24.179  0.00  0.00    +0.029 C 
ATOM      8  C   UNL     1      -1.168   2.352  25.717  0.00  0.00    +0.097 C 
ATOM      9  C   UNL     1       0.128   3.268  24.023  0.00  0.00    +0.085 C 
ENDROOT
BRANCH   6  11
ATOM      1  F   UNL     1      -3.138  -5.077  23.281  0.00  0.00    -0.205 F 
ATOM      2  O   UNL     1      -2.310   0.012  24.954  0.00  0.00    -0.439 OA
ATOM      5  N   UNL     1      -0.443  -1.185  24.489  0.00  0.00    -0.213 NA
ATOM     11  C   UNL     1      -0.951  -0.040  24.890  0.00  0.00    +0.201 A 
ATOM     13  C   UNL     1      -1.554  -1.963  24.268  0.00  0.00    +0.112 A 
ATOM     14  C   UNL     1      -2.699  -1.234  24.551  0.00  0.00    +0.156 A 
ATOM     17  C   UNL     1      -1.686  -3.288  23.829  0.00  0.00    +0.070 A 
ATOM     18  C   UNL     1      -3.996  -1.718  24.435  0.00  0.00    +0.051 A 
ATOM     22  C   UNL     1      -2.980  -3.813  23.699  0.00  0.00    +0.126 A 
ATOM     23  C   UNL     1      -4.110  -3.041  23.996  0.00  0.00    +0.042 A 
ENDBRANCH   6  11
BRANCH   4  10
ATOM     10  C   UNL     1      -1.265   4.748  25.346  0.00  0.00    +0.123 C 
BRANCH  10  12
ATOM     12  C   UNL     1      -2.729   4.402  25.394  0.00  0.00    +0.008 A 
ATOM     15  C   UNL     1      -3.363   3.831  24.291  0.00  0.00    +0.124 A 
ATOM     16  C   UNL     1      -3.451   4.658  26.559  0.00  0.00    +0.008 A 
ATOM     19  C   UNL     1      -4.721   3.517  24.353  0.00  0.00    +0.046 A 
ATOM     20  C   UNL     1      -4.810   4.345  26.620  0.00  0.00    +0.001 A 
ATOM     21  C   UNL     1      -5.444   3.774  25.518  0.00  0.00    +0.004 A 
BRANCH  15   3
ATOM      3  O   UNL     1      -2.673   3.574  23.145  0.00  0.00    -0.495 OA
ATOM     24  C   UNL     1      -2.913   2.318  22.512  0.00  0.00    +0.277 C 
ENDBRANCH  15   3
ENDBRANCH  10  12
ENDBRANCH   4  10
TORSDOF 4
ENDMDL
MODEL 6
REMARK VINA RESULT:      -1.5      1.803      2.492
REMARK  Name = 51137148
REMARK  5 active torsions:
REMARK  status: ('A' for Active; 'I' for Inactive)
REMARK    1  A    between atoms: O_3  and  C_15
REMARK    2  A    between atoms: O_3  and  C_24
REMARK    3  A    between atoms: N_4  and  C_10
REMARK    4  A    between atoms: C_6  and  C_11
REMARK    5  A    between atoms: C_10  and  C_12
REMARK                            x       y       z     vdW  Elec       q    Type
REMARK                         _______ _______ _______ _____ _____    ______ ____
ROOT
ATOM      4  N   UNL     1      -4.059  -0.941  24.843  0.00  0.00    -0.297 NA
ATOM      6  C   UNL     1      -1.782  -1.476  24.675  0.00  0.00    +0.090 C 
ATOM      7  C   UNL     1      -2.124  -1.134  26.135  0.00  0.00    +0.029 C 
ATOM      8  C   UNL     1      -2.971  -0.944  23.863  0.00  0.00    +0.097 C 
ATOM      9  C   UNL     1      -3.461  -0.408  26.067  0.00  0.00    +0.085 C 
ENDROOT
BRANCH   6  11
ATOM      1  F   UNL     1       4.751   0.466  22.274  0.00  0.00    -0.205 F 
ATOM      2  O   UNL     1      -0.315   0.412  24.200  0.00  0.00    -0.439 OA
ATOM      5  N   UNL     1       0.592  -1.618  23.765  0.00  0.00    -0.213 NA
ATOM     11  C   UNL     1      -0.453  -0.943  24.192  0.00  0.00    +0.201 A 
ATOM     13  C   UNL     1       1.502  -0.635  23.462  0.00  0.00    +0.112 A 
ATOM     14  C   UNL     1       0.950   0.609  23.727  0.00  0.00    +0.156 A 
ATOM     17  C   UNL     1       2.810  -0.704  22.961  0.00  0.00    +0.070 A 
ATOM     18  C   UNL     1       1.600   1.822  23.532  0.00  0.00    +0.051 A 
ATOM     22  C   UNL     1       3.499   0.499  22.751  0.00  0.00    +0.126 A 
ATOM     23  C   UNL     1       2.904   1.736  23.032  0.00  0.00    +0.042 A 
ENDBRANCH   6  11
BRANCH   4  10
ATOM     10  C   UNL     1      -5.203  -0.158  24.399  0.00  0.00    +0.123 C 
BRANCH  10  12
ATOM     12  C   UNL     1      -5.049   1.301  24.734  0.00  0.00    +0.008 A 
ATOM     15  C   UNL     1      -4.235   2.127  23.959  0.00  0.00    +0.124 A 
ATOM     16  C   UNL     1      -5.729   1.824  25.833  0.00  0.00    +0.008 A 
ATOM     19  C   UNL     1      -4.103   3.478  24.284  0.00  0.00    +0.046 A 
ATOM     20  C   UNL     1      -5.596   3.175  26.158  0.00  0.00    +0.001 A 
ATOM     21  C   UNL     1      -4.784   4.001  25.383  0.00  0.00    +0.004 A 
BRANCH  15   3
ATOM      3  O   UNL     1      -3.563   1.634  22.882  0.00  0.00    -0.495 OA
ATOM     24  C   UNL     1      -2.297   2.219  22.584  0.00  0.00    +0.277 C 
ENDBRANCH  15   3
ENDBRANCH  10  12
ENDBRANCH   4  10
TORSDOF 4
ENDMDL
MODEL 7
REMARK VINA RESULT:      -1.3      3.316      7.549
REMARK  Name = 51137148
REMARK  5 active torsions:
REMARK  status: ('A' for Active; 'I' for Inactive)
REMARK    1  A    between atoms: O_3  and  C_15
REMARK    2  A    between atoms: O_3  and  C_24
REMARK    3  A    between atoms: N_4  and  C_10
REMARK    4  A    between atoms: C_6  and  C_11
REMARK    5  A    between atoms: C_10  and  C_12
REMARK                            x       y       z     vdW  Elec       q    Type
REMARK                         _______ _______ _______ _____ _____    ______ ____
ROOT
ATOM      4  N   UNL     1       0.701  -0.708  23.801  0.00  0.00    -0.297 NA
ATOM      6  C   UNL     1      -1.067  -0.023  25.181  0.00  0.00    +0.090 C 
ATOM      7  C   UNL     1      -1.376  -1.413  24.600  0.00  0.00    +0.029 C 
ATOM      8  C   UNL     1       0.078   0.514  24.312  0.00  0.00    +0.097 C 
ATOM      9  C   UNL     1      -0.419  -1.572  23.426  0.00  0.00    +0.085 C 
ENDROOT
BRANCH   6  11
ATOM      1  F   UNL     1      -6.301   4.944  25.567  0.00  0.00    -0.205 F 
ATOM      2  O   UNL     1      -3.477   0.338  25.127  0.00  0.00    -0.439 OA
ATOM      5  N   UNL     1      -2.248   2.222  25.403  0.00  0.00    -0.213 NA
ATOM     11  C   UNL     1      -2.249   0.916  25.246  0.00  0.00    +0.201 A 
ATOM     13  C   UNL     1      -3.583   2.544  25.388  0.00  0.00    +0.112 A 
ATOM     14  C   UNL     1      -4.339   1.394  25.219  0.00  0.00    +0.156 A 
ATOM     17  C   UNL     1      -4.242   3.775  25.510  0.00  0.00    +0.070 A 
ATOM     18  C   UNL     1      -5.726   1.359  25.158  0.00  0.00    +0.051 A 
ATOM     22  C   UNL     1      -5.643   3.781  25.453  0.00  0.00    +0.126 A 
ATOM     23  C   UNL     1      -6.368   2.595  25.281  0.00  0.00    +0.042 A 
ENDBRANCH   6  11
BRANCH   4  10
ATOM     10  C   UNL     1       1.598  -0.449  22.684  0.00  0.00    +0.123 C 
BRANCH  10  12
ATOM     12  C   UNL     1       3.039  -0.422  23.117  0.00  0.00    +0.008 A 
ATOM     15  C   UNL     1       3.777   0.760  23.065  0.00  0.00    +0.124 A 
ATOM     16  C   UNL     1       3.635  -1.597  23.573  0.00  0.00    +0.008 A 
ATOM     19  C   UNL     1       5.112   0.767  23.471  0.00  0.00    +0.046 A 
ATOM     20  C   UNL     1       4.971  -1.591  23.977  0.00  0.00    +0.001 A 
ATOM     21  C   UNL     1       5.708  -0.409  23.927  0.00  0.00    +0.004 A 
BRANCH  15   3
ATOM      3  O   UNL     1       3.211   1.917  22.623  0.00  0.00    -0.495 OA
ATOM     24  C   UNL     1       2.064   2.389  23.328  0.00  0.00    +0.277 C 
ENDBRANCH  15   3
ENDBRANCH  10  12
ENDBRANCH   4  10
TORSDOF 4
ENDMDL
MODEL 8
REMARK VINA RESULT:      -0.6      1.987      2.498
REMARK  Name = 51137148
REMARK  5 active torsions:
REMARK  status: ('A' for Active; 'I' for Inactive)
REMARK    1  A    between atoms: O_3  and  C_15
REMARK    2  A    between atoms: O_3  and  C_24
REMARK    3  A    between atoms: N_4  and  C_10
REMARK    4  A    between atoms: C_6  and  C_11
REMARK    5  A    between atoms: C_10  and  C_12
REMARK                            x       y       z     vdW  Elec       q    Type
REMARK                         _______ _______ _______ _____ _____    ______ ____
ROOT
ATOM      4  N   UNL     1      -4.249  -0.778  24.669  0.00  0.00    -0.297 NA
ATOM      6  C   UNL     1      -1.999  -1.308  24.277  0.00  0.00    +0.090 C 
ATOM      7  C   UNL     1      -2.270  -1.301  25.791  0.00  0.00    +0.029 C 
ATOM      8  C   UNL     1      -3.203  -0.581  23.664  0.00  0.00    +0.097 C 
ATOM      9  C   UNL     1      -3.586  -0.551  25.952  0.00  0.00    +0.085 C 
ENDROOT
BRANCH   6  11
ATOM      1  F   UNL     1       4.286   1.945  22.820  0.00  0.00    -0.205 F 
ATOM      2  O   UNL     1      -0.113  -1.219  22.735  0.00  0.00    -0.439 OA
ATOM      5  N   UNL     1       0.008   0.249  24.457  0.00  0.00    -0.213 NA
ATOM     11  C   UNL     1      -0.675  -0.707  23.865  0.00  0.00    +0.201 A 
ATOM     13  C   UNL     1       1.116   0.387  23.658  0.00  0.00    +0.112 A 
ATOM     14  C   UNL     1       1.046  -0.509  22.602  0.00  0.00    +0.156 A 
ATOM     17  C   UNL     1       2.225   1.241  23.748  0.00  0.00    +0.070 A 
ATOM     18  C   UNL     1       2.005  -0.637  21.605  0.00  0.00    +0.051 A 
ATOM     22  C   UNL     1       3.215   1.143  22.760  0.00  0.00    +0.126 A 
ATOM     23  C   UNL     1       3.104   0.222  21.710  0.00  0.00    +0.042 A 
ENDBRANCH   6  11
BRANCH   4  10
ATOM     10  C   UNL     1      -5.387   0.108  24.468  0.00  0.00    +0.123 C 
BRANCH  10  12
ATOM     12  C   UNL     1      -5.012   1.553  24.661  0.00  0.00    +0.008 A 
ATOM     15  C   UNL     1      -5.775   2.383  25.483  0.00  0.00    +0.124 A 
ATOM     16  C   UNL     1      -3.890   2.059  24.008  0.00  0.00    +0.008 A 
ATOM     19  C   UNL     1      -5.413   3.721  25.651  0.00  0.00    +0.046 A 
ATOM     20  C   UNL     1      -3.529   3.397  24.175  0.00  0.00    +0.001 A 
ATOM     21  C   UNL     1      -4.290   4.227  24.996  0.00  0.00    +0.004 A 
BRANCH  15   3
ATOM      3  O   UNL     1      -6.874   1.905  26.129  0.00  0.00    -0.495 OA
ATOM     24  C   UNL     1      -6.681   1.393  27.446  0.00  0.00    +0.277 C 
ENDBRANCH  15   3
ENDBRANCH  10  12
ENDBRANCH   4  10
TORSDOF 4
ENDMDL
MODEL 9
REMARK VINA RESULT:      -0.5      2.187      4.254
REMARK  Name = 51137148
REMARK  5 active torsions:
REMARK  status: ('A' for Active; 'I' for Inactive)
REMARK    1  A    between atoms: O_3  and  C_15
REMARK    2  A    between atoms: O_3  and  C_24
REMARK    3  A    between atoms: N_4  and  C_10
REMARK    4  A    between atoms: C_6  and  C_11
REMARK    5  A    between atoms: C_10  and  C_12
REMARK                            x       y       z     vdW  Elec       q    Type
REMARK                         _______ _______ _______ _____ _____    ______ ____
ROOT
ATOM      4  N   UNL     1      -3.175   4.726  25.912  0.00  0.00    -0.297 NA
ATOM      6  C   UNL     1      -1.039   3.777  25.729  0.00  0.00    +0.090 C 
ATOM      7  C   UNL     1      -1.032   5.183  25.106  0.00  0.00    +0.029 C 
ATOM      8  C   UNL     1      -2.524   3.415  25.856  0.00  0.00    +0.097 C 
ATOM      9  C   UNL     1      -2.500   5.525  24.889  0.00  0.00    +0.085 C 
ENDROOT
BRANCH   6  11
ATOM      1  F   UNL     1       3.223  -0.732  22.024  0.00  0.00    -0.205 F 
ATOM      2  O   UNL     1      -0.829   1.520  24.833  0.00  0.00    -0.439 OA
ATOM      5  N   UNL     1       0.947   2.866  24.421  0.00  0.00    -0.213 NA
ATOM     11  C   UNL     1      -0.242   2.741  24.969  0.00  0.00    +0.201 A 
ATOM     13  C   UNL     1       1.173   1.626  23.873  0.00  0.00    +0.112 A 
ATOM     14  C   UNL     1       0.089   0.799  24.123  0.00  0.00    +0.156 A 
ATOM     17  C   UNL     1       2.262   1.115  23.151  0.00  0.00    +0.070 A 
ATOM     18  C   UNL     1      -0.012  -0.523  23.710  0.00  0.00    +0.051 A 
ATOM     22  C   UNL     1       2.198  -0.216  22.717  0.00  0.00    +0.126 A 
ATOM     23  C   UNL     1       1.082  -1.017  22.991  0.00  0.00    +0.042 A 
ENDBRANCH   6  11
BRANCH   4  10
ATOM     10  C   UNL     1      -4.612   4.643  25.691  0.00  0.00    +0.123 C 
BRANCH  10  12
ATOM     12  C   UNL     1      -5.063   3.224  25.465  0.00  0.00    +0.008 A 
ATOM     15  C   UNL     1      -4.705   2.539  24.305  0.00  0.00    +0.124 A 
ATOM     16  C   UNL     1      -5.849   2.598  26.432  0.00  0.00    +0.008 A 
ATOM     19  C   UNL     1      -5.132   1.224  24.112  0.00  0.00    +0.046 A 
ATOM     20  C   UNL     1      -6.277   1.284  26.238  0.00  0.00    +0.001 A 
ATOM     21  C   UNL     1      -5.918   0.598  25.079  0.00  0.00    +0.004 A 
BRANCH  15   3
ATOM      3  O   UNL     1      -3.938   3.136  23.350  0.00  0.00    -0.495 OA
ATOM     24  C   UNL     1      -3.057   2.295  22.607  0.00  0.00    +0.277 C 
ENDBRANCH  15   3
ENDBRANCH  10  12
ENDBRANCH   4  10
TORSDOF 4
ENDMDL
MODEL 10
REMARK VINA RESULT:       0.9      2.180      3.934
REMARK  Name = 51137148
REMARK  5 active torsions:
REMARK  status: ('A' for Active; 'I' for Inactive)
REMARK    1  A    between atoms: O_3  and  C_15
REMARK    2  A    between atoms: O_3  and  C_24
REMARK    3  A    between atoms: N_4  and  C_10
REMARK    4  A    between atoms: C_6  and  C_11
REMARK    5  A    between atoms: C_10  and  C_12
REMARK                            x       y       z     vdW  Elec       q    Type
REMARK                         _______ _______ _______ _____ _____    ______ ____
ROOT
ATOM      4  N   UNL     1      -2.986   4.162  25.775  0.00  0.00    -0.297 NA
ATOM      6  C   UNL     1      -0.744   3.520  25.530  0.00  0.00    +0.090 C 
ATOM      7  C   UNL     1      -0.934   4.943  24.979  0.00  0.00    +0.029 C 
ATOM      8  C   UNL     1      -2.165   2.955  25.648  0.00  0.00    +0.097 C 
ATOM      9  C   UNL     1      -2.438   5.094  24.789  0.00  0.00    +0.085 C 
ENDROOT
BRANCH   6  11
ATOM      1  F   UNL     1       4.094  -0.239  21.699  0.00  0.00    -0.205 F 
ATOM      2  O   UNL     1      -0.358   1.464  24.279  0.00  0.00    -0.439 OA
ATOM      5  N   UNL     1       1.423   2.862  24.366  0.00  0.00    -0.213 NA
ATOM     11  C   UNL     1       0.175   2.640  24.713  0.00  0.00    +0.201 A 
ATOM     13  C   UNL     1       1.754   1.743  23.641  0.00  0.00    +0.112 A 
ATOM     14  C   UNL     1       0.666   0.885  23.585  0.00  0.00    +0.156 A 
ATOM     17  C   UNL     1       2.942   1.372  22.996  0.00  0.00    +0.070 A 
ATOM     18  C   UNL     1       0.655  -0.340  22.930  0.00  0.00    +0.051 A 
ATOM     22  C   UNL     1       2.971   0.142  22.324  0.00  0.00    +0.126 A 
ATOM     23  C   UNL     1       1.849  -0.695  22.292  0.00  0.00    +0.042 A 
ENDBRANCH   6  11
BRANCH   4  10
ATOM     10  C   UNL     1      -4.401   3.896  25.560  0.00  0.00    +0.123 C 
BRANCH  10  12
ATOM     12  C   UNL     1      -4.643   2.484  25.099  0.00  0.00    +0.008 A 
ATOM     15  C   UNL     1      -5.638   1.704  25.686  0.00  0.00    +0.124 A 
ATOM     16  C   UNL     1      -3.859   1.958  24.073  0.00  0.00    +0.008 A 
ATOM     19  C   UNL     1      -5.850   0.396  25.247  0.00  0.00    +0.046 A 
ATOM     20  C   UNL     1      -4.070   0.650  23.634  0.00  0.00    +0.001 A 
ATOM     21  C   UNL     1      -5.065  -0.130  24.220  0.00  0.00    +0.004 A 
BRANCH  15   3
ATOM      3  O   UNL     1      -6.414   2.201  26.690  0.00  0.00    -0.495 OA
ATOM     24  C   UNL     1      -6.955   1.262  27.617  0.00  0.00    +0.277 C 
ENDBRANCH  15   3
ENDBRANCH  10  12
ENDBRANCH   4  10
TORSDOF 4
ENDMDL
