MODEL 1
REMARK VINA RESULT:      -2.0      0.000      0.000
REMARK  Name = 11884015
REMARK  9 active torsions:
REMARK  status: ('A' for Active; 'I' for Inactive)
REMARK    1  A    between atoms: O_3  and  C_13
REMARK    2  A    between atoms: O_3  and  C_17
REMARK    3  A    between atoms: O_6  and  C_30
REMARK    4  A    between atoms: O_6  and  C_31
REMARK    5  A    between atoms: N_8  and  C_12
REMARK    6  A    between atoms: N_9  and  C_21
REMARK    7  A    between atoms: C_16  and  C_18
REMARK    8  A    between atoms: C_27  and  C_30
REMARK    9  A    between atoms: C_31  and  C_32
REMARK                            x       y       z     vdW  Elec       q    Type
REMARK                         _______ _______ _______ _____ _____    ______ ____
ROOT
ATOM      1  O   UNL     1      -4.218  -8.735  11.668  0.00  0.00    -0.368 OA
ATOM      2  O   UNL     1      -2.387 -10.436   9.891  0.00  0.00    -0.368 OA
ATOM     10  C   UNL     1      -3.824 -10.379  10.005  0.00  0.00    +0.173 C 
ATOM     11  C   UNL     1      -4.141 -10.157  11.470  0.00  0.00    +0.192 C 
ATOM     12  C   UNL     1      -4.349  -9.134   9.329  0.00  0.00    +0.130 C 
ATOM     13  C   UNL     1      -2.935 -10.753  12.158  0.00  0.00    +0.235 C 
ATOM     14  C   UNL     1      -4.139  -8.074  10.397  0.00  0.00    +0.185 C 
ATOM     15  C   UNL     1      -1.816 -10.394  11.207  0.00  0.00    +0.207 C 
ENDROOT
BRANCH  12   8
ATOM      4  O   UNL     1      -6.403  -7.162   9.702  0.00  0.00    -0.270 OA
ATOM      8  N   UNL     1      -5.745  -9.269   8.992  0.00  0.00    -0.304 N 
ATOM     16  C   UNL     1      -6.668  -8.256   9.211  0.00  0.00    +0.244 C 
ATOM     33  H   UNL     1      -6.058 -10.184   8.682  0.00  0.00    +0.149 HD
BRANCH  16  18
ATOM     18  C   UNL     1      -8.072  -8.562   8.834  0.00  0.00    +0.037 A 
ATOM     19  C   UNL     1      -8.472  -9.885   8.648  0.00  0.00    +0.013 A 
ATOM     20  C   UNL     1      -8.991  -7.526   8.667  0.00  0.00    +0.013 A 
ATOM     22  C   UNL     1      -9.790 -10.172   8.295  0.00  0.00    +0.001 A 
ATOM     23  C   UNL     1     -10.310  -7.813   8.313  0.00  0.00    +0.001 A 
ATOM     24  C   UNL     1     -10.709  -9.137   8.126  0.00  0.00    +0.000 A 
ENDBRANCH  16  18
ENDBRANCH  12   8
BRANCH  13   3
ATOM      3  O   UNL     1      -2.716 -10.240  13.453  0.00  0.00    -0.442 OA
BRANCH   3  17
ATOM      5  O   UNL     1      -3.509 -10.777  15.529  0.00  0.00    -0.226 OA
ATOM      9  N   UNL     1      -4.944 -10.158  13.787  0.00  0.00    -0.251 N 
ATOM     17  C   UNL     1      -3.724 -10.426  14.376  0.00  0.00    +0.405 C 
ATOM     34  H   UNL     1      -4.920  -9.878  12.809  0.00  0.00    +0.158 HD
BRANCH   9  21
ATOM     21  C   UNL     1      -6.229 -10.226  14.375  0.00  0.00    +0.037 A 
ATOM     25  C   UNL     1      -6.417  -9.805  15.691  0.00  0.00    +0.038 A 
ATOM     26  C   UNL     1      -7.307 -10.713  13.636  0.00  0.00    +0.023 A 
ATOM     27  C   UNL     1      -7.684  -9.871  16.269  0.00  0.00    +0.061 A 
ATOM     28  C   UNL     1      -8.575 -10.778  14.215  0.00  0.00    +0.003 A 
ATOM     29  C   UNL     1      -8.763 -10.358  15.531  0.00  0.00    +0.015 A 
BRANCH  27  30
ATOM      7  O   UNL     1      -8.958  -9.030  18.100  0.00  0.00    -0.245 OA
ATOM     30  C   UNL     1      -7.882  -9.434  17.642  0.00  0.00    +0.339 C 
BRANCH  30   6
ATOM      6  O   UNL     1      -6.728  -9.524  18.371  0.00  0.00    -0.461 OA
BRANCH   6  31
ATOM     31  C   UNL     1      -6.661 -10.564  19.353  0.00  0.00    +0.229 C 
ATOM     32  C   UNL     1      -5.215 -10.781  19.744  0.00  0.00    +0.048 C 
ENDBRANCH   6  31
ENDBRANCH  30   6
ENDBRANCH  27  30
ENDBRANCH   9  21
ENDBRANCH   3  17
ENDBRANCH  13   3
TORSDOF 8
ENDMDL
MODEL 2
REMARK VINA RESULT:      -1.0     14.997     17.999
REMARK  Name = 11884015
REMARK  9 active torsions:
REMARK  status: ('A' for Active; 'I' for Inactive)
REMARK    1  A    between atoms: O_3  and  C_13
REMARK    2  A    between atoms: O_3  and  C_17
REMARK    3  A    between atoms: O_6  and  C_30
REMARK    4  A    between atoms: O_6  and  C_31
REMARK    5  A    between atoms: N_8  and  C_12
REMARK    6  A    between atoms: N_9  and  C_21
REMARK    7  A    between atoms: C_16  and  C_18
REMARK    8  A    between atoms: C_27  and  C_30
REMARK    9  A    between atoms: C_31  and  C_32
REMARK                            x       y       z     vdW  Elec       q    Type
REMARK                         _______ _______ _______ _____ _____    ______ ____
ROOT
ATOM      1  O   UNL     1      -0.677   2.393  25.646  0.00  0.00    -0.368 OA
ATOM      2  O   UNL     1      -1.159   3.569  22.855  0.00  0.00    -0.368 OA
ATOM     10  C   UNL     1       0.053   3.169  23.527  0.00  0.00    +0.173 C 
ATOM     11  C   UNL     1      -0.111   3.539  24.988  0.00  0.00    +0.192 C 
ATOM     12  C   UNL     1       0.162   1.662  23.545  0.00  0.00    +0.130 C 
ATOM     13  C   UNL     1      -1.089   4.688  24.925  0.00  0.00    +0.235 C 
ATOM     14  C   UNL     1      -0.715   1.289  24.728  0.00  0.00    +0.185 C 
ATOM     15  C   UNL     1      -1.992   4.276  23.785  0.00  0.00    +0.207 C 
ENDROOT
BRANCH  12   8
ATOM      4  O   UNL     1       1.640  -0.201  21.935  0.00  0.00    -0.270 OA
ATOM      8  N   UNL     1       1.526   1.238  23.750  0.00  0.00    -0.304 N 
ATOM     16  C   UNL     1       2.159   0.328  22.914  0.00  0.00    +0.244 C 
ATOM     33  H   UNL     1       1.983   1.551  24.601  0.00  0.00    +0.149 HD
BRANCH  16  18
ATOM     18  C   UNL     1       3.556  -0.025  23.276  0.00  0.00    +0.037 A 
ATOM     19  C   UNL     1       3.859  -1.316  23.708  0.00  0.00    +0.013 A 
ATOM     20  C   UNL     1       4.564   0.934  23.183  0.00  0.00    +0.013 A 
ATOM     22  C   UNL     1       5.170  -1.648  24.047  0.00  0.00    +0.001 A 
ATOM     23  C   UNL     1       5.876   0.602  23.523  0.00  0.00    +0.001 A 
ATOM     24  C   UNL     1       6.179  -0.689  23.955  0.00  0.00    +0.000 A 
ENDBRANCH  16  18
ENDBRANCH  12   8
BRANCH  13   3
ATOM      3  O   UNL     1      -1.803   4.885  26.125  0.00  0.00    -0.442 OA
BRANCH   3  17
ATOM      5  O   UNL     1      -3.388   3.942  27.476  0.00  0.00    -0.226 OA
ATOM      9  N   UNL     1      -3.117   3.275  25.249  0.00  0.00    -0.251 N 
ATOM     17  C   UNL     1      -2.838   4.011  26.384  0.00  0.00    +0.405 C 
ATOM     34  H   UNL     1      -2.546   3.476  24.431  0.00  0.00    +0.158 HD
BRANCH   9  21
ATOM     21  C   UNL     1      -4.099   2.272  25.081  0.00  0.00    +0.037 A 
ATOM     25  C   UNL     1      -3.716   0.956  24.826  0.00  0.00    +0.038 A 
ATOM     26  C   UNL     1      -5.452   2.601  25.171  0.00  0.00    +0.023 A 
ATOM     27  C   UNL     1      -4.686  -0.033  24.661  0.00  0.00    +0.061 A 
ATOM     28  C   UNL     1      -6.422   1.611  25.006  0.00  0.00    +0.003 A 
ATOM     29  C   UNL     1      -6.039   0.295  24.751  0.00  0.00    +0.015 A 
BRANCH  27  30
ATOM      7  O   UNL     1      -4.801  -2.128  23.530  0.00  0.00    -0.245 OA
ATOM     30  C   UNL     1      -4.288  -1.405  24.395  0.00  0.00    +0.339 C 
BRANCH  30   6
ATOM      6  O   UNL     1      -3.270  -1.805  25.218  0.00  0.00    -0.461 OA
BRANCH   6  31
ATOM     31  C   UNL     1      -2.176  -2.497  24.607  0.00  0.00    +0.229 C 
ATOM     32  C   UNL     1      -0.879  -1.850  25.041  0.00  0.00    +0.048 C 
ENDBRANCH   6  31
ENDBRANCH  30   6
ENDBRANCH  27  30
ENDBRANCH   9  21
ENDBRANCH   3  17
ENDBRANCH  13   3
TORSDOF 8
ENDMDL
MODEL 3
REMARK VINA RESULT:      -0.1     14.790     18.940
REMARK  Name = 11884015
REMARK  9 active torsions:
REMARK  status: ('A' for Active; 'I' for Inactive)
REMARK    1  A    between atoms: O_3  and  C_13
REMARK    2  A    between atoms: O_3  and  C_17
REMARK    3  A    between atoms: O_6  and  C_30
REMARK    4  A    between atoms: O_6  and  C_31
REMARK    5  A    between atoms: N_8  and  C_12
REMARK    6  A    between atoms: N_9  and  C_21
REMARK    7  A    between atoms: C_16  and  C_18
REMARK    8  A    between atoms: C_27  and  C_30
REMARK    9  A    between atoms: C_31  and  C_32
REMARK                            x       y       z     vdW  Elec       q    Type
REMARK                         _______ _______ _______ _____ _____    ______ ____
ROOT
ATOM      1  O   UNL     1      -2.822   2.300  24.786  0.00  0.00    -0.368 OA
ATOM      2  O   UNL     1      -3.291   5.277  24.218  0.00  0.00    -0.368 OA
ATOM     10  C   UNL     1      -2.718   4.600  25.356  0.00  0.00    +0.173 C 
ATOM     11  C   UNL     1      -3.501   3.316  25.544  0.00  0.00    +0.192 C 
ATOM     12  C   UNL     1      -1.321   4.127  25.029  0.00  0.00    +0.130 C 
ATOM     13  C   UNL     1      -4.842   3.661  24.940  0.00  0.00    +0.235 C 
ATOM     14  C   UNL     1      -1.585   2.830  24.285  0.00  0.00    +0.185 C 
ATOM     15  C   UNL     1      -4.452   4.553  23.784  0.00  0.00    +0.207 C 
ENDROOT
BRANCH  12   8
ATOM      4  O   UNL     1       0.538   1.988  25.491  0.00  0.00    -0.270 OA
ATOM      8  N   UNL     1      -0.552   3.897  26.228  0.00  0.00    -0.304 N 
ATOM     16  C   UNL     1       0.326   2.830  26.359  0.00  0.00    +0.244 C 
ATOM     33  H   UNL     1      -0.754   4.490  27.026  0.00  0.00    +0.149 HD
BRANCH  16  18
ATOM     18  C   UNL     1       1.023   2.717  27.666  0.00  0.00    +0.037 A 
ATOM     19  C   UNL     1       0.310   2.353  28.807  0.00  0.00    +0.013 A 
ATOM     20  C   UNL     1       2.391   2.974  27.751  0.00  0.00    +0.013 A 
ATOM     22  C   UNL     1       0.965   2.247  30.034  0.00  0.00    +0.001 A 
ATOM     23  C   UNL     1       3.046   2.868  28.978  0.00  0.00    +0.001 A 
ATOM     24  C   UNL     1       2.332   2.505  30.120  0.00  0.00    +0.000 A 
ENDBRANCH  16  18
ENDBRANCH  12   8
BRANCH  13   3
ATOM      3  O   UNL     1      -5.575   2.533  24.517  0.00  0.00    -0.442 OA
BRANCH   3  17
ATOM      5  O   UNL     1      -5.567   0.869  26.084  0.00  0.00    -0.226 OA
ATOM      9  N   UNL     1      -4.305   0.713  24.119  0.00  0.00    -0.251 N 
ATOM     17  C   UNL     1      -5.176   1.308  25.011  0.00  0.00    +0.405 C 
ATOM     34  H   UNL     1      -4.098   1.238  23.273  0.00  0.00    +0.158 HD
BRANCH   9  21
ATOM     21  C   UNL     1      -3.662  -0.541  24.235  0.00  0.00    +0.037 A 
ATOM     25  C   UNL     1      -2.312  -0.604  24.576  0.00  0.00    +0.038 A 
ATOM     26  C   UNL     1      -4.381  -1.715  24.009  0.00  0.00    +0.023 A 
ATOM     27  C   UNL     1      -1.679  -1.842  24.692  0.00  0.00    +0.061 A 
ATOM     28  C   UNL     1      -3.748  -2.953  24.126  0.00  0.00    +0.003 A 
ATOM     29  C   UNL     1      -2.397  -3.016  24.466  0.00  0.00    +0.015 A 
BRANCH  27  30
ATOM      7  O   UNL     1       0.244  -2.823  25.704  0.00  0.00    -0.245 OA
ATOM     30  C   UNL     1      -0.270  -1.909  25.046  0.00  0.00    +0.339 C 
BRANCH  30   6
ATOM      6  O   UNL     1       0.424  -0.834  24.561  0.00  0.00    -0.461 OA
BRANCH   6  31
ATOM     31  C   UNL     1       0.391  -0.627  23.145  0.00  0.00    +0.229 C 
ATOM     32  C   UNL     1       1.680   0.039  22.713  0.00  0.00    +0.048 C 
ENDBRANCH   6  31
ENDBRANCH  30   6
ENDBRANCH  27  30
ENDBRANCH   9  21
ENDBRANCH   3  17
ENDBRANCH  13   3
TORSDOF 8
ENDMDL
MODEL 4
REMARK VINA RESULT:       0.9     14.560     17.753
REMARK  Name = 11884015
REMARK  9 active torsions:
REMARK  status: ('A' for Active; 'I' for Inactive)
REMARK    1  A    between atoms: O_3  and  C_13
REMARK    2  A    between atoms: O_3  and  C_17
REMARK    3  A    between atoms: O_6  and  C_30
REMARK    4  A    between atoms: O_6  and  C_31
REMARK    5  A    between atoms: N_8  and  C_12
REMARK    6  A    between atoms: N_9  and  C_21
REMARK    7  A    between atoms: C_16  and  C_18
REMARK    8  A    between atoms: C_27  and  C_30
REMARK    9  A    between atoms: C_31  and  C_32
REMARK                            x       y       z     vdW  Elec       q    Type
REMARK                         _______ _______ _______ _____ _____    ______ ____
ROOT
ATOM      1  O   UNL     1      -2.425  -0.406  25.113  0.00  0.00    -0.368 OA
ATOM      2  O   UNL     1      -2.618  -3.456  24.861  0.00  0.00    -0.368 OA
ATOM     10  C   UNL     1      -1.654  -2.514  24.347  0.00  0.00    +0.173 C 
ATOM     11  C   UNL     1      -2.421  -1.266  23.961  0.00  0.00    +0.192 C 
ATOM     12  C   UNL     1      -0.742  -2.048  25.459  0.00  0.00    +0.130 C 
ATOM     13  C   UNL     1      -3.798  -1.809  23.662  0.00  0.00    +0.235 C 
ATOM     14  C   UNL     1      -1.572  -0.964  26.124  0.00  0.00    +0.185 C 
ATOM     15  C   UNL     1      -3.935  -2.912  24.688  0.00  0.00    +0.207 C 
ENDROOT
BRANCH  12   8
ATOM      4  O   UNL     1      -0.464   0.017  23.483  0.00  0.00    -0.270 OA
ATOM      8  N   UNL     1       0.493  -1.517  24.936  0.00  0.00    -0.304 N 
ATOM     16  C   UNL     1       0.527  -0.514  23.977  0.00  0.00    +0.244 C 
ATOM     33  H   UNL     1       1.351  -1.980  25.218  0.00  0.00    +0.149 HD
BRANCH  16  18
ATOM     18  C   UNL     1       1.878  -0.094  23.522  0.00  0.00    +0.037 A 
ATOM     19  C   UNL     1       2.926  -1.014  23.507  0.00  0.00    +0.013 A 
ATOM     20  C   UNL     1       2.098   1.220  23.110  0.00  0.00    +0.013 A 
ATOM     22  C   UNL     1       4.194  -0.620  23.080  0.00  0.00    +0.001 A 
ATOM     23  C   UNL     1       3.366   1.615  22.683  0.00  0.00    +0.001 A 
ATOM     24  C   UNL     1       4.415   0.694  22.669  0.00  0.00    +0.000 A 
ENDBRANCH  16  18
ENDBRANCH  12   8
BRANCH  13   3
ATOM      3  O   UNL     1      -4.821  -0.845  23.780  0.00  0.00    -0.442 OA
BRANCH   3  17
ATOM      5  O   UNL     1      -4.885   0.023  25.894  0.00  0.00    -0.226 OA
ATOM      9  N   UNL     1      -4.119   1.277  24.073  0.00  0.00    -0.251 N 
ATOM     17  C   UNL     1      -4.627   0.160  24.706  0.00  0.00    +0.405 C 
ATOM     34  H   UNL     1      -3.970   1.199  23.070  0.00  0.00    +0.158 HD
BRANCH   9  21
ATOM     21  C   UNL     1      -3.778   2.524  24.648  0.00  0.00    +0.037 A 
ATOM     25  C   UNL     1      -2.476   3.010  24.540  0.00  0.00    +0.038 A 
ATOM     26  C   UNL     1      -4.747   3.266  25.323  0.00  0.00    +0.023 A 
ATOM     27  C   UNL     1      -2.141   4.239  25.106  0.00  0.00    +0.061 A 
ATOM     28  C   UNL     1      -4.412   4.497  25.889  0.00  0.00    +0.003 A 
ATOM     29  C   UNL     1      -3.109   4.983  25.781  0.00  0.00    +0.015 A 
BRANCH  27  30
ATOM      7  O   UNL     1      -0.493   5.912  24.694  0.00  0.00    -0.245 OA
ATOM     30  C   UNL     1      -0.783   4.747  24.995  0.00  0.00    +0.339 C 
BRANCH  30   6
ATOM      6  O   UNL     1       0.142   3.776  25.266  0.00  0.00    -0.461 OA
BRANCH   6  31
ATOM     31  C   UNL     1      -0.315   2.628  25.989  0.00  0.00    +0.229 C 
ATOM     32  C   UNL     1       0.555   2.435  27.211  0.00  0.00    +0.048 C 
ENDBRANCH   6  31
ENDBRANCH  30   6
ENDBRANCH  27  30
ENDBRANCH   9  21
ENDBRANCH   3  17
ENDBRANCH  13   3
TORSDOF 8
ENDMDL
