MODEL 1
REMARK VINA RESULT:      -4.3      0.000      0.000
REMARK  Name = 11885206
REMARK  4 active torsions:
REMARK  status: ('A' for Active; 'I' for Inactive)
REMARK    1  A    between atoms: S_1  and  C_30
REMARK    2  A    between atoms: S_1  and  C_31
REMARK    3  A    between atoms: C_16  and  C_19
REMARK    4  A    between atoms: C_17  and  C_20
REMARK                            x       y       z     vdW  Elec       q    Type
REMARK                         _______ _______ _______ _____ _____    ______ ____
ROOT
ATOM      3  O   UNL     1      14.787  -8.039  26.180  0.00  0.00    -0.267 OA
ATOM      4  O   UNL     1      11.897  -7.120  30.286  0.00  0.00    -0.270 OA
ATOM      5  N   UNL     1      13.674  -8.460  31.005  0.00  0.00    -0.297 N 
ATOM      6  N   UNL     1      15.355  -8.703  28.343  0.00  0.00    -0.311 N 
ATOM      7  C   UNL     1      14.041 -10.493  29.623  0.00  0.00    +0.027 C 
ATOM      8  C   UNL     1      15.959  -9.379  30.692  0.00  0.00    +0.054 C 
ATOM      9  C   UNL     1      15.359 -10.742  30.348  0.00  0.00    +0.018 C 
ATOM     10  C   UNL     1      13.073  -9.703  30.524  0.00  0.00    +0.113 C 
ATOM     11  C   UNL     1      14.333  -9.761  28.306  0.00  0.00    +0.130 C 
ATOM     12  C   UNL     1      15.000  -8.614  31.627  0.00  0.00    +0.117 C 
ATOM     13  C   UNL     1      16.206  -8.560  29.440  0.00  0.00    +0.027 A 
ATOM     14  C   UNL     1      17.212  -7.670  29.402  0.00  0.00    +0.022 A 
ATOM     15  C   UNL     1      15.496  -7.921  27.181  0.00  0.00    +0.259 A 
ATOM     16  C   UNL     1      13.004  -7.250  30.804  0.00  0.00    +0.247 C 
ATOM     17  C   UNL     1      16.602  -6.899  27.187  0.00  0.00    +0.047 A 
ATOM     18  C   UNL     1      17.405  -6.826  28.258  0.00  0.00    +0.015 A 
ENDROOT
BRANCH  16  19
ATOM      2  F   UNL     1      15.559  -2.537  32.390  0.00  0.00    -0.205 F 
ATOM     19  C   UNL     1      13.674  -6.013  31.220  0.00  0.00    +0.037 A 
ATOM     21  C   UNL     1      13.290  -5.380  32.399  0.00  0.00    +0.016 A 
ATOM     22  C   UNL     1      14.692  -5.479  30.434  0.00  0.00    +0.016 A 
ATOM     25  C   UNL     1      13.926  -4.204  32.795  0.00  0.00    +0.039 A 
ATOM     26  C   UNL     1      15.329  -4.303  30.830  0.00  0.00    +0.039 A 
ATOM     29  C   UNL     1      14.947  -3.666  32.011  0.00  0.00    +0.123 A 
ENDBRANCH  16  19
BRANCH  17  20
ATOM     20  C   UNL     1      16.799  -5.982  26.052  0.00  0.00    -0.013 A 
ATOM     23  C   UNL     1      16.729  -4.603  26.249  0.00  0.00    +0.010 A 
ATOM     24  C   UNL     1      17.054  -6.491  24.779  0.00  0.00    +0.010 A 
ATOM     27  C   UNL     1      16.915  -3.734  25.175  0.00  0.00    +0.015 A 
ATOM     28  C   UNL     1      17.240  -5.623  23.703  0.00  0.00    +0.015 A 
ATOM     30  C   UNL     1      17.170  -4.243  23.900  0.00  0.00    +0.008 A 
BRANCH  30   1
ATOM      1  S   UNL     1      17.405  -3.133  22.528  0.00  0.00    -0.129 S 
ATOM     31  C   UNL     1      16.506  -1.658  23.088  0.00  0.00    +0.090 C 
ENDBRANCH  30   1
ENDBRANCH  17  20
TORSDOF 3
ENDMDL
