MODEL 1
REMARK VINA RESULT:       3.7      0.000      0.000
REMARK  Name = 25390026
REMARK  9 active torsions:
REMARK  status: ('A' for Active; 'I' for Inactive)
REMARK    1  A    between atoms: O_2  and  C_24
REMARK    2  A    between atoms: O_2  and  C_31
REMARK    3  A    between atoms: N_3  and  C_9
REMARK    4  A    between atoms: N_4  and  C_17
REMARK    5  A    between atoms: N_6  and  C_21
REMARK    6  A    between atoms: C_7  and  C_10
REMARK    7  A    between atoms: C_13  and  C_15
REMARK    8  A    between atoms: C_14  and  C_16
REMARK    9  A    between atoms: C_21  and  C_25
REMARK                            x       y       z     vdW  Elec       q    Type
REMARK                         _______ _______ _______ _____ _____    ______ ____
ROOT
ATOM      7  C   UNL     1      -2.421  -0.098  24.906  0.00  0.00    +0.047 C 
ATOM      8  C   UNL     1      -3.525  -0.118  23.828  0.00  0.00    +0.039 C 
ATOM      9  C   UNL     1      -4.824  -0.466  24.565  0.00  0.00    +0.098 C 
ATOM     11  C   UNL     1      -3.022  -0.933  26.000  0.00  0.00    -0.021 C 
ATOM     12  C   UNL     1      -4.332  -1.127  25.811  0.00  0.00    -0.009 C 
ENDROOT
BRANCH   7  10
ATOM      4  N   UNL     1       1.010  -0.746  23.797  0.00  0.00    -0.236 N 
ATOM      5  N   UNL     1       0.523  -1.974  23.552  0.00  0.00    -0.171 NA
ATOM     10  C   UNL     1      -1.083  -0.588  24.400  0.00  0.00    +0.003 A 
ATOM     13  C   UNL     1       0.089   0.122  24.307  0.00  0.00    +0.046 A 
ATOM     14  C   UNL     1      -0.757  -1.871  23.923  0.00  0.00    +0.064 A 
ATOM     15  C   UNL     1       0.400   1.524  24.653  0.00  0.00    +0.066 C 
ATOM     16  C   UNL     1      -1.642  -3.043  23.802  0.00  0.00    +0.068 C 
BRANCH   4  17
ATOM     17  C   UNL     1       2.350  -0.467  23.527  0.00  0.00    +0.066 A 
ATOM     19  C   UNL     1       2.700   0.723  22.889  0.00  0.00    +0.031 A 
ATOM     20  C   UNL     1       3.340  -1.379  23.894  0.00  0.00    +0.031 A 
ATOM     22  C   UNL     1       4.041   1.003  22.620  0.00  0.00    +0.048 A 
ATOM     23  C   UNL     1       4.680  -1.100  23.625  0.00  0.00    +0.048 A 
ATOM     24  C   UNL     1       5.030   0.091  22.987  0.00  0.00    +0.120 A 
BRANCH  24   2
ATOM      2  O   UNL     1       6.338   0.362  22.724  0.00  0.00    -0.495 OA
ATOM     31  C   UNL     1       7.302  -0.587  23.179  0.00  0.00    +0.277 C 
ENDBRANCH  24   2
ENDBRANCH   4  17
ENDBRANCH   7  10
BRANCH   9   3
ATOM      1  O   UNL     1      -3.882   2.258  24.716  0.00  0.00    -0.253 OA
ATOM      3  N   UNL     1      -5.590   0.699  24.921  0.00  0.00    -0.293 N 
ATOM      6  N   UNL     1      -6.014   2.925  25.341  0.00  0.00    -0.295 N 
ATOM     18  C   UNL     1      -5.054   1.987  24.969  0.00  0.00    +0.300 C 
ATOM     32  H   UNL     1      -6.589   0.593  25.071  0.00  0.00    +0.151 HD
ATOM     33  H   UNL     1      -6.965   2.611  25.510  0.00  0.00    +0.151 HD
BRANCH   6  21
ATOM     21  C   UNL     1      -5.723   4.334  25.469  0.00  0.00    +0.141 C 
BRANCH  21  25
ATOM     25  C   UNL     1      -4.253   4.616  25.362  0.00  0.00    -0.030 A 
ATOM     26  C   UNL     1      -3.392   4.241  26.393  0.00  0.00    +0.005 A 
ATOM     27  C   UNL     1      -3.745   5.253  24.229  0.00  0.00    +0.005 A 
ATOM     28  C   UNL     1      -2.026   4.503  26.294  0.00  0.00    +0.000 A 
ATOM     29  C   UNL     1      -2.379   5.515  24.129  0.00  0.00    +0.000 A 
ATOM     30  C   UNL     1      -1.519   5.141  25.161  0.00  0.00    +0.000 A 
ENDBRANCH  21  25
ENDBRANCH   6  21
ENDBRANCH   9   3
TORSDOF 6
ENDMDL
