MODEL 1
REMARK VINA RESULT:      -3.8      0.000      0.000
REMARK  Name = 71693922
REMARK  7 active torsions:
REMARK  status: ('A' for Active; 'I' for Inactive)
REMARK    1  A    between atoms: O_1  and  C_8
REMARK    2  A    between atoms: O_2  and  C_10
REMARK    3  A    between atoms: N_4  and  C_7
REMARK    4  A    between atoms: C_6  and  C_11
REMARK    5  A    between atoms: C_12  and  C_16
REMARK    6  A    between atoms: C_14  and  C_19
REMARK    7  A    between atoms: C_24  and  C_25
REMARK                            x       y       z     vdW  Elec       q    Type
REMARK                         _______ _______ _______ _____ _____    ______ ____
ROOT
ATOM      6  C   UNL     1      -2.066  -0.143  25.483  0.00  0.00    +0.045 C 
ATOM      7  C   UNL     1      -1.531  -0.994  24.310  0.00  0.00    +0.112 C 
ATOM      8  C   UNL     1      -1.979  -2.411  24.666  0.00  0.00    +0.164 C 
ATOM      9  C   UNL     1      -3.240  -0.953  26.091  0.00  0.00    +0.044 C 
ATOM     10  C   UNL     1      -3.381  -2.201  25.222  0.00  0.00    +0.145 C 
ENDROOT
BRANCH   6  11
ATOM     11  C   UNL     1      -2.428   1.269  25.074  0.00  0.00    -0.039 A 
ATOM     12  C   UNL     1      -1.604   2.345  25.400  0.00  0.00    -0.047 A 
ATOM     13  C   UNL     1      -3.606   1.485  24.357  0.00  0.00    +0.004 A 
ATOM     15  C   UNL     1      -1.957   3.637  25.012  0.00  0.00    +0.003 A 
ATOM     16  C   UNL     1      -0.338   2.139  26.166  0.00  0.00    +0.044 C 
ATOM     17  C   UNL     1      -3.959   2.777  23.969  0.00  0.00    +0.000 A 
ATOM     18  C   UNL     1      -3.134   3.853  24.296  0.00  0.00    +0.000 A 
ENDBRANCH   6  11
BRANCH   7   4
ATOM      3  O   UNL     1      -0.076   0.798  22.602  0.00  0.00    -0.270 OA
ATOM      4  N   UNL     1      -0.099  -0.899  24.183  0.00  0.00    -0.305 N 
ATOM     14  C   UNL     1       0.518   0.003  23.327  0.00  0.00    +0.244 C 
ATOM     26  H   UNL     1       0.455  -1.545  24.736  0.00  0.00    +0.149 HD
BRANCH  14  19
ATOM     19  C   UNL     1       2.002  -0.041  23.291  0.00  0.00    +0.037 A 
ATOM     20  C   UNL     1       2.724   1.072  22.862  0.00  0.00    +0.014 A 
ATOM     21  C   UNL     1       2.674  -1.198  23.688  0.00  0.00    +0.014 A 
ATOM     22  C   UNL     1       4.118   1.030  22.831  0.00  0.00    +0.019 A 
ATOM     23  C   UNL     1       4.068  -1.240  23.657  0.00  0.00    +0.019 A 
ATOM     24  C   UNL     1       4.790  -0.127  23.228  0.00  0.00    +0.052 A 
BRANCH  24  25
ATOM      5  N   UNL     1       7.378  -0.204  23.169  0.00  0.00    -0.191 NA
ATOM     25  C   UNL     1       6.218  -0.169  23.196  0.00  0.00    +0.099 C 
ENDBRANCH  24  25
ENDBRANCH  14  19
ENDBRANCH   7   4
BRANCH   8   1
ATOM      1  O   UNL     1      -2.000  -3.267  23.538  0.00  0.00    -0.387 OA
ATOM     27  H   UNL     1      -1.371  -2.909  22.889  0.00  0.00    +0.210 HD
ENDBRANCH   8   1
BRANCH  10   2
ATOM      2  O   UNL     1      -4.310  -1.927  24.178  0.00  0.00    -0.389 OA
ATOM     28  H   UNL     1      -3.819  -1.504  23.454  0.00  0.00    +0.210 HD
ENDBRANCH  10   2
TORSDOF 6
ENDMDL
MODEL 2
REMARK VINA RESULT:      -0.0     14.542     15.887
REMARK  Name = 71693922
REMARK  7 active torsions:
REMARK  status: ('A' for Active; 'I' for Inactive)
REMARK    1  A    between atoms: O_1  and  C_8
REMARK    2  A    between atoms: O_2  and  C_10
REMARK    3  A    between atoms: N_4  and  C_7
REMARK    4  A    between atoms: C_6  and  C_11
REMARK    5  A    between atoms: C_12  and  C_16
REMARK    6  A    between atoms: C_14  and  C_19
REMARK    7  A    between atoms: C_24  and  C_25
REMARK                            x       y       z     vdW  Elec       q    Type
REMARK                         _______ _______ _______ _____ _____    ______ ____
ROOT
ATOM      6  C   UNL     1      -4.948 -10.141  11.788  0.00  0.00    +0.045 C 
ATOM      7  C   UNL     1      -4.663  -8.736  11.212  0.00  0.00    +0.112 C 
ATOM      8  C   UNL     1      -5.057  -8.868   9.741  0.00  0.00    +0.164 C 
ATOM      9  C   UNL     1      -5.996 -10.781  10.841  0.00  0.00    +0.044 C 
ATOM     10  C   UNL     1      -6.322  -9.715   9.796  0.00  0.00    +0.145 C 
ENDROOT
BRANCH   6  11
ATOM     11  C   UNL     1      -5.360 -10.112  13.244  0.00  0.00    -0.039 A 
ATOM     12  C   UNL     1      -4.442 -10.393  14.255  0.00  0.00    -0.047 A 
ATOM     13  C   UNL     1      -6.680  -9.796  13.569  0.00  0.00    +0.004 A 
ATOM     15  C   UNL     1      -4.842 -10.360  15.591  0.00  0.00    +0.003 A 
ATOM     16  C   UNL     1      -3.023 -10.734  13.933  0.00  0.00    +0.044 C 
ATOM     17  C   UNL     1      -7.081  -9.764  14.904  0.00  0.00    +0.000 A 
ATOM     18  C   UNL     1      -6.162 -10.044  15.915  0.00  0.00    +0.000 A 
ENDBRANCH   6  11
BRANCH   7   4
ATOM      3  O   UNL     1      -2.368 -10.302  10.489  0.00  0.00    -0.270 OA
ATOM      4  N   UNL     1      -3.281  -8.359  11.367  0.00  0.00    -0.305 N 
ATOM     14  C   UNL     1      -2.233  -9.187  10.986  0.00  0.00    +0.244 C 
ATOM     26  H   UNL     1      -3.096  -7.458  11.795  0.00  0.00    +0.149 HD
BRANCH  14  19
ATOM     19  C   UNL     1      -0.866  -8.665  11.237  0.00  0.00    +0.037 A 
ATOM     20  C   UNL     1       0.203  -9.103  10.456  0.00  0.00    +0.014 A 
ATOM     21  C   UNL     1      -0.650  -7.734  12.254  0.00  0.00    +0.014 A 
ATOM     22  C   UNL     1       1.487  -8.610  10.691  0.00  0.00    +0.019 A 
ATOM     23  C   UNL     1       0.633  -7.242  12.489  0.00  0.00    +0.019 A 
ATOM     24  C   UNL     1       1.702  -7.680  11.708  0.00  0.00    +0.052 A 
BRANCH  24  25
ATOM      5  N   UNL     1       4.085  -6.766  12.143  0.00  0.00    -0.191 NA
ATOM     25  C   UNL     1       3.017  -7.176  11.948  0.00  0.00    +0.099 C 
ENDBRANCH  24  25
ENDBRANCH  14  19
ENDBRANCH   7   4
BRANCH   8   1
ATOM      1  O   UNL     1      -5.309  -7.612   9.139  0.00  0.00    -0.387 OA
ATOM     27  H   UNL     1      -5.625  -7.012   9.836  0.00  0.00    +0.210 HD
ENDBRANCH   8   1
BRANCH  10   2
ATOM      2  O   UNL     1      -7.431  -8.948  10.258  0.00  0.00    -0.389 OA
ATOM     28  H   UNL     1      -7.131  -8.435  11.028  0.00  0.00    +0.210 HD
ENDBRANCH  10   2
TORSDOF 6
ENDMDL
