MODEL 1
REMARK VINA RESULT:      -6.1      0.000      0.000
REMARK  Name = 28962404
REMARK  10 active torsions:
REMARK  status: ('A' for Active; 'I' for Inactive)
REMARK    1  A    between atoms: O_2  and  C_8
REMARK    2  A    between atoms: O_3  and  C_16
REMARK    3  A    between atoms: N_4  and  C_6
REMARK    4  A    between atoms: N_5  and  C_15
REMARK    5  A    between atoms: N_5  and  C_18
REMARK    6  A    between atoms: C_7  and  C_15
REMARK    7  A    between atoms: C_9  and  C_16
REMARK    8  A    between atoms: C_12  and  C_17
REMARK    9  A    between atoms: C_18  and  C_19
REMARK   10  A    between atoms: C_18  and  C_20
REMARK                            x       y       z     vdW  Elec       q    Type
REMARK                         _______ _______ _______ _____ _____    ______ ____
ROOT
ATOM      1  O   UNL     1      -0.202   3.149  25.445  0.00  0.00    -0.366 OA
ATOM      6  C   UNL     1      -1.730   1.325  25.504  0.00  0.00    +0.118 C 
ATOM      7  C   UNL     1      -0.274   1.723  25.227  0.00  0.00    +0.152 C 
ATOM      8  C   UNL     1      -2.496   2.609  25.222  0.00  0.00    +0.165 C 
ATOM      9  C   UNL     1      -1.517   3.644  25.763  0.00  0.00    +0.174 C 
ENDROOT
BRANCH   6   4
ATOM      4  N   UNL     1      -2.217   0.148  24.807  0.00  0.00    -0.295 NA
ATOM     10  C   UNL     1      -3.674   0.028  24.955  0.00  0.00    +0.085 C 
ATOM     11  C   UNL     1      -1.534  -1.058  25.295  0.00  0.00    +0.085 C 
ATOM     12  C   UNL     1      -3.518  -2.473  24.618  0.00  0.00    -0.012 C 
ATOM     13  C   UNL     1      -4.211  -1.178  24.181  0.00  0.00    +0.018 C 
ATOM     14  C   UNL     1      -1.997  -2.301  24.533  0.00  0.00    +0.018 C 
ATOM     17  C   UNL     1      -3.985  -3.657  23.775  0.00  0.00    +0.007 C 
ENDBRANCH   6   4
BRANCH   8   2
ATOM      2  O   UNL     1      -2.698   2.799  23.827  0.00  0.00    -0.388 OA
ATOM     21  H   UNL     1      -2.616   3.751  23.645  0.00  0.00    +0.210 HD
ENDBRANCH   8   2
BRANCH   7  15
ATOM     15  C   UNL     1       0.253   1.454  23.821  0.00  0.00    +0.114 C 
BRANCH  15   5
ATOM      5  N   UNL     1       1.704   1.565  23.779  0.00  0.00    -0.311 NA
ATOM     22  H   UNL     1       1.950   2.388  23.227  0.00  0.00    +0.122 HD
BRANCH   5  18
ATOM     18  C   UNL     1       2.301   0.372  23.195  0.00  0.00    +0.048 C 
ATOM     19  C   UNL     1       3.633   0.716  22.535  0.00  0.00    +0.023 C 
ATOM     20  C   UNL     1       1.333  -0.239  22.188  0.00  0.00    +0.023 C 
ENDBRANCH   5  18
ENDBRANCH  15   5
ENDBRANCH   7  15
BRANCH   9  16
ATOM     16  C   UNL     1      -1.673   5.047  25.203  0.00  0.00    +0.190 C 
BRANCH  16   3
ATOM      3  O   UNL     1      -0.446   5.446  24.617  0.00  0.00    -0.392 OA
ATOM     23  H   UNL     1      -0.547   5.359  23.653  0.00  0.00    +0.210 HD
ENDBRANCH  16   3
ENDBRANCH   9  16
TORSDOF 7
ENDMDL
MODEL 2
REMARK VINA RESULT:      -4.8      2.754      5.072
REMARK  Name = 28962404
REMARK  10 active torsions:
REMARK  status: ('A' for Active; 'I' for Inactive)
REMARK    1  A    between atoms: O_2  and  C_8
REMARK    2  A    between atoms: O_3  and  C_16
REMARK    3  A    between atoms: N_4  and  C_6
REMARK    4  A    between atoms: N_5  and  C_15
REMARK    5  A    between atoms: N_5  and  C_18
REMARK    6  A    between atoms: C_7  and  C_15
REMARK    7  A    between atoms: C_9  and  C_16
REMARK    8  A    between atoms: C_12  and  C_17
REMARK    9  A    between atoms: C_18  and  C_19
REMARK   10  A    between atoms: C_18  and  C_20
REMARK                            x       y       z     vdW  Elec       q    Type
REMARK                         _______ _______ _______ _____ _____    ______ ____
ROOT
ATOM      1  O   UNL     1      -0.303  -0.678  23.792  0.00  0.00    -0.366 OA
ATOM      6  C   UNL     1      -2.433   0.360  24.016  0.00  0.00    +0.118 C 
ATOM      7  C   UNL     1      -0.950   0.612  23.717  0.00  0.00    +0.152 C 
ATOM      8  C   UNL     1      -2.402  -0.904  24.861  0.00  0.00    +0.165 C 
ATOM      9  C   UNL     1      -1.273  -1.669  24.182  0.00  0.00    +0.174 C 
ENDROOT
BRANCH   6   4
ATOM      4  N   UNL     1      -3.169   1.472  24.593  0.00  0.00    -0.295 NA
ATOM     10  C   UNL     1      -4.435   1.005  25.173  0.00  0.00    +0.085 C 
ATOM     11  C   UNL     1      -3.401   2.513  23.582  0.00  0.00    +0.085 C 
ATOM     12  C   UNL     1      -5.451   3.297  24.840  0.00  0.00    -0.012 C 
ATOM     13  C   UNL     1      -5.199   2.156  25.832  0.00  0.00    +0.018 C 
ATOM     14  C   UNL     1      -4.130   3.716  24.186  0.00  0.00    +0.018 C 
ATOM     17  C   UNL     1      -6.123   4.482  25.527  0.00  0.00    +0.007 C 
ENDBRANCH   6   4
BRANCH   8   2
ATOM      2  O   UNL     1      -2.064  -0.619  26.213  0.00  0.00    -0.388 OA
ATOM     21  H   UNL     1      -2.324  -1.388  26.749  0.00  0.00    +0.210 HD
ENDBRANCH   8   2
BRANCH   7  15
ATOM     15  C   UNL     1      -0.208   1.545  24.668  0.00  0.00    +0.114 C 
BRANCH  15   5
ATOM      5  N   UNL     1      -0.277   2.924  24.206  0.00  0.00    -0.311 NA
ATOM     22  H   UNL     1       0.564   3.127  23.664  0.00  0.00    +0.122 HD
BRANCH   5  18
ATOM     18  C   UNL     1      -0.386   3.845  25.328  0.00  0.00    +0.048 C 
ATOM     19  C   UNL     1      -1.224   3.226  26.442  0.00  0.00    +0.023 C 
ATOM     20  C   UNL     1      -0.996   5.159  24.850  0.00  0.00    +0.023 C 
ENDBRANCH   5  18
ENDBRANCH  15   5
ENDBRANCH   7  15
BRANCH   9  16
ATOM     16  C   UNL     1      -0.594  -2.726  25.033  0.00  0.00    +0.190 C 
BRANCH  16   3
ATOM      3  O   UNL     1       0.407  -2.106  25.823  0.00  0.00    -0.392 OA
ATOM     23  H   UNL     1       0.034  -1.271  26.153  0.00  0.00    +0.210 HD
ENDBRANCH  16   3
ENDBRANCH   9  16
TORSDOF 7
ENDMDL
MODEL 3
REMARK VINA RESULT:      -4.5      2.150      4.275
REMARK  Name = 28962404
REMARK  10 active torsions:
REMARK  status: ('A' for Active; 'I' for Inactive)
REMARK    1  A    between atoms: O_2  and  C_8
REMARK    2  A    between atoms: O_3  and  C_16
REMARK    3  A    between atoms: N_4  and  C_6
REMARK    4  A    between atoms: N_5  and  C_15
REMARK    5  A    between atoms: N_5  and  C_18
REMARK    6  A    between atoms: C_7  and  C_15
REMARK    7  A    between atoms: C_9  and  C_16
REMARK    8  A    between atoms: C_12  and  C_17
REMARK    9  A    between atoms: C_18  and  C_19
REMARK   10  A    between atoms: C_18  and  C_20
REMARK                            x       y       z     vdW  Elec       q    Type
REMARK                         _______ _______ _______ _____ _____    ______ ____
ROOT
ATOM      1  O   UNL     1      -1.688   3.691  23.311  0.00  0.00    -0.366 OA
ATOM      6  C   UNL     1      -1.306   1.436  23.972  0.00  0.00    +0.118 C 
ATOM      7  C   UNL     1      -2.229   2.359  23.165  0.00  0.00    +0.152 C 
ATOM      8  C   UNL     1      -0.717   2.369  25.018  0.00  0.00    +0.165 C 
ATOM      9  C   UNL     1      -0.554   3.643  24.199  0.00  0.00    +0.174 C 
ENDROOT
BRANCH   6   4
ATOM      4  N   UNL     1      -1.909   0.222  24.494  0.00  0.00    -0.295 NA
ATOM     10  C   UNL     1      -0.990  -0.914  24.345  0.00  0.00    +0.085 C 
ATOM     11  C   UNL     1      -3.192  -0.042  23.826  0.00  0.00    +0.085 C 
ATOM     12  C   UNL     1      -2.949  -2.513  24.309  0.00  0.00    -0.012 C 
ATOM     13  C   UNL     1      -1.590  -2.191  24.939  0.00  0.00    +0.018 C 
ATOM     14  C   UNL     1      -3.867  -1.289  24.401  0.00  0.00    +0.018 C 
ATOM     17  C   UNL     1      -3.588  -3.729  24.974  0.00  0.00    +0.007 C 
ENDBRANCH   6   4
BRANCH   8   2
ATOM      2  O   UNL     1      -1.624   2.584  26.093  0.00  0.00    -0.388 OA
ATOM     21  H   UNL     1      -2.050   1.732  26.292  0.00  0.00    +0.210 HD
ENDBRANCH   8   2
BRANCH   7  15
ATOM     15  C   UNL     1      -3.690   2.415  23.600  0.00  0.00    +0.114 C 
BRANCH  15   5
ATOM      5  N   UNL     1      -3.949   3.602  24.402  0.00  0.00    -0.311 NA
ATOM     22  H   UNL     1      -3.071   3.908  24.822  0.00  0.00    +0.122 HD
BRANCH   5  18
ATOM     18  C   UNL     1      -4.932   3.324  25.441  0.00  0.00    +0.048 C 
ATOM     19  C   UNL     1      -5.718   2.061  25.101  0.00  0.00    +0.023 C 
ATOM     20  C   UNL     1      -5.862   4.523  25.593  0.00  0.00    +0.023 C 
ENDBRANCH   5  18
ENDBRANCH  15   5
ENDBRANCH   7  15
BRANCH   9  16
ATOM     16  C   UNL     1      -0.490   4.932  24.999  0.00  0.00    +0.190 C 
BRANCH  16   3
ATOM      3  O   UNL     1      -1.803   5.289  25.399  0.00  0.00    -0.392 OA
ATOM     23  H   UNL     1      -2.354   4.492  25.316  0.00  0.00    +0.210 HD
ENDBRANCH  16   3
ENDBRANCH   9  16
TORSDOF 7
ENDMDL
MODEL 4
REMARK VINA RESULT:      -4.4      2.179      5.143
REMARK  Name = 28962404
REMARK  10 active torsions:
REMARK  status: ('A' for Active; 'I' for Inactive)
REMARK    1  A    between atoms: O_2  and  C_8
REMARK    2  A    between atoms: O_3  and  C_16
REMARK    3  A    between atoms: N_4  and  C_6
REMARK    4  A    between atoms: N_5  and  C_15
REMARK    5  A    between atoms: N_5  and  C_18
REMARK    6  A    between atoms: C_7  and  C_15
REMARK    7  A    between atoms: C_9  and  C_16
REMARK    8  A    between atoms: C_12  and  C_17
REMARK    9  A    between atoms: C_18  and  C_19
REMARK   10  A    between atoms: C_18  and  C_20
REMARK                            x       y       z     vdW  Elec       q    Type
REMARK                         _______ _______ _______ _____ _____    ______ ____
ROOT
ATOM      1  O   UNL     1       0.725  -0.949  23.927  0.00  0.00    -0.366 OA
ATOM      6  C   UNL     1      -0.376   0.862  25.011  0.00  0.00    +0.118 C 
ATOM      7  C   UNL     1      -0.419  -0.651  24.758  0.00  0.00    +0.152 C 
ATOM      8  C   UNL     1       0.383   1.390  23.804  0.00  0.00    +0.165 C 
ATOM      9  C   UNL     1       1.408   0.279  23.608  0.00  0.00    +0.174 C 
ENDROOT
BRANCH   6   4
ATOM      4  N   UNL     1      -1.652   1.505  25.269  0.00  0.00    -0.295 NA
ATOM     10  C   UNL     1      -2.539   1.374  24.106  0.00  0.00    +0.085 C 
ATOM     11  C   UNL     1      -1.452   2.916  25.628  0.00  0.00    +0.085 C 
ATOM     12  C   UNL     1      -3.775   3.471  24.793  0.00  0.00    -0.012 C 
ATOM     13  C   UNL     1      -3.908   2.001  24.382  0.00  0.00    +0.018 C 
ATOM     14  C   UNL     1      -2.784   3.596  25.955  0.00  0.00    +0.018 C 
ATOM     17  C   UNL     1      -5.132   4.063  25.163  0.00  0.00    +0.007 C 
ENDBRANCH   6   4
BRANCH   8   2
ATOM      2  O   UNL     1      -0.460   1.493  22.663  0.00  0.00    -0.388 OA
ATOM     21  H   UNL     1      -0.572   2.440  22.465  0.00  0.00    +0.210 HD
ENDBRANCH   8   2
BRANCH   7  15
ATOM     15  C   UNL     1      -1.651  -1.190  24.039  0.00  0.00    +0.114 C 
BRANCH  15   5
ATOM      5  N   UNL     1      -2.080  -2.455  24.618  0.00  0.00    -0.311 NA
ATOM     22  H   UNL     1      -1.951  -3.191  23.924  0.00  0.00    +0.122 HD
BRANCH   5  18
ATOM     18  C   UNL     1      -3.477  -2.392  25.028  0.00  0.00    +0.048 C 
ATOM     19  C   UNL     1      -4.361  -2.025  23.841  0.00  0.00    +0.023 C 
ATOM     20  C   UNL     1      -3.630  -1.380  26.159  0.00  0.00    +0.023 C 
ENDBRANCH   5  18
ENDBRANCH  15   5
ENDBRANCH   7  15
BRANCH   9  16
ATOM     16  C   UNL     1       2.001   0.174  22.215  0.00  0.00    +0.190 C 
BRANCH  16   3
ATOM      3  O   UNL     1       3.278   0.789  22.213  0.00  0.00    -0.392 OA
ATOM     23  H   UNL     1       3.287   1.429  21.480  0.00  0.00    +0.210 HD
ENDBRANCH  16   3
ENDBRANCH   9  16
TORSDOF 7
ENDMDL
MODEL 5
REMARK VINA RESULT:      -4.1      2.193      5.155
REMARK  Name = 28962404
REMARK  10 active torsions:
REMARK  status: ('A' for Active; 'I' for Inactive)
REMARK    1  A    between atoms: O_2  and  C_8
REMARK    2  A    between atoms: O_3  and  C_16
REMARK    3  A    between atoms: N_4  and  C_6
REMARK    4  A    between atoms: N_5  and  C_15
REMARK    5  A    between atoms: N_5  and  C_18
REMARK    6  A    between atoms: C_7  and  C_15
REMARK    7  A    between atoms: C_9  and  C_16
REMARK    8  A    between atoms: C_12  and  C_17
REMARK    9  A    between atoms: C_18  and  C_19
REMARK   10  A    between atoms: C_18  and  C_20
REMARK                            x       y       z     vdW  Elec       q    Type
REMARK                         _______ _______ _______ _____ _____    ______ ____
ROOT
ATOM      1  O   UNL     1      -0.257  -0.266  24.815  0.00  0.00    -0.366 OA
ATOM      6  C   UNL     1      -1.053   1.969  25.006  0.00  0.00    +0.118 C 
ATOM      7  C   UNL     1      -1.316   0.514  25.413  0.00  0.00    +0.152 C 
ATOM      8  C   UNL     1      -0.272   1.827  23.708  0.00  0.00    +0.165 C 
ATOM      9  C   UNL     1       0.578   0.603  24.026  0.00  0.00    +0.174 C 
ENDROOT
BRANCH   6   4
ATOM      4  N   UNL     1      -2.216   2.836  24.936  0.00  0.00    -0.295 NA
ATOM     10  C   UNL     1      -2.441   3.500  26.227  0.00  0.00    +0.085 C 
ATOM     11  C   UNL     1      -3.401   2.074  24.518  0.00  0.00    +0.085 C 
ATOM     12  C   UNL     1      -4.902   3.736  25.694  0.00  0.00    -0.012 C 
ATOM     13  C   UNL     1      -3.632   4.458  26.156  0.00  0.00    +0.018 C 
ATOM     14  C   UNL     1      -4.625   2.983  24.388  0.00  0.00    +0.018 C 
ATOM     17  C   UNL     1      -6.062   4.714  25.529  0.00  0.00    +0.007 C 
ENDBRANCH   6   4
BRANCH   8   2
ATOM      2  O   UNL     1      -1.134   1.559  22.609  0.00  0.00    -0.388 OA
ATOM     21  H   UNL     1      -0.649   0.989  21.987  0.00  0.00    +0.210 HD
ENDBRANCH   8   2
BRANCH   7  15
ATOM     15  C   UNL     1      -2.638  -0.096  24.957  0.00  0.00    +0.114 C 
BRANCH  15   5
ATOM      5  N   UNL     1      -2.996  -1.241  25.782  0.00  0.00    -0.311 NA
ATOM     22  H   UNL     1      -2.196  -1.480  26.369  0.00  0.00    +0.122 HD
BRANCH   5  18
ATOM     18  C   UNL     1      -3.371  -2.380  24.957  0.00  0.00    +0.048 C 
ATOM     19  C   UNL     1      -2.130  -3.024  24.347  0.00  0.00    +0.023 C 
ATOM     20  C   UNL     1      -4.341  -1.924  23.871  0.00  0.00    +0.023 C 
ENDBRANCH   5  18
ENDBRANCH  15   5
ENDBRANCH   7  15
BRANCH   9  16
ATOM     16  C   UNL     1       1.099  -0.162  22.822  0.00  0.00    +0.190 C 
BRANCH  16   3
ATOM      3  O   UNL     1       2.504   0.012  22.741  0.00  0.00    -0.392 OA
ATOM     23  H   UNL     1       2.692   0.424  21.880  0.00  0.00    +0.210 HD
ENDBRANCH  16   3
ENDBRANCH   9  16
TORSDOF 7
ENDMDL
MODEL 6
REMARK VINA RESULT:      -4.0      1.871      4.994
REMARK  Name = 28962404
REMARK  10 active torsions:
REMARK  status: ('A' for Active; 'I' for Inactive)
REMARK    1  A    between atoms: O_2  and  C_8
REMARK    2  A    between atoms: O_3  and  C_16
REMARK    3  A    between atoms: N_4  and  C_6
REMARK    4  A    between atoms: N_5  and  C_15
REMARK    5  A    between atoms: N_5  and  C_18
REMARK    6  A    between atoms: C_7  and  C_15
REMARK    7  A    between atoms: C_9  and  C_16
REMARK    8  A    between atoms: C_12  and  C_17
REMARK    9  A    between atoms: C_18  and  C_19
REMARK   10  A    between atoms: C_18  and  C_20
REMARK                            x       y       z     vdW  Elec       q    Type
REMARK                         _______ _______ _______ _____ _____    ______ ____
ROOT
ATOM      1  O   UNL     1      -4.922   1.356  24.879  0.00  0.00    -0.366 OA
ATOM      6  C   UNL     1      -2.760   1.583  23.910  0.00  0.00    +0.118 C 
ATOM      7  C   UNL     1      -3.750   0.587  24.528  0.00  0.00    +0.152 C 
ATOM      8  C   UNL     1      -3.165   2.906  24.541  0.00  0.00    +0.165 C 
ATOM      9  C   UNL     1      -4.679   2.745  24.583  0.00  0.00    +0.174 C 
ENDROOT
BRANCH   6   4
ATOM      4  N   UNL     1      -1.352   1.245  24.030  0.00  0.00    -0.295 NA
ATOM     10  C   UNL     1      -0.522   2.452  23.916  0.00  0.00    +0.085 C 
ATOM     11  C   UNL     1      -0.976   0.246  23.019  0.00  0.00    +0.085 C 
ATOM     12  C   UNL     1       1.419   1.057  23.089  0.00  0.00    -0.012 C 
ATOM     13  C   UNL     1       0.961   2.121  24.093  0.00  0.00    +0.018 C 
ATOM     14  C   UNL     1       0.492  -0.161  23.165  0.00  0.00    +0.018 C 
ATOM     17  C   UNL     1       2.871   0.659  23.334  0.00  0.00    +0.007 C 
ENDBRANCH   6   4
BRANCH   8   2
ATOM      2  O   UNL     1      -2.643   3.036  25.858  0.00  0.00    -0.388 OA
ATOM     21  H   UNL     1      -2.197   2.200  26.081  0.00  0.00    +0.210 HD
ENDBRANCH   8   2
BRANCH   7  15
ATOM     15  C   UNL     1      -3.293  -0.141  25.788  0.00  0.00    +0.114 C 
BRANCH  15   5
ATOM      5  N   UNL     1      -3.540  -1.571  25.682  0.00  0.00    -0.311 NA
ATOM     22  H   UNL     1      -2.992  -2.049  26.397  0.00  0.00    +0.122 HD
BRANCH   5  18
ATOM     18  C   UNL     1      -3.178  -2.065  24.360  0.00  0.00    +0.048 C 
ATOM     19  C   UNL     1      -4.283  -2.964  23.811  0.00  0.00    +0.023 C 
ATOM     20  C   UNL     1      -1.853  -2.816  24.443  0.00  0.00    +0.023 C 
ENDBRANCH   5  18
ENDBRANCH  15   5
ENDBRANCH   7  15
BRANCH   9  16
ATOM     16  C   UNL     1      -5.401   3.608  25.603  0.00  0.00    +0.190 C 
BRANCH  16   3
ATOM      3  O   UNL     1      -6.152   2.769  26.465  0.00  0.00    -0.392 OA
ATOM     23  H   UNL     1      -7.068   3.096  26.455  0.00  0.00    +0.210 HD
ENDBRANCH  16   3
ENDBRANCH   9  16
TORSDOF 7
ENDMDL
MODEL 7
REMARK VINA RESULT:      -2.7     17.392     19.855
REMARK  Name = 28962404
REMARK  10 active torsions:
REMARK  status: ('A' for Active; 'I' for Inactive)
REMARK    1  A    between atoms: O_2  and  C_8
REMARK    2  A    between atoms: O_3  and  C_16
REMARK    3  A    between atoms: N_4  and  C_6
REMARK    4  A    between atoms: N_5  and  C_15
REMARK    5  A    between atoms: N_5  and  C_18
REMARK    6  A    between atoms: C_7  and  C_15
REMARK    7  A    between atoms: C_9  and  C_16
REMARK    8  A    between atoms: C_12  and  C_17
REMARK    9  A    between atoms: C_18  and  C_19
REMARK   10  A    between atoms: C_18  and  C_20
REMARK                            x       y       z     vdW  Elec       q    Type
REMARK                         _______ _______ _______ _____ _____    ______ ____
ROOT
ATOM      1  O   UNL     1      15.492  -9.295  28.708  0.00  0.00    -0.366 OA
ATOM      6  C   UNL     1      16.391  -7.201  29.395  0.00  0.00    +0.118 C 
ATOM      7  C   UNL     1      15.418  -8.324  29.776  0.00  0.00    +0.152 C 
ATOM      8  C   UNL     1      16.445  -7.294  27.877  0.00  0.00    +0.165 C 
ATOM      9  C   UNL     1      16.381  -8.804  27.686  0.00  0.00    +0.174 C 
ENDROOT
BRANCH   6   4
ATOM      4  N   UNL     1      16.088  -5.882  29.923  0.00  0.00    -0.295 NA
ATOM     10  C   UNL     1      17.026  -4.886  29.390  0.00  0.00    +0.085 C 
ATOM     11  C   UNL     1      16.112  -5.900  31.393  0.00  0.00    +0.085 C 
ATOM     12  C   UNL     1      16.664  -3.432  31.427  0.00  0.00    -0.012 C 
ATOM     13  C   UNL     1      16.687  -3.482  29.895  0.00  0.00    +0.018 C 
ATOM     14  C   UNL     1      15.743  -4.531  31.967  0.00  0.00    +0.018 C 
ATOM     17  C   UNL     1      16.229  -2.057  31.925  0.00  0.00    +0.007 C 
ENDBRANCH   6   4
BRANCH   8   2
ATOM      2  O   UNL     1      15.317  -6.670  27.277  0.00  0.00    -0.388 OA
ATOM     21  H   UNL     1      14.599  -6.665  27.935  0.00  0.00    +0.210 HD
ENDBRANCH   8   2
BRANCH   7  15
ATOM     15  C   UNL     1      13.952  -7.935  29.932  0.00  0.00    +0.114 C 
BRANCH  15   5
ATOM      5  N   UNL     1      13.434  -8.366  31.223  0.00  0.00    -0.311 NA
ATOM     22  H   UNL     1      12.959  -9.261  31.100  0.00  0.00    +0.122 HD
BRANCH   5  18
ATOM     18  C   UNL     1      12.511  -7.380  31.769  0.00  0.00    +0.048 C 
ATOM     19  C   UNL     1      11.145  -8.012  32.014  0.00  0.00    +0.023 C 
ATOM     20  C   UNL     1      12.404  -6.199  30.810  0.00  0.00    +0.023 C 
ENDBRANCH   5  18
ENDBRANCH  15   5
ENDBRANCH   7  15
BRANCH   9  16
ATOM     16  C   UNL     1      15.889  -9.271  26.328  0.00  0.00    +0.190 C 
BRANCH  16   3
ATOM      3  O   UNL     1      16.540  -8.517  25.320  0.00  0.00    -0.392 OA
ATOM     23  H   UNL     1      15.857  -7.990  24.871  0.00  0.00    +0.210 HD
ENDBRANCH  16   3
ENDBRANCH   9  16
TORSDOF 7
ENDMDL
MODEL 8
REMARK VINA RESULT:      -2.6     13.282     16.972
REMARK  Name = 28962404
REMARK  10 active torsions:
REMARK  status: ('A' for Active; 'I' for Inactive)
REMARK    1  A    between atoms: O_2  and  C_8
REMARK    2  A    between atoms: O_3  and  C_16
REMARK    3  A    between atoms: N_4  and  C_6
REMARK    4  A    between atoms: N_5  and  C_15
REMARK    5  A    between atoms: N_5  and  C_18
REMARK    6  A    between atoms: C_7  and  C_15
REMARK    7  A    between atoms: C_9  and  C_16
REMARK    8  A    between atoms: C_12  and  C_17
REMARK    9  A    between atoms: C_18  and  C_19
REMARK   10  A    between atoms: C_18  and  C_20
REMARK                            x       y       z     vdW  Elec       q    Type
REMARK                         _______ _______ _______ _____ _____    ______ ____
ROOT
ATOM      1  O   UNL     1      15.140   8.417  18.414  0.00  0.00    -0.366 OA
ATOM      6  C   UNL     1      13.297   8.762  19.881  0.00  0.00    +0.118 C 
ATOM      7  C   UNL     1      14.711   8.176  19.773  0.00  0.00    +0.152 C 
ATOM      8  C   UNL     1      12.790   8.701  18.448  0.00  0.00    +0.165 C 
ATOM      9  C   UNL     1      14.065   9.039  17.685  0.00  0.00    +0.174 C 
ENDROOT
BRANCH   6   4
ATOM      4  N   UNL     1      12.425   8.156  20.872  0.00  0.00    -0.295 NA
ATOM     10  C   UNL     1      12.008   6.816  20.439  0.00  0.00    +0.085 C 
ATOM     11  C   UNL     1      11.262   9.017  21.127  0.00  0.00    +0.085 C 
ATOM     12  C   UNL     1       9.909   7.002  21.838  0.00  0.00    -0.012 C 
ATOM     13  C   UNL     1      11.132   6.142  21.498  0.00  0.00    +0.018 C 
ATOM     14  C   UNL     1      10.359   8.419  22.208  0.00  0.00    +0.018 C 
ATOM     17  C   UNL     1       9.092   6.373  22.963  0.00  0.00    +0.007 C 
ENDBRANCH   6   4
BRANCH   8   2
ATOM      2  O   UNL     1      12.341   7.395  18.110  0.00  0.00    -0.388 OA
ATOM     21  H   UNL     1      11.641   7.153  18.740  0.00  0.00    +0.210 HD
ENDBRANCH   8   2
BRANCH   7  15
ATOM     15  C   UNL     1      14.852   6.679  20.032  0.00  0.00    +0.114 C 
BRANCH  15   5
ATOM      5  N   UNL     1      15.569   6.432  21.275  0.00  0.00    -0.311 NA
ATOM     22  H   UNL     1      15.224   7.080  21.984  0.00  0.00    +0.122 HD
BRANCH   5  18
ATOM     18  C   UNL     1      17.004   6.605  21.092  0.00  0.00    +0.048 C 
ATOM     19  C   UNL     1      17.386   8.072  21.267  0.00  0.00    +0.023 C 
ATOM     20  C   UNL     1      17.405   6.096  19.712  0.00  0.00    +0.023 C 
ENDBRANCH   5  18
ENDBRANCH  15   5
ENDBRANCH   7  15
BRANCH   9  16
ATOM     16  C   UNL     1      14.105   8.574  16.240  0.00  0.00    +0.190 C 
BRANCH  16   3
ATOM      3  O   UNL     1      12.872   8.897  15.620  0.00  0.00    -0.392 OA
ATOM     23  H   UNL     1      12.165   8.629  16.232  0.00  0.00    +0.210 HD
ENDBRANCH  16   3
ENDBRANCH   9  16
TORSDOF 7
ENDMDL
