MODEL 1
REMARK VINA RESULT:      -2.2      0.000      0.000
REMARK  Name = 11941649
REMARK  5 active torsions:
REMARK  status: ('A' for Active; 'I' for Inactive)
REMARK    1  A    between atoms: N_5  and  C_12
REMARK    2  A    between atoms: N_6  and  C_13
REMARK    3  A    between atoms: N_7  and  C_18
REMARK    4  A    between atoms: C_18  and  C_22
REMARK    5  A    between atoms: C_19  and  C_23
REMARK                            x       y       z     vdW  Elec       q    Type
REMARK                         _______ _______ _______ _____ _____    ______ ____
ROOT
ATOM      1  O   UNL     1      -3.697  -1.173  23.183  0.00  0.00    -0.370 OA
ATOM      2  O   UNL     1      -2.208  -1.357  25.919  0.00  0.00    -0.370 OA
ATOM     10  C   UNL     1      -3.047  -0.355  25.320  0.00  0.00    +0.171 C 
ATOM     11  C   UNL     1      -2.733  -0.332  23.837  0.00  0.00    +0.171 C 
ATOM     12  C   UNL     1      -4.496  -0.778  25.385  0.00  0.00    +0.130 C 
ATOM     13  C   UNL     1      -1.353  -0.942  23.744  0.00  0.00    +0.131 C 
ATOM     14  C   UNL     1      -4.643  -1.650  24.150  0.00  0.00    +0.185 C 
ATOM     15  C   UNL     1      -1.347  -1.911  24.913  0.00  0.00    +0.185 C 
ENDROOT
BRANCH  12   5
ATOM      5  N   UNL     1      -5.355   0.381  25.283  0.00  0.00    -0.306 N 
ATOM      8  N   UNL     1      -3.543   1.869  25.380  0.00  0.00    -0.211 NA
ATOM      9  N   UNL     1      -5.803   2.682  25.177  0.00  0.00    -0.223 NA
ATOM     16  C   UNL     1      -4.886   1.683  25.280  0.00  0.00    +0.216 A 
ATOM     19  C   UNL     1      -3.121   3.151  25.374  0.00  0.00    +0.111 A 
ATOM     20  C   UNL     1      -5.311   3.939  25.178  0.00  0.00    +0.116 A 
ATOM     21  C   UNL     1      -3.967   4.236  25.274  0.00  0.00    +0.051 A 
ATOM     32  H   UNL     1      -6.353   0.253  25.155  0.00  0.00    +0.149 HD
BRANCH  19  23
ATOM      4  O   UNL     1      -1.045   2.321  26.138  0.00  0.00    -0.461 OA
ATOM     23  C   UNL     1      -1.696   3.316  25.482  0.00  0.00    +0.153 A 
ATOM     26  C   UNL     1      -0.813   4.281  25.063  0.00  0.00    +0.051 A 
ATOM     29  C   UNL     1       0.466   3.852  25.487  0.00  0.00    +0.042 A 
ATOM     31  C   UNL     1       0.272   2.655  26.136  0.00  0.00    +0.196 A 
ENDBRANCH  19  23
ENDBRANCH  12   5
BRANCH  13   6
ATOM      3  O   UNL     1       1.075  -0.697  22.202  0.00  0.00    -0.253 OA
ATOM      6  N   UNL     1      -0.327   0.061  23.892  0.00  0.00    -0.292 N 
ATOM      7  N   UNL     1       1.639   1.174  23.454  0.00  0.00    -0.295 N 
ATOM     17  C   UNL     1       0.819   0.105  23.100  0.00  0.00    +0.300 C 
ATOM     33  H   UNL     1      -0.475   0.811  24.561  0.00  0.00    +0.151 HD
ATOM     34  H   UNL     1       1.335   1.799  24.194  0.00  0.00    +0.151 HD
BRANCH   7  18
ATOM     18  C   UNL     1       2.892   1.451  22.792  0.00  0.00    +0.141 C 
BRANCH  18  22
ATOM     22  C   UNL     1       3.988   0.537  23.258  0.00  0.00    -0.030 A 
ATOM     24  C   UNL     1       5.253   1.054  23.510  0.00  0.00    +0.005 A 
ATOM     25  C   UNL     1       3.726  -0.817  23.435  0.00  0.00    +0.005 A 
ATOM     27  C   UNL     1       6.272   0.206  23.943  0.00  0.00    +0.000 A 
ATOM     28  C   UNL     1       4.745  -1.665  23.869  0.00  0.00    +0.000 A 
ATOM     30  C   UNL     1       6.018  -1.154  24.124  0.00  0.00    +0.000 A 
ENDBRANCH  18  22
ENDBRANCH   7  18
ENDBRANCH  13   6
TORSDOF 5
ENDMDL
MODEL 2
REMARK VINA RESULT:      -1.2      1.346      3.803
REMARK  Name = 11941649
REMARK  5 active torsions:
REMARK  status: ('A' for Active; 'I' for Inactive)
REMARK    1  A    between atoms: N_5  and  C_12
REMARK    2  A    between atoms: N_6  and  C_13
REMARK    3  A    between atoms: N_7  and  C_18
REMARK    4  A    between atoms: C_18  and  C_22
REMARK    5  A    between atoms: C_19  and  C_23
REMARK                            x       y       z     vdW  Elec       q    Type
REMARK                         _______ _______ _______ _____ _____    ______ ____
ROOT
ATOM      1  O   UNL     1      -2.381   3.479  26.973  0.00  0.00    -0.370 OA
ATOM      2  O   UNL     1      -1.088   4.106  24.204  0.00  0.00    -0.370 OA
ATOM     10  C   UNL     1      -2.304   3.446  24.595  0.00  0.00    +0.171 C 
ATOM     11  C   UNL     1      -2.002   2.659  25.856  0.00  0.00    +0.171 C 
ATOM     12  C   UNL     1      -3.334   4.462  25.031  0.00  0.00    +0.130 C 
ATOM     13  C   UNL     1      -0.502   2.474  25.823  0.00  0.00    +0.131 C 
ATOM     14  C   UNL     1      -2.978   4.691  26.489  0.00  0.00    +0.185 C 
ATOM     15  C   UNL     1      -0.036   3.726  25.102  0.00  0.00    +0.185 C 
ENDROOT
BRANCH  12   5
ATOM      5  N   UNL     1      -4.661   3.897  24.923  0.00  0.00    -0.306 N 
ATOM      8  N   UNL     1      -3.842   1.699  24.877  0.00  0.00    -0.211 NA
ATOM      9  N   UNL     1      -6.208   2.141  24.750  0.00  0.00    -0.223 NA
ATOM     16  C   UNL     1      -4.911   2.538  24.848  0.00  0.00    +0.216 A 
ATOM     19  C   UNL     1      -4.122   0.381  24.803  0.00  0.00    +0.111 A 
ATOM     20  C   UNL     1      -6.415   0.809  24.679  0.00  0.00    +0.116 A 
ATOM     21  C   UNL     1      -5.401  -0.127  24.701  0.00  0.00    +0.051 A 
ATOM     32  H   UNL     1      -5.468   4.511  24.953  0.00  0.00    +0.149 HD
BRANCH  19  23
ATOM      4  O   UNL     1      -2.326  -0.543  26.028  0.00  0.00    -0.461 OA
ATOM     23  C   UNL     1      -2.971  -0.482  24.835  0.00  0.00    +0.153 A 
ATOM     26  C   UNL     1      -2.353  -1.283  23.907  0.00  0.00    +0.051 A 
ATOM     29  C   UNL     1      -1.256  -1.878  24.571  0.00  0.00    +0.042 A 
ATOM     31  C   UNL     1      -1.282  -1.396  25.860  0.00  0.00    +0.196 A 
ENDBRANCH  19  23
ENDBRANCH  12   5
BRANCH  13   6
ATOM      3  O   UNL     1       1.481   2.252  23.738  0.00  0.00    -0.253 OA
ATOM      6  N   UNL     1      -0.138   1.284  25.094  0.00  0.00    -0.292 N 
ATOM      7  N   UNL     1       0.988  -0.009  23.559  0.00  0.00    -0.295 N 
ATOM     17  C   UNL     1       0.837   1.267  24.097  0.00  0.00    +0.300 C 
ATOM     33  H   UNL     1      -0.565   0.403  25.361  0.00  0.00    +0.151 HD
ATOM     34  H   UNL     1       0.427  -0.767  23.935  0.00  0.00    +0.151 HD
BRANCH   7  18
ATOM     18  C   UNL     1       1.933  -0.308  22.508  0.00  0.00    +0.141 C 
BRANCH  18  22
ATOM     22  C   UNL     1       3.347  -0.328  23.013  0.00  0.00    -0.030 A 
ATOM     24  C   UNL     1       3.836  -1.468  23.640  0.00  0.00    +0.005 A 
ATOM     25  C   UNL     1       4.153   0.793  22.846  0.00  0.00    +0.005 A 
ATOM     27  C   UNL     1       5.149  -1.487  24.108  0.00  0.00    +0.000 A 
ATOM     28  C   UNL     1       5.466   0.772  23.315  0.00  0.00    +0.000 A 
ATOM     30  C   UNL     1       5.965  -0.367  23.945  0.00  0.00    +0.000 A 
ENDBRANCH  18  22
ENDBRANCH   7  18
ENDBRANCH  13   6
TORSDOF 5
ENDMDL
