MODEL 1
REMARK VINA RESULT:       3.9      0.000      0.000
REMARK  Name = 45783309
REMARK  5 active torsions:
REMARK  status: ('A' for Active; 'I' for Inactive)
REMARK    1  A    between atoms: N_3  and  C_16
REMARK    2  A    between atoms: C_9  and  C_19
REMARK    3  A    between atoms: C_13  and  C_22
REMARK    4  A    between atoms: C_16  and  C_20
REMARK    5  A    between atoms: C_23  and  C_25
REMARK                            x       y       z     vdW  Elec       q    Type
REMARK                         _______ _______ _______ _____ _____    ______ ____
ROOT
ATOM      1  O   UNL     1      -5.781   0.901  24.833  0.00  0.00    -0.336 OA
ATOM      5  N   UNL     1      -3.654   1.319  25.401  0.00  0.00    -0.190 NA
ATOM      6  N   UNL     1      -5.027  -0.170  24.336  0.00  0.00    -0.056 NA
ATOM     19  C   UNL     1      -4.896   1.732  25.445  0.00  0.00    +0.245 A 
ATOM     23  C   UNL     1      -3.785   0.148  24.711  0.00  0.00    +0.202 A 
ENDROOT
BRANCH  23  25
ATOM      4  N   UNL     1       0.818  -0.347  23.340  0.00  0.00    -0.315 N 
ATOM      7  N   UNL     1      -0.442  -2.292  23.830  0.00  0.00    -0.240 NA
ATOM     13  C   UNL     1       3.324   0.835  22.476  0.00  0.00    +0.078 C 
ATOM     14  C   UNL     1       2.565  -0.173  21.614  0.00  0.00    +0.031 C 
ATOM     15  C   UNL     1       2.389   1.547  23.450  0.00  0.00    +0.031 C 
ATOM     17  C   UNL     1       1.685  -1.113  22.438  0.00  0.00    +0.107 C 
ATOM     18  C   UNL     1       1.489   0.595  24.240  0.00  0.00    +0.107 C 
ATOM     21  C   UNL     1      -0.384  -0.943  23.739  0.00  0.00    +0.122 A 
ATOM     24  C   UNL     1      -1.449  -0.101  24.015  0.00  0.00    +0.055 A 
ATOM     25  C   UNL     1      -2.651  -0.680  24.411  0.00  0.00    +0.027 A 
ATOM     28  C   UNL     1      -2.749  -2.062  24.517  0.00  0.00    +0.031 A 
ATOM     29  C   UNL     1      -1.626  -2.817  24.218  0.00  0.00    +0.113 A 
BRANCH  13  22
ATOM      2  O   UNL     1       5.508   0.751  23.449  0.00  0.00    -0.276 OA
ATOM      8  N   UNL     1       4.213  -1.151  23.513  0.00  0.00    -0.329 N 
ATOM     22  C   UNL     1       4.458   0.165  23.194  0.00  0.00    +0.214 C 
ATOM     33  H   UNL     1       4.910  -1.702  24.003  0.00  0.00    +0.145 HD
ATOM     34  H   UNL     1       3.366  -1.637  23.240  0.00  0.00    +0.145 HD
ENDBRANCH  13  22
ENDBRANCH  23  25
BRANCH  19   9
ATOM      3  N   UNL     1      -4.670   4.188  25.773  0.00  0.00    -0.287 NA
ATOM      9  C   UNL     1      -5.470   2.984  26.073  0.00  0.00    +0.146 C 
ATOM     10  C   UNL     1      -6.883   3.314  25.557  0.00  0.00    +0.030 C 
ATOM     11  C   UNL     1      -6.794   4.743  25.042  0.00  0.00    +0.017 C 
ATOM     12  C   UNL     1      -5.602   5.316  25.782  0.00  0.00    +0.085 C 
BRANCH   3  16
ATOM     16  C   UNL     1      -3.561   4.386  26.698  0.00  0.00    +0.120 C 
BRANCH  16  20
ATOM     20  C   UNL     1      -2.228   4.253  26.010  0.00  0.00    -0.033 A 
ATOM     26  C   UNL     1      -1.800   5.239  25.122  0.00  0.00    +0.005 A 
ATOM     27  C   UNL     1      -1.422   3.142  26.260  0.00  0.00    +0.005 A 
ATOM     30  C   UNL     1      -0.564   5.115  24.485  0.00  0.00    +0.000 A 
ATOM     31  C   UNL     1      -0.187   3.018  25.624  0.00  0.00    +0.000 A 
ATOM     32  C   UNL     1       0.241   4.005  24.736  0.00  0.00    +0.000 A 
ENDBRANCH  16  20
ENDBRANCH   3  16
ENDBRANCH  19   9
TORSDOF 5
ENDMDL
MODEL 2
REMARK VINA RESULT:       7.7      1.753      2.793
REMARK  Name = 45783309
REMARK  5 active torsions:
REMARK  status: ('A' for Active; 'I' for Inactive)
REMARK    1  A    between atoms: N_3  and  C_16
REMARK    2  A    between atoms: C_9  and  C_19
REMARK    3  A    between atoms: C_13  and  C_22
REMARK    4  A    between atoms: C_16  and  C_20
REMARK    5  A    between atoms: C_23  and  C_25
REMARK                            x       y       z     vdW  Elec       q    Type
REMARK                         _______ _______ _______ _____ _____    ______ ____
ROOT
ATOM      1  O   UNL     1      -2.615  -0.745  25.814  0.00  0.00    -0.336 OA
ATOM      5  N   UNL     1      -2.304   0.740  24.165  0.00  0.00    -0.190 NA
ATOM      6  N   UNL     1      -1.463  -1.156  25.131  0.00  0.00    -0.056 NA
ATOM     19  C   UNL     1      -3.047   0.377  25.180  0.00  0.00    +0.245 A 
ATOM     23  C   UNL     1      -1.344  -0.230  24.174  0.00  0.00    +0.202 A 
ENDROOT
BRANCH  23  25
ATOM      4  N   UNL     1       3.360  -0.091  23.097  0.00  0.00    -0.315 N 
ATOM      7  N   UNL     1       1.790  -0.288  21.334  0.00  0.00    -0.240 NA
ATOM     13  C   UNL     1       6.127   0.131  23.944  0.00  0.00    +0.078 C 
ATOM     14  C   UNL     1       5.492   1.135  22.984  0.00  0.00    +0.031 C 
ATOM     15  C   UNL     1       5.071  -0.555  24.807  0.00  0.00    +0.031 C 
ATOM     17  C   UNL     1       4.326   0.542  22.192  0.00  0.00    +0.107 C 
ATOM     18  C   UNL     1       3.893  -1.110  24.004  0.00  0.00    +0.107 C 
ATOM     21  C   UNL     1       2.033  -0.183  22.660  0.00  0.00    +0.122 A 
ATOM     24  C   UNL     1       1.043  -0.159  23.629  0.00  0.00    +0.055 A 
ATOM     25  C   UNL     1      -0.281  -0.248  23.210  0.00  0.00    +0.027 A 
ATOM     28  C   UNL     1      -0.569  -0.358  21.855  0.00  0.00    +0.031 A 
ATOM     29  C   UNL     1       0.493  -0.372  20.965  0.00  0.00    +0.113 A 
BRANCH  13  22
ATOM      2  O   UNL     1       6.550  -2.003  22.950  0.00  0.00    -0.276 OA
ATOM      8  N   UNL     1       8.194  -0.398  22.824  0.00  0.00    -0.329 N 
ATOM     22  C   UNL     1       6.955  -0.868  23.191  0.00  0.00    +0.214 C 
ATOM     33  H   UNL     1       8.839  -0.987  22.307  0.00  0.00    +0.145 HD
ATOM     34  H   UNL     1       8.536   0.521  23.085  0.00  0.00    +0.145 HD
ENDBRANCH  13  22
ENDBRANCH  23  25
BRANCH  19   9
ATOM      3  N   UNL     1      -4.376   2.467  25.422  0.00  0.00    -0.287 NA
ATOM      9  C   UNL     1      -4.297   1.026  25.735  0.00  0.00    +0.146 C 
ATOM     10  C   UNL     1      -5.589   0.427  25.148  0.00  0.00    +0.030 C 
ATOM     11  C   UNL     1      -6.356   1.613  24.581  0.00  0.00    +0.017 C 
ATOM     12  C   UNL     1      -5.800   2.796  25.347  0.00  0.00    +0.085 C 
BRANCH   3  16
ATOM     16  C   UNL     1      -3.670   3.303  26.384  0.00  0.00    +0.120 C 
BRANCH  16  20
ATOM     20  C   UNL     1      -2.395   3.862  25.810  0.00  0.00    -0.033 A 
ATOM     26  C   UNL     1      -2.379   5.146  25.266  0.00  0.00    +0.005 A 
ATOM     27  C   UNL     1      -1.230   3.094  25.821  0.00  0.00    +0.005 A 
ATOM     30  C   UNL     1      -1.197   5.663  24.734  0.00  0.00    +0.000 A 
ATOM     31  C   UNL     1      -0.049   3.611  25.289  0.00  0.00    +0.000 A 
ATOM     32  C   UNL     1      -0.033   4.895  24.746  0.00  0.00    +0.000 A 
ENDBRANCH  16  20
ENDBRANCH   3  16
ENDBRANCH  19   9
TORSDOF 5
ENDMDL
