MODEL 1
REMARK VINA RESULT:       2.1      0.000      0.000
REMARK  Name = 45783844
REMARK  8 active torsions:
REMARK  status: ('A' for Active; 'I' for Inactive)
REMARK    1  A    between atoms: O_6  and  C_26
REMARK    2  A    between atoms: O_8  and  C_31
REMARK    3  A    between atoms: O_8  and  C_32
REMARK    4  A    between atoms: C_14  and  C_19
REMARK    5  A    between atoms: C_20  and  C_21
REMARK    6  A    between atoms: C_21  and  C_23
REMARK    7  A    between atoms: C_23  and  C_26
REMARK    8  A    between atoms: C_24  and  C_25
REMARK                            x       y       z     vdW  Elec       q    Type
REMARK                         _______ _______ _______ _____ _____    ______ ____
ROOT
ATOM      5  O   UNL     1      -3.944  -1.377  22.722  0.00  0.00    -0.276 OA
ATOM      9  N   UNL     1      -3.854   0.422  24.202  0.00  0.00    -0.284 N 
ATOM     10  N   UNL     1      -4.959   3.115  26.536  0.00  0.00    -0.347 N 
ATOM     11  N   UNL     1      -5.092   4.361  24.687  0.00  0.00    -0.240 NA
ATOM     14  C   UNL     1      -3.326   1.362  23.155  0.00  0.00    +0.171 C 
ATOM     15  C   UNL     1      -4.204   2.646  23.048  0.00  0.00    +0.089 C 
ATOM     16  C   UNL     1      -4.017   0.945  25.587  0.00  0.00    +0.163 C 
ATOM     17  C   UNL     1      -4.511   2.333  25.513  0.00  0.00    +0.056 A 
ATOM     18  C   UNL     1      -4.599   3.122  24.392  0.00  0.00    +0.066 A 
ATOM     20  C   UNL     1      -4.072  -0.919  23.861  0.00  0.00    +0.217 C 
ATOM     22  C   UNL     1      -5.298   4.327  25.989  0.00  0.00    +0.197 A 
ATOM     33  H   UNL     1      -5.028   2.857  27.511  0.00  0.00    +0.167 HD
ENDROOT
BRANCH  14  19
ATOM      4  O   UNL     1      -1.445   2.731  23.940  0.00  0.00    -0.336 OA
ATOM     12  N   UNL     1      -0.827   0.803  22.981  0.00  0.00    -0.190 NA
ATOM     13  N   UNL     1      -0.045   2.703  23.989  0.00  0.00    -0.056 NA
ATOM     19  C   UNL     1      -1.824   1.577  23.332  0.00  0.00    +0.249 A 
ATOM     24  C   UNL     1       0.243   1.536  23.404  0.00  0.00    +0.202 A 
BRANCH  24  25
ATOM     25  C   UNL     1       1.590   1.073  23.229  0.00  0.00    +0.023 A 
ATOM     27  C   UNL     1       2.615   1.984  22.978  0.00  0.00    +0.015 A 
ATOM     28  C   UNL     1       1.873  -0.291  23.308  0.00  0.00    +0.015 A 
ATOM     29  C   UNL     1       3.923   1.532  22.805  0.00  0.00    +0.046 A 
ATOM     30  C   UNL     1       3.181  -0.742  23.136  0.00  0.00    +0.046 A 
ATOM     31  C   UNL     1       4.206   0.169  22.885  0.00  0.00    +0.130 A 
BRANCH  31   8
ATOM      8  O   UNL     1       5.482  -0.273  22.719  0.00  0.00    -0.406 OA
BRANCH   8  32
ATOM      1  F   UNL     1       6.146   0.934  24.507  0.00  0.00    -0.133 F 
ATOM      2  F   UNL     1       6.136  -1.244  24.684  0.00  0.00    -0.133 F 
ATOM      3  F   UNL     1       7.654  -0.231  23.437  0.00  0.00    -0.133 F 
ATOM     32  C   UNL     1       6.364  -0.220  23.835  0.00  0.00    +0.575 C 
ENDBRANCH   8  32
ENDBRANCH  31   8
ENDBRANCH  24  25
ENDBRANCH  14  19
BRANCH  20  21
ATOM     21  C   UNL     1      -4.491  -1.840  24.981  0.00  0.00    +0.107 C 
BRANCH  21  23
ATOM     23  C   UNL     1      -3.329  -2.729  25.377  0.00  0.00    +0.129 C 
BRANCH  23  26
ATOM      7  O   UNL     1      -1.522  -1.237  25.967  0.00  0.00    -0.251 OA
ATOM     26  C   UNL     1      -2.010  -2.026  25.169  0.00  0.00    +0.305 C 
BRANCH  26   6
ATOM      6  O   UNL     1      -1.429  -2.345  23.986  0.00  0.00    -0.481 OA
ATOM     34  H   UNL     1      -1.898  -1.940  23.227  0.00  0.00    +0.295 HD
ENDBRANCH  26   6
ENDBRANCH  23  26
ENDBRANCH  21  23
ENDBRANCH  20  21
TORSDOF 8
ENDMDL
MODEL 2
REMARK VINA RESULT:       2.5      1.838      4.079
REMARK  Name = 45783844
REMARK  8 active torsions:
REMARK  status: ('A' for Active; 'I' for Inactive)
REMARK    1  A    between atoms: O_6  and  C_26
REMARK    2  A    between atoms: O_8  and  C_31
REMARK    3  A    between atoms: O_8  and  C_32
REMARK    4  A    between atoms: C_14  and  C_19
REMARK    5  A    between atoms: C_20  and  C_21
REMARK    6  A    between atoms: C_21  and  C_23
REMARK    7  A    between atoms: C_23  and  C_26
REMARK    8  A    between atoms: C_24  and  C_25
REMARK                            x       y       z     vdW  Elec       q    Type
REMARK                         _______ _______ _______ _____ _____    ______ ____
ROOT
ATOM      5  O   UNL     1      -4.604   2.406  26.693  0.00  0.00    -0.276 OA
ATOM      9  N   UNL     1      -4.183   0.688  25.175  0.00  0.00    -0.284 N 
ATOM     10  N   UNL     1      -4.593  -2.479  23.246  0.00  0.00    -0.347 N 
ATOM     11  N   UNL     1      -3.458  -3.399  24.936  0.00  0.00    -0.240 NA
ATOM     14  C   UNL     1      -2.942   0.244  25.898  0.00  0.00    +0.171 C 
ATOM     15  C   UNL     1      -2.996  -1.276  26.239  0.00  0.00    +0.089 C 
ATOM     16  C   UNL     1      -4.545  -0.020  23.916  0.00  0.00    +0.163 C 
ATOM     17  C   UNL     1      -4.251  -1.457  24.080  0.00  0.00    +0.056 A 
ATOM     18  C   UNL     1      -3.553  -2.047  25.106  0.00  0.00    +0.066 A 
ATOM     20  C   UNL     1      -4.884   1.803  25.653  0.00  0.00    +0.217 C 
ATOM     22  C   UNL     1      -4.093  -3.629  23.804  0.00  0.00    +0.197 A 
ATOM     33  H   UNL     1      -5.111  -2.408  22.381  0.00  0.00    +0.167 HD
ENDROOT
BRANCH  14  19
ATOM      4  O   UNL     1      -1.693   2.035  24.776  0.00  0.00    -0.336 OA
ATOM     12  N   UNL     1      -0.598   0.083  24.865  0.00  0.00    -0.190 NA
ATOM     13  N   UNL     1      -0.462   2.249  24.142  0.00  0.00    -0.056 NA
ATOM     19  C   UNL     1      -1.691   0.736  25.171  0.00  0.00    +0.249 A 
ATOM     24  C   UNL     1       0.126   1.052  24.235  0.00  0.00    +0.202 A 
BRANCH  24  25
ATOM     25  C   UNL     1       1.436   0.792  23.711  0.00  0.00    +0.023 A 
ATOM     27  C   UNL     1       1.858  -0.520  23.506  0.00  0.00    +0.015 A 
ATOM     28  C   UNL     1       2.288   1.855  23.408  0.00  0.00    +0.015 A 
ATOM     29  C   UNL     1       3.133  -0.772  22.998  0.00  0.00    +0.046 A 
ATOM     30  C   UNL     1       3.562   1.603  22.900  0.00  0.00    +0.046 A 
ATOM     31  C   UNL     1       3.985   0.290  22.695  0.00  0.00    +0.130 A 
BRANCH  31   8
ATOM      8  O   UNL     1       5.229   0.047  22.199  0.00  0.00    -0.406 OA
BRANCH   8  32
ATOM      1  F   UNL     1       6.542   0.802  23.872  0.00  0.00    -0.133 F 
ATOM      2  F   UNL     1       5.884  -1.281  23.942  0.00  0.00    -0.133 F 
ATOM      3  F   UNL     1       7.396  -0.636  22.464  0.00  0.00    -0.133 F 
ATOM     32  C   UNL     1       6.266  -0.285  23.114  0.00  0.00    +0.575 C 
ENDBRANCH   8  32
ENDBRANCH  31   8
ENDBRANCH  24  25
ENDBRANCH  14  19
BRANCH  20  21
ATOM     21  C   UNL     1      -6.053   2.272  24.823  0.00  0.00    +0.107 C 
BRANCH  21  23
ATOM     23  C   UNL     1      -5.737   3.620  24.207  0.00  0.00    +0.129 C 
BRANCH  23  26
ATOM      7  O   UNL     1      -3.899   3.213  22.693  0.00  0.00    -0.251 OA
ATOM     26  C   UNL     1      -4.302   3.687  23.747  0.00  0.00    +0.305 C 
BRANCH  26   6
ATOM      6  O   UNL     1      -3.495   4.309  24.641  0.00  0.00    -0.481 OA
ATOM     34  H   UNL     1      -3.257   5.216  24.351  0.00  0.00    +0.295 HD
ENDBRANCH  26   6
ENDBRANCH  23  26
ENDBRANCH  21  23
ENDBRANCH  20  21
TORSDOF 8
ENDMDL
MODEL 3
REMARK VINA RESULT:       3.2      1.985      4.059
REMARK  Name = 45783844
REMARK  8 active torsions:
REMARK  status: ('A' for Active; 'I' for Inactive)
REMARK    1  A    between atoms: O_6  and  C_26
REMARK    2  A    between atoms: O_8  and  C_31
REMARK    3  A    between atoms: O_8  and  C_32
REMARK    4  A    between atoms: C_14  and  C_19
REMARK    5  A    between atoms: C_20  and  C_21
REMARK    6  A    between atoms: C_21  and  C_23
REMARK    7  A    between atoms: C_23  and  C_26
REMARK    8  A    between atoms: C_24  and  C_25
REMARK                            x       y       z     vdW  Elec       q    Type
REMARK                         _______ _______ _______ _____ _____    ______ ____
ROOT
ATOM      5  O   UNL     1      -2.605   3.291  25.982  0.00  0.00    -0.276 OA
ATOM      9  N   UNL     1      -2.991   1.333  24.778  0.00  0.00    -0.284 N 
ATOM     10  N   UNL     1      -4.656  -1.773  23.553  0.00  0.00    -0.347 N 
ATOM     11  N   UNL     1      -3.556  -2.761  25.228  0.00  0.00    -0.240 NA
ATOM     14  C   UNL     1      -1.826   0.621  25.406  0.00  0.00    +0.171 C 
ATOM     15  C   UNL     1      -2.262  -0.738  26.034  0.00  0.00    +0.089 C 
ATOM     16  C   UNL     1      -3.767   0.609  23.733  0.00  0.00    +0.163 C 
ATOM     17  C   UNL     1      -3.884  -0.808  24.128  0.00  0.00    +0.056 A 
ATOM     18  C   UNL     1      -3.217  -1.441  25.149  0.00  0.00    +0.066 A 
ATOM     20  C   UNL     1      -3.234   2.669  25.121  0.00  0.00    +0.217 C 
ATOM     22  C   UNL     1      -4.425  -2.932  24.251  0.00  0.00    +0.197 A 
ATOM     33  H   UNL     1      -5.278  -1.662  22.764  0.00  0.00    +0.167 HD
ENDROOT
BRANCH  14  19
ATOM      4  O   UNL     1      -0.901   0.875  23.147  0.00  0.00    -0.336 OA
ATOM     12  N   UNL     1       0.616   0.291  24.688  0.00  0.00    -0.190 NA
ATOM     13  N   UNL     1       0.322   0.770  22.470  0.00  0.00    -0.056 NA
ATOM     19  C   UNL     1      -0.639   0.577  24.446  0.00  0.00    +0.249 A 
ATOM     24  C   UNL     1       1.166   0.422  23.446  0.00  0.00    +0.202 A 
BRANCH  24  25
ATOM     25  C   UNL     1       2.564   0.201  23.215  0.00  0.00    +0.023 A 
ATOM     27  C   UNL     1       3.151  -1.007  23.590  0.00  0.00    +0.015 A 
ATOM     28  C   UNL     1       3.337   1.195  22.616  0.00  0.00    +0.015 A 
ATOM     29  C   UNL     1       4.512  -1.221  23.367  0.00  0.00    +0.046 A 
ATOM     30  C   UNL     1       4.697   0.982  22.393  0.00  0.00    +0.046 A 
ATOM     31  C   UNL     1       5.285  -0.226  22.768  0.00  0.00    +0.130 A 
BRANCH  31   8
ATOM      8  O   UNL     1       6.611  -0.434  22.548  0.00  0.00    -0.406 OA
BRANCH   8  32
ATOM      1  F   UNL     1       7.295   1.203  23.944  0.00  0.00    -0.133 F 
ATOM      2  F   UNL     1       7.362  -0.858  24.666  0.00  0.00    -0.133 F 
ATOM      3  F   UNL     1       8.804  -0.160  23.143  0.00  0.00    -0.133 F 
ATOM     32  C   UNL     1       7.528  -0.078  23.577  0.00  0.00    +0.575 C 
ENDBRANCH   8  32
ENDBRANCH  31   8
ENDBRANCH  24  25
ENDBRANCH  14  19
BRANCH  20  21
ATOM     21  C   UNL     1      -4.343   3.367  24.372  0.00  0.00    +0.107 C 
BRANCH  21  23
ATOM     23  C   UNL     1      -5.492   3.663  25.315  0.00  0.00    +0.129 C 
BRANCH  23  26
ATOM      7  O   UNL     1      -6.669   1.600  24.870  0.00  0.00    -0.251 OA
ATOM     26  C   UNL     1      -6.231   2.400  25.686  0.00  0.00    +0.305 C 
BRANCH  26   6
ATOM      6  O   UNL     1      -6.382   2.258  27.026  0.00  0.00    -0.481 OA
ATOM     34  H   UNL     1      -5.521   2.135  27.480  0.00  0.00    +0.295 HD
ENDBRANCH  26   6
ENDBRANCH  23  26
ENDBRANCH  21  23
ENDBRANCH  20  21
TORSDOF 8
ENDMDL
MODEL 4
REMARK VINA RESULT:       4.8      2.007      2.951
REMARK  Name = 45783844
REMARK  8 active torsions:
REMARK  status: ('A' for Active; 'I' for Inactive)
REMARK    1  A    between atoms: O_6  and  C_26
REMARK    2  A    between atoms: O_8  and  C_31
REMARK    3  A    between atoms: O_8  and  C_32
REMARK    4  A    between atoms: C_14  and  C_19
REMARK    5  A    between atoms: C_20  and  C_21
REMARK    6  A    between atoms: C_21  and  C_23
REMARK    7  A    between atoms: C_23  and  C_26
REMARK    8  A    between atoms: C_24  and  C_25
REMARK                            x       y       z     vdW  Elec       q    Type
REMARK                         _______ _______ _______ _____ _____    ______ ____
ROOT
ATOM      5  O   UNL     1      -5.254  -0.098  24.197  0.00  0.00    -0.276 OA
ATOM      9  N   UNL     1      -3.726   1.506  24.924  0.00  0.00    -0.284 N 
ATOM     10  N   UNL     1      -2.349   4.742  26.170  0.00  0.00    -0.347 N 
ATOM     11  N   UNL     1      -2.191   5.258  24.002  0.00  0.00    -0.240 NA
ATOM     14  C   UNL     1      -3.039   1.574  23.589  0.00  0.00    +0.171 C 
ATOM     15  C   UNL     1      -2.968   3.039  23.060  0.00  0.00    +0.089 C 
ATOM     16  C   UNL     1      -3.176   2.334  26.032  0.00  0.00    +0.163 C 
ATOM     17  C   UNL     1      -2.743   3.633  25.482  0.00  0.00    +0.056 A 
ATOM     18  C   UNL     1      -2.633   3.975  24.155  0.00  0.00    +0.066 A 
ATOM     20  C   UNL     1      -4.780   0.600  25.099  0.00  0.00    +0.217 C 
ATOM     22  C   UNL     1      -2.027   5.694  25.235  0.00  0.00    +0.197 A 
ATOM     33  H   UNL     1      -2.300   4.846  27.174  0.00  0.00    +0.167 HD
ENDROOT
BRANCH  14  19
ATOM      4  O   UNL     1      -1.794  -0.494  24.039  0.00  0.00    -0.336 OA
ATOM     12  N   UNL     1      -0.517   1.192  23.300  0.00  0.00    -0.190 NA
ATOM     13  N   UNL     1      -0.486  -0.992  23.983  0.00  0.00    -0.056 NA
ATOM     19  C   UNL     1      -1.724   0.796  23.620  0.00  0.00    +0.249 A 
ATOM     24  C   UNL     1       0.208   0.061  23.540  0.00  0.00    +0.202 A 
BRANCH  24  25
ATOM     25  C   UNL     1       1.625   0.016  23.323  0.00  0.00    +0.023 A 
ATOM     27  C   UNL     1       2.304   1.160  22.906  0.00  0.00    +0.015 A 
ATOM     28  C   UNL     1       2.324  -1.174  23.527  0.00  0.00    +0.015 A 
ATOM     29  C   UNL     1       3.683   1.115  22.693  0.00  0.00    +0.046 A 
ATOM     30  C   UNL     1       3.701  -1.219  23.314  0.00  0.00    +0.046 A 
ATOM     31  C   UNL     1       4.381  -0.075  22.897  0.00  0.00    +0.130 A 
BRANCH  31   8
ATOM      8  O   UNL     1       5.725  -0.121  22.691  0.00  0.00    -0.406 OA
BRANCH   8  32
ATOM      1  F   UNL     1       6.270  -0.889  24.743  0.00  0.00    -0.133 F 
ATOM      2  F   UNL     1       7.876  -0.136  23.468  0.00  0.00    -0.133 F 
ATOM      3  F   UNL     1       6.424   1.260  24.377  0.00  0.00    -0.133 F 
ATOM     32  C   UNL     1       6.584   0.043  23.814  0.00  0.00    +0.575 C 
ENDBRANCH   8  32
ENDBRANCH  31   8
ENDBRANCH  24  25
ENDBRANCH  14  19
BRANCH  20  21
ATOM     21  C   UNL     1      -5.355   0.492  26.490  0.00  0.00    +0.107 C 
BRANCH  21  23
ATOM     23  C   UNL     1      -6.250   1.682  26.769  0.00  0.00    +0.129 C 
BRANCH  23  26
ATOM      7  O   UNL     1      -6.027   3.640  25.371  0.00  0.00    -0.251 OA
ATOM     26  C   UNL     1      -6.465   2.507  25.524  0.00  0.00    +0.305 C 
BRANCH  26   6
ATOM      6  O   UNL     1      -7.218   1.867  24.597  0.00  0.00    -0.481 OA
ATOM     34  H   UNL     1      -6.794   1.875  23.712  0.00  0.00    +0.295 HD
ENDBRANCH  26   6
ENDBRANCH  23  26
ENDBRANCH  21  23
ENDBRANCH  20  21
TORSDOF 8
ENDMDL
MODEL 5
REMARK VINA RESULT:       5.3      2.003      2.246
REMARK  Name = 45783844
REMARK  8 active torsions:
REMARK  status: ('A' for Active; 'I' for Inactive)
REMARK    1  A    between atoms: O_6  and  C_26
REMARK    2  A    between atoms: O_8  and  C_31
REMARK    3  A    between atoms: O_8  and  C_32
REMARK    4  A    between atoms: C_14  and  C_19
REMARK    5  A    between atoms: C_20  and  C_21
REMARK    6  A    between atoms: C_21  and  C_23
REMARK    7  A    between atoms: C_23  and  C_26
REMARK    8  A    between atoms: C_24  and  C_25
REMARK                            x       y       z     vdW  Elec       q    Type
REMARK                         _______ _______ _______ _____ _____    ______ ____
ROOT
ATOM      5  O   UNL     1      -3.794  -1.014  23.277  0.00  0.00    -0.276 OA
ATOM      9  N   UNL     1      -2.431   0.578  24.299  0.00  0.00    -0.284 N 
ATOM     10  N   UNL     1      -1.384   3.570  26.266  0.00  0.00    -0.347 N 
ATOM     11  N   UNL     1      -1.535   4.638  24.309  0.00  0.00    -0.240 NA
ATOM     14  C   UNL     1      -1.909   1.092  22.986  0.00  0.00    +0.171 C 
ATOM     15  C   UNL     1      -2.098   2.634  22.864  0.00  0.00    +0.089 C 
ATOM     16  C   UNL     1      -1.883   1.176  25.547  0.00  0.00    +0.163 C 
ATOM     17  C   UNL     1      -1.694   2.624  25.335  0.00  0.00    +0.056 A 
ATOM     18  C   UNL     1      -1.777   3.303  24.144  0.00  0.00    +0.066 A 
ATOM     20  C   UNL     1      -3.325  -0.501  24.297  0.00  0.00    +0.217 C 
ATOM     22  C   UNL     1      -1.299   4.767  25.599  0.00  0.00    +0.197 A 
ATOM     33  H   UNL     1      -1.241   3.423  27.255  0.00  0.00    +0.167 HD
ENDROOT
BRANCH  14  19
ATOM      4  O   UNL     1      -0.334  -0.145  21.566  0.00  0.00    -0.336 OA
ATOM     12  N   UNL     1       0.580   0.666  23.443  0.00  0.00    -0.190 NA
ATOM     13  N   UNL     1       1.013  -0.530  21.540  0.00  0.00    -0.056 NA
ATOM     19  C   UNL     1      -0.505   0.554  22.718  0.00  0.00    +0.249 A 
ATOM     24  C   UNL     1       1.484  -0.015  22.681  0.00  0.00    +0.202 A 
BRANCH  24  25
ATOM     25  C   UNL     1       2.853  -0.161  23.086  0.00  0.00    +0.023 A 
ATOM     27  C   UNL     1       3.739   0.907  22.948  0.00  0.00    +0.015 A 
ATOM     28  C   UNL     1       3.297  -1.372  23.617  0.00  0.00    +0.015 A 
ATOM     29  C   UNL     1       5.070   0.764  23.340  0.00  0.00    +0.046 A 
ATOM     30  C   UNL     1       4.627  -1.514  24.009  0.00  0.00    +0.046 A 
ATOM     31  C   UNL     1       5.514  -0.447  23.871  0.00  0.00    +0.130 A 
BRANCH  31   8
ATOM      8  O   UNL     1       6.812  -0.588  24.255  0.00  0.00    -0.406 OA
BRANCH   8  32
ATOM      1  F   UNL     1       7.637   1.037  22.922  0.00  0.00    -0.133 F 
ATOM      2  F   UNL     1       9.054  -0.315  23.893  0.00  0.00    -0.133 F 
ATOM      3  F   UNL     1       7.783  -1.032  22.232  0.00  0.00    -0.133 F 
ATOM     32  C   UNL     1       7.831  -0.241  23.325  0.00  0.00    +0.575 C 
ENDBRANCH   8  32
ENDBRANCH  31   8
ENDBRANCH  24  25
ENDBRANCH  14  19
BRANCH  20  21
ATOM     21  C   UNL     1      -3.724  -1.049  25.645  0.00  0.00    +0.107 C 
BRANCH  21  23
ATOM     23  C   UNL     1      -2.938  -2.309  25.941  0.00  0.00    +0.129 C 
BRANCH  23  26
ATOM      7  O   UNL     1      -0.598  -1.959  25.450  0.00  0.00    -0.251 OA
ATOM     26  C   UNL     1      -1.690  -2.384  25.096  0.00  0.00    +0.305 C 
BRANCH  26   6
ATOM      6  O   UNL     1      -1.912  -2.952  23.885  0.00  0.00    -0.481 OA
ATOM     34  H   UNL     1      -1.243  -3.638  23.675  0.00  0.00    +0.295 HD
ENDBRANCH  26   6
ENDBRANCH  23  26
ENDBRANCH  21  23
ENDBRANCH  20  21
TORSDOF 8
ENDMDL
