MODEL 1
REMARK VINA RESULT:      -5.0      0.000      0.000
REMARK  Name = 51137122
REMARK  4 active torsions:
REMARK  status: ('A' for Active; 'I' for Inactive)
REMARK    1  A    between atoms: N_1  and  C_10
REMARK    2  A    between atoms: N_4  and  C_17
REMARK    3  A    between atoms: C_6  and  C_11
REMARK    4  A    between atoms: C_10  and  C_12
REMARK                            x       y       z     vdW  Elec       q    Type
REMARK                         _______ _______ _______ _____ _____    ______ ____
ROOT
ATOM      1  N   UNL     1      -3.141 -10.640  16.037  0.00  0.00    -0.295 NA
ATOM      6  C   UNL     1      -3.080 -10.781  13.697  0.00  0.00    +0.070 C 
ATOM      7  C   UNL     1      -4.044 -10.767  14.893  0.00  0.00    +0.096 C 
ATOM      8  C   UNL     1      -1.825 -10.047  14.202  0.00  0.00    +0.028 C 
ATOM      9  C   UNL     1      -2.155  -9.638  15.631  0.00  0.00    +0.085 C 
ENDROOT
BRANCH   6  11
ATOM      2  N   UNL     1      -4.965  -9.708  12.435  0.00  0.00    -0.342 N 
ATOM      3  N   UNL     1      -3.119 -10.107  11.262  0.00  0.00    -0.232 NA
ATOM     11  C   UNL     1      -3.691 -10.204  12.441  0.00  0.00    +0.113 A 
ATOM     13  C   UNL     1      -5.233  -9.261  11.167  0.00  0.00    +0.066 A 
ATOM     14  C   UNL     1      -4.066  -9.520  10.453  0.00  0.00    +0.089 A 
ATOM     18  C   UNL     1      -6.361  -8.669  10.599  0.00  0.00    +0.028 A 
ATOM     19  C   UNL     1      -4.004  -9.177   9.093  0.00  0.00    +0.030 A 
ATOM     22  C   UNL     1      -6.283  -8.333   9.244  0.00  0.00    +0.002 A 
ATOM     23  C   UNL     1      -5.126  -8.581   8.502  0.00  0.00    +0.002 A 
ATOM     26  H   UNL     1      -5.599  -9.674  13.222  0.00  0.00    +0.167 HD
ENDBRANCH   6  11
BRANCH   1  10
ATOM     10  C   UNL     1      -3.841 -10.265  17.257  0.00  0.00    +0.158 C 
BRANCH  10  12
ATOM      4  N   UNL     1      -6.224 -10.386  18.053  0.00  0.00    -0.330 N 
ATOM      5  N   UNL     1      -5.926  -9.869  15.911  0.00  0.00    -0.231 NA
ATOM     12  C   UNL     1      -5.328 -10.166  17.044  0.00  0.00    +0.125 A 
ATOM     15  C   UNL     1      -7.484 -10.219  17.536  0.00  0.00    +0.069 A 
ATOM     16  C   UNL     1      -7.271  -9.898  16.200  0.00  0.00    +0.089 A 
ATOM     17  C   UNL     1      -5.905 -10.731  19.419  0.00  0.00    +0.150 C 
ATOM     20  C   UNL     1      -8.753 -10.319  18.108  0.00  0.00    +0.028 A 
ATOM     21  C   UNL     1      -8.378  -9.658  15.368  0.00  0.00    +0.030 A 
ATOM     24  C   UNL     1      -9.843 -10.079  17.266  0.00  0.00    +0.002 A 
ATOM     25  C   UNL     1      -9.662  -9.753  15.920  0.00  0.00    +0.002 A 
ENDBRANCH  10  12
ENDBRANCH   1  10
TORSDOF 3
ENDMDL
MODEL 2
REMARK VINA RESULT:      -2.4      2.239      4.228
REMARK  Name = 51137122
REMARK  4 active torsions:
REMARK  status: ('A' for Active; 'I' for Inactive)
REMARK    1  A    between atoms: N_1  and  C_10
REMARK    2  A    between atoms: N_4  and  C_17
REMARK    3  A    between atoms: C_6  and  C_11
REMARK    4  A    between atoms: C_10  and  C_12
REMARK                            x       y       z     vdW  Elec       q    Type
REMARK                         _______ _______ _______ _____ _____    ______ ____
ROOT
ATOM      1  N   UNL     1      -6.234 -10.538  16.104  0.00  0.00    -0.295 NA
ATOM      6  C   UNL     1      -4.103 -10.781  15.156  0.00  0.00    +0.070 C 
ATOM      7  C   UNL     1      -5.598 -10.779  14.808  0.00  0.00    +0.096 C 
ATOM      8  C   UNL     1      -4.003  -9.940  16.442  0.00  0.00    +0.028 C 
ATOM      9  C   UNL     1      -5.428  -9.490  16.731  0.00  0.00    +0.085 C 
ENDROOT
BRANCH   6  11
ATOM      2  N   UNL     1      -3.728 -10.178  12.749  0.00  0.00    -0.342 N 
ATOM      3  N   UNL     1      -1.962  -9.970  14.084  0.00  0.00    -0.232 NA
ATOM     11  C   UNL     1      -3.232 -10.305  14.017  0.00  0.00    +0.113 A 
ATOM     13  C   UNL     1      -2.711  -9.732  11.945  0.00  0.00    +0.066 A 
ATOM     14  C   UNL     1      -1.620  -9.609  12.801  0.00  0.00    +0.089 A 
ATOM     18  C   UNL     1      -2.654  -9.434  10.583  0.00  0.00    +0.028 A 
ATOM     19  C   UNL     1      -0.392  -9.165  12.285  0.00  0.00    +0.030 A 
ATOM     22  C   UNL     1      -1.423  -8.992  10.086  0.00  0.00    +0.002 A 
ATOM     23  C   UNL     1      -0.310  -8.859  10.920  0.00  0.00    +0.002 A 
ATOM     26  H   UNL     1      -4.674 -10.377  12.454  0.00  0.00    +0.167 HD
ENDBRANCH   6  11
BRANCH   1  10
ATOM     10  C   UNL     1      -7.633 -10.158  15.974  0.00  0.00    +0.158 C 
BRANCH  10  12
ATOM      4  N   UNL     1      -9.311 -10.160  14.100  0.00  0.00    -0.330 N 
ATOM      5  N   UNL     1      -7.230  -9.594  13.558  0.00  0.00    -0.231 NA
ATOM     12  C   UNL     1      -8.030  -9.963  14.534  0.00  0.00    +0.125 A 
ATOM     15  C   UNL     1      -9.340  -9.901  12.753  0.00  0.00    +0.069 A 
ATOM     16  C   UNL     1      -8.031  -9.551  12.439  0.00  0.00    +0.089 A 
ATOM     17  C   UNL     1     -10.435 -10.567  14.911  0.00  0.00    +0.150 C 
ATOM     20  C   UNL     1     -10.370  -9.942  11.811  0.00  0.00    +0.028 A 
ATOM     21  C   UNL     1      -7.710  -9.218  11.112  0.00  0.00    +0.030 A 
ATOM     24  C   UNL     1     -10.032  -9.610  10.496  0.00  0.00    +0.002 A 
ATOM     25  C   UNL     1      -8.727  -9.253  10.150  0.00  0.00    +0.002 A 
ENDBRANCH  10  12
ENDBRANCH   1  10
TORSDOF 3
ENDMDL
MODEL 3
REMARK VINA RESULT:      -1.9     14.145     16.364
REMARK  Name = 51137122
REMARK  4 active torsions:
REMARK  status: ('A' for Active; 'I' for Inactive)
REMARK    1  A    between atoms: N_1  and  C_10
REMARK    2  A    between atoms: N_4  and  C_17
REMARK    3  A    between atoms: C_6  and  C_11
REMARK    4  A    between atoms: C_10  and  C_12
REMARK                            x       y       z     vdW  Elec       q    Type
REMARK                         _______ _______ _______ _____ _____    ______ ____
ROOT
ATOM      1  N   UNL     1      -2.844  -0.917  24.557  0.00  0.00    -0.295 NA
ATOM      6  C   UNL     1      -0.683  -1.548  23.898  0.00  0.00    +0.070 C 
ATOM      7  C   UNL     1      -1.785  -0.512  23.631  0.00  0.00    +0.096 C 
ATOM      8  C   UNL     1      -0.946  -2.032  25.335  0.00  0.00    +0.028 C 
ATOM      9  C   UNL     1      -2.152  -1.232  25.808  0.00  0.00    +0.085 C 
ENDROOT
BRANCH   6  11
ATOM      2  N   UNL     1       1.817  -1.704  24.038  0.00  0.00    -0.342 N 
ATOM      3  N   UNL     1       1.017   0.134  23.079  0.00  0.00    -0.232 NA
ATOM     11  C   UNL     1       0.706  -1.006  23.655  0.00  0.00    +0.113 A 
ATOM     13  C   UNL     1       2.918  -0.966  23.687  0.00  0.00    +0.066 A 
ATOM     14  C   UNL     1       2.392   0.177  23.090  0.00  0.00    +0.089 A 
ATOM     18  C   UNL     1       4.286  -1.192  23.835  0.00  0.00    +0.028 A 
ATOM     19  C   UNL     1       3.268   1.163  22.608  0.00  0.00    +0.030 A 
ATOM     22  C   UNL     1       5.145  -0.200  23.349  0.00  0.00    +0.002 A 
ATOM     23  C   UNL     1       4.647   0.958  22.746  0.00  0.00    +0.002 A 
ATOM     26  H   UNL     1       1.830  -2.605  24.498  0.00  0.00    +0.167 HD
ENDBRANCH   6  11
BRANCH   1  10
ATOM     10  C   UNL     1      -3.855   0.115  24.728  0.00  0.00    +0.158 C 
BRANCH  10  12
ATOM      4  N   UNL     1      -3.967   2.579  25.224  0.00  0.00    -0.330 N 
ATOM      5  N   UNL     1      -1.999   1.799  24.544  0.00  0.00    -0.231 NA
ATOM     12  C   UNL     1      -3.246   1.489  24.822  0.00  0.00    +0.125 A 
ATOM     15  C   UNL     1      -3.130   3.665  25.202  0.00  0.00    +0.069 A 
ATOM     16  C   UNL     1      -1.909   3.152  24.775  0.00  0.00    +0.089 A 
ATOM     17  C   UNL     1      -5.361   2.589  25.603  0.00  0.00    +0.150 C 
ATOM     20  C   UNL     1      -3.331   5.011  25.512  0.00  0.00    +0.028 A 
ATOM     21  C   UNL     1      -0.810   4.020  24.643  0.00  0.00    +0.030 A 
ATOM     24  C   UNL     1      -2.227   5.859  25.373  0.00  0.00    +0.002 A 
ATOM     25  C   UNL     1      -0.989   5.375  24.947  0.00  0.00    +0.002 A 
ENDBRANCH  10  12
ENDBRANCH   1  10
TORSDOF 3
ENDMDL
