MODEL 1
REMARK VINA RESULT:      -4.0      0.000      0.000
REMARK  Name = 26744016
REMARK  8 active torsions:
REMARK  status: ('A' for Active; 'I' for Inactive)
REMARK    1  A    between atoms: S_1  and  C_20
REMARK    2  A    between atoms: S_1  and  C_23
REMARK    3  A    between atoms: O_3  and  C_12
REMARK    4  A    between atoms: N_7  and  C_14
REMARK    5  A    between atoms: C_10  and  C_15
REMARK    6  A    between atoms: C_14  and  C_16
REMARK    7  A    between atoms: C_17  and  C_20
REMARK    8  A    between atoms: C_29  and  C_30
REMARK                            x       y       z     vdW  Elec       q    Type
REMARK                         _______ _______ _______ _____ _____    ______ ____
ROOT
ATOM      4  O   UNL     1      -2.056   2.240  25.604  0.00  0.00    -0.336 OA
ATOM      8  N   UNL     1      -1.744   2.188  23.386  0.00  0.00    -0.193 NA
ATOM      9  N   UNL     1      -0.685   2.035  25.408  0.00  0.00    -0.060 NA
ATOM     15  C   UNL     1      -2.605   2.319  24.363  0.00  0.00    +0.245 A 
ATOM     17  C   UNL     1      -0.580   2.016  24.076  0.00  0.00    +0.193 A 
ENDROOT
BRANCH  15  10
ATOM      7  N   UNL     1      -4.852   1.629  25.184  0.00  0.00    -0.285 NA
ATOM     10  C   UNL     1      -4.101   2.544  24.300  0.00  0.00    +0.149 C 
ATOM     11  C   UNL     1      -4.510   3.957  24.756  0.00  0.00    +0.061 C 
ATOM     12  C   UNL     1      -5.527   3.733  25.868  0.00  0.00    +0.130 C 
ATOM     13  C   UNL     1      -6.064   2.343  25.585  0.00  0.00    +0.116 C 
BRANCH  12   3
ATOM      3  O   UNL     1      -6.549   4.711  25.819  0.00  0.00    -0.390 OA
ATOM     31  H   UNL     1      -6.596   5.037  24.905  0.00  0.00    +0.210 HD
ENDBRANCH  12   3
BRANCH   7  14
ATOM     14  C   UNL     1      -5.152   0.347  24.562  0.00  0.00    +0.120 C 
BRANCH  14  16
ATOM      2  F   UNL     1      -0.997  -3.381  25.320  0.00  0.00    -0.205 F 
ATOM     16  C   UNL     1      -4.042  -0.650  24.765  0.00  0.00    -0.033 A 
ATOM     18  C   UNL     1      -3.242  -0.580  25.905  0.00  0.00    +0.008 A 
ATOM     19  C   UNL     1      -3.813  -1.642  23.811  0.00  0.00    +0.008 A 
ATOM     21  C   UNL     1      -2.213  -1.503  26.093  0.00  0.00    +0.038 A 
ATOM     22  C   UNL     1      -2.784  -2.564  23.999  0.00  0.00    +0.038 A 
ATOM     24  C   UNL     1      -1.984  -2.495  25.140  0.00  0.00    +0.123 A 
ENDBRANCH  14  16
ENDBRANCH   7  14
ENDBRANCH  15  10
BRANCH  17  20
ATOM     20  C   UNL     1       0.709   1.824  23.401  0.00  0.00    +0.251 C 
BRANCH  20   1
ATOM      1  S   UNL     1       0.973   0.088  23.168  0.00  0.00    +0.004 S 
ATOM      5  O   UNL     1       0.555  -0.242  21.819  0.00  0.00    -0.169 OA
ATOM      6  O   UNL     1       0.416  -0.621  24.305  0.00  0.00    -0.169 OA
BRANCH   1  23
ATOM     23  C   UNL     1       2.730  -0.088  23.256  0.00  0.00    +0.089 A 
ATOM     25  C   UNL     1       3.288  -1.282  23.711  0.00  0.00    +0.027 A 
ATOM     26  C   UNL     1       3.556   0.969  22.874  0.00  0.00    +0.027 A 
ATOM     27  C   UNL     1       4.675  -1.420  23.783  0.00  0.00    +0.005 A 
ATOM     28  C   UNL     1       4.943   0.832  22.947  0.00  0.00    +0.005 A 
ATOM     29  C   UNL     1       5.501  -0.364  23.402  0.00  0.00    -0.050 A 
ATOM     30  C   UNL     1       6.983  -0.511  23.478  0.00  0.00    +0.044 C 
ENDBRANCH   1  23
ENDBRANCH  20   1
ENDBRANCH  17  20
TORSDOF 7
ENDMDL
MODEL 2
REMARK VINA RESULT:      -1.9      2.894      6.165
REMARK  Name = 26744016
REMARK  8 active torsions:
REMARK  status: ('A' for Active; 'I' for Inactive)
REMARK    1  A    between atoms: S_1  and  C_20
REMARK    2  A    between atoms: S_1  and  C_23
REMARK    3  A    between atoms: O_3  and  C_12
REMARK    4  A    between atoms: N_7  and  C_14
REMARK    5  A    between atoms: C_10  and  C_15
REMARK    6  A    between atoms: C_14  and  C_16
REMARK    7  A    between atoms: C_17  and  C_20
REMARK    8  A    between atoms: C_29  and  C_30
REMARK                            x       y       z     vdW  Elec       q    Type
REMARK                         _______ _______ _______ _____ _____    ______ ____
ROOT
ATOM      4  O   UNL     1      -0.798   4.281  25.111  0.00  0.00    -0.336 OA
ATOM      8  N   UNL     1      -2.102   2.921  26.323  0.00  0.00    -0.193 NA
ATOM      9  N   UNL     1      -1.933   5.029  25.450  0.00  0.00    -0.060 NA
ATOM     15  C   UNL     1      -0.979   3.052  25.663  0.00  0.00    +0.245 A 
ATOM     17  C   UNL     1      -2.654   4.158  26.164  0.00  0.00    +0.193 A 
ENDROOT
BRANCH  15  10
ATOM      7  N   UNL     1      -0.374   0.762  24.899  0.00  0.00    -0.285 NA
ATOM     10  C   UNL     1       0.126   2.042  25.439  0.00  0.00    +0.149 C 
ATOM     11  C   UNL     1       1.172   2.521  24.415  0.00  0.00    +0.061 C 
ATOM     12  C   UNL     1       1.221   1.423  23.360  0.00  0.00    +0.130 C 
ATOM     13  C   UNL     1       0.711   0.199  24.097  0.00  0.00    +0.116 C 
BRANCH  12   3
ATOM      3  O   UNL     1       2.543   1.239  22.888  0.00  0.00    -0.390 OA
ATOM     31  H   UNL     1       2.787   2.036  22.387  0.00  0.00    +0.210 HD
ENDBRANCH  12   3
BRANCH   7  14
ATOM     14  C   UNL     1      -0.827  -0.160  25.932  0.00  0.00    +0.120 C 
BRANCH  14  16
ATOM      2  F   UNL     1      -4.458  -3.961  23.905  0.00  0.00    -0.205 F 
ATOM     16  C   UNL     1      -1.797  -1.177  25.390  0.00  0.00    -0.033 A 
ATOM     18  C   UNL     1      -1.372  -2.116  24.452  0.00  0.00    +0.008 A 
ATOM     19  C   UNL     1      -3.122  -1.176  25.827  0.00  0.00    +0.008 A 
ATOM     21  C   UNL     1      -2.271  -3.057  23.950  0.00  0.00    +0.038 A 
ATOM     22  C   UNL     1      -4.021  -2.117  25.325  0.00  0.00    +0.038 A 
ATOM     24  C   UNL     1      -3.596  -3.058  24.386  0.00  0.00    +0.123 A 
ENDBRANCH  14  16
ENDBRANCH   7  14
ENDBRANCH  15  10
BRANCH  17  20
ATOM     20  C   UNL     1      -3.955   4.515  26.741  0.00  0.00    +0.251 C 
BRANCH  20   1
ATOM      1  S   UNL     1      -5.227   3.688  25.826  0.00  0.00    +0.004 S 
ATOM      5  O   UNL     1      -6.128   4.703  25.314  0.00  0.00    -0.169 OA
ATOM      6  O   UNL     1      -5.733   2.591  26.629  0.00  0.00    -0.169 OA
BRANCH   1  23
ATOM     23  C   UNL     1      -4.367   2.976  24.456  0.00  0.00    +0.089 A 
ATOM     25  C   UNL     1      -4.115   1.604  24.429  0.00  0.00    +0.027 A 
ATOM     26  C   UNL     1      -3.937   3.786  23.405  0.00  0.00    +0.027 A 
ATOM     27  C   UNL     1      -3.434   1.041  23.349  0.00  0.00    +0.005 A 
ATOM     28  C   UNL     1      -3.256   3.223  22.325  0.00  0.00    +0.005 A 
ATOM     29  C   UNL     1      -3.005   1.851  22.298  0.00  0.00    -0.050 A 
ATOM     30  C   UNL     1      -2.277   1.249  21.143  0.00  0.00    +0.044 C 
ENDBRANCH   1  23
ENDBRANCH  20   1
ENDBRANCH  17  20
TORSDOF 7
ENDMDL
MODEL 3
REMARK VINA RESULT:      -1.4      2.817      7.050
REMARK  Name = 26744016
REMARK  8 active torsions:
REMARK  status: ('A' for Active; 'I' for Inactive)
REMARK    1  A    between atoms: S_1  and  C_20
REMARK    2  A    between atoms: S_1  and  C_23
REMARK    3  A    between atoms: O_3  and  C_12
REMARK    4  A    between atoms: N_7  and  C_14
REMARK    5  A    between atoms: C_10  and  C_15
REMARK    6  A    between atoms: C_14  and  C_16
REMARK    7  A    between atoms: C_17  and  C_20
REMARK    8  A    between atoms: C_29  and  C_30
REMARK                            x       y       z     vdW  Elec       q    Type
REMARK                         _______ _______ _______ _____ _____    ______ ____
ROOT
ATOM      4  O   UNL     1      -2.502  -1.429  25.181  0.00  0.00    -0.336 OA
ATOM      8  N   UNL     1      -3.117   0.645  24.600  0.00  0.00    -0.193 NA
ATOM      9  N   UNL     1      -3.866  -1.500  24.870  0.00  0.00    -0.060 NA
ATOM     15  C   UNL     1      -2.141  -0.132  24.995  0.00  0.00    +0.245 A 
ATOM     17  C   UNL     1      -4.155  -0.238  24.538  0.00  0.00    +0.193 A 
ENDROOT
BRANCH  15  10
ATOM      7  N   UNL     1      -0.059   0.935  24.146  0.00  0.00    -0.285 NA
ATOM     10  C   UNL     1      -0.691   0.211  25.267  0.00  0.00    +0.149 C 
ATOM     11  C   UNL     1      -0.516   1.138  26.484  0.00  0.00    +0.061 C 
ATOM     12  C   UNL     1       0.265   2.336  25.958  0.00  0.00    +0.130 C 
ATOM     13  C   UNL     1       0.974   1.788  24.733  0.00  0.00    +0.116 C 
BRANCH  12   3
ATOM      3  O   UNL     1       1.181   2.804  26.929  0.00  0.00    -0.390 OA
ATOM     31  H   UNL     1       1.894   2.147  26.998  0.00  0.00    +0.210 HD
ENDBRANCH  12   3
BRANCH   7  14
ATOM     14  C   UNL     1       0.480   0.051  23.121  0.00  0.00    +0.120 C 
BRANCH  14  16
ATOM      2  F   UNL     1       6.111  -0.084  23.215  0.00  0.00    -0.205 F 
ATOM     16  C   UNL     1       1.985   0.014  23.146  0.00  0.00    -0.033 A 
ATOM     18  C   UNL     1       2.648  -1.126  23.599  0.00  0.00    +0.008 A 
ATOM     19  C   UNL     1       2.716   1.123  22.717  0.00  0.00    +0.008 A 
ATOM     21  C   UNL     1       4.042  -1.159  23.622  0.00  0.00    +0.038 A 
ATOM     22  C   UNL     1       4.110   1.089  22.740  0.00  0.00    +0.038 A 
ATOM     24  C   UNL     1       4.773  -0.052  23.193  0.00  0.00    +0.123 A 
ENDBRANCH  14  16
ENDBRANCH   7  14
ENDBRANCH  15  10
BRANCH  17  20
ATOM     20  C   UNL     1      -5.505   0.168  24.129  0.00  0.00    +0.251 C 
BRANCH  20   1
ATOM      1  S   UNL     1      -6.027   1.514  25.155  0.00  0.00    +0.004 S 
ATOM      5  O   UNL     1      -6.129   1.015  26.514  0.00  0.00    -0.169 OA
ATOM      6  O   UNL     1      -7.159   2.164  24.523  0.00  0.00    -0.169 OA
BRANCH   1  23
ATOM     23  C   UNL     1      -4.673   2.648  25.087  0.00  0.00    +0.089 A 
ATOM     25  C   UNL     1      -4.098   3.118  26.268  0.00  0.00    +0.027 A 
ATOM     26  C   UNL     1      -4.182   3.074  23.853  0.00  0.00    +0.027 A 
ATOM     27  C   UNL     1      -3.029   4.014  26.215  0.00  0.00    +0.005 A 
ATOM     28  C   UNL     1      -3.115   3.972  23.799  0.00  0.00    +0.005 A 
ATOM     29  C   UNL     1      -2.539   4.441  24.981  0.00  0.00    -0.050 A 
ATOM     30  C   UNL     1      -1.398   5.399  24.924  0.00  0.00    +0.044 C 
ENDBRANCH   1  23
ENDBRANCH  20   1
ENDBRANCH  17  20
TORSDOF 7
ENDMDL
MODEL 4
REMARK VINA RESULT:      -0.9      2.802      3.987
REMARK  Name = 26744016
REMARK  8 active torsions:
REMARK  status: ('A' for Active; 'I' for Inactive)
REMARK    1  A    between atoms: S_1  and  C_20
REMARK    2  A    between atoms: S_1  and  C_23
REMARK    3  A    between atoms: O_3  and  C_12
REMARK    4  A    between atoms: N_7  and  C_14
REMARK    5  A    between atoms: C_10  and  C_15
REMARK    6  A    between atoms: C_14  and  C_16
REMARK    7  A    between atoms: C_17  and  C_20
REMARK    8  A    between atoms: C_29  and  C_30
REMARK                            x       y       z     vdW  Elec       q    Type
REMARK                         _______ _______ _______ _____ _____    ______ ____
ROOT
ATOM      4  O   UNL     1      -3.343   2.393  22.018  0.00  0.00    -0.336 OA
ATOM      8  N   UNL     1      -2.533   1.180  23.717  0.00  0.00    -0.193 NA
ATOM      9  N   UNL     1      -2.082   1.943  21.608  0.00  0.00    -0.060 NA
ATOM     15  C   UNL     1      -3.530   1.900  23.270  0.00  0.00    +0.245 A 
ATOM     17  C   UNL     1      -1.668   1.235  22.664  0.00  0.00    +0.193 A 
ENDROOT
BRANCH  15  10
ATOM      7  N   UNL     1      -4.955   1.669  25.298  0.00  0.00    -0.285 NA
ATOM     10  C   UNL     1      -4.840   2.248  23.944  0.00  0.00    +0.149 C 
ATOM     11  C   UNL     1      -5.021   3.764  24.147  0.00  0.00    +0.061 C 
ATOM     12  C   UNL     1      -5.277   3.934  25.638  0.00  0.00    +0.130 C 
ATOM     13  C   UNL     1      -5.805   2.578  26.066  0.00  0.00    +0.116 C 
BRANCH  12   3
ATOM      3  O   UNL     1      -6.220   4.962  25.872  0.00  0.00    -0.390 OA
ATOM     31  H   UNL     1      -7.100   4.603  25.670  0.00  0.00    +0.210 HD
ENDBRANCH  12   3
BRANCH   7  14
ATOM     14  C   UNL     1      -5.469   0.306  25.299  0.00  0.00    +0.120 C 
BRANCH  14  16
ATOM      2  F   UNL     1      -1.379  -3.482  24.483  0.00  0.00    -0.205 F 
ATOM     16  C   UNL     1      -4.375  -0.706  25.082  0.00  0.00    -0.033 A 
ATOM     18  C   UNL     1      -3.287  -0.756  25.951  0.00  0.00    +0.008 A 
ATOM     19  C   UNL     1      -4.452  -1.594  24.008  0.00  0.00    +0.008 A 
ATOM     21  C   UNL     1      -2.275  -1.693  25.749  0.00  0.00    +0.038 A 
ATOM     22  C   UNL     1      -3.440  -2.531  23.806  0.00  0.00    +0.038 A 
ATOM     24  C   UNL     1      -2.350  -2.581  24.676  0.00  0.00    +0.123 A 
ENDBRANCH  14  16
ENDBRANCH   7  14
ENDBRANCH  15  10
BRANCH  17  20
ATOM     20  C   UNL     1      -0.366   0.559  22.683  0.00  0.00    +0.251 C 
BRANCH  20   1
ATOM      1  S   UNL     1       0.527   1.090  24.119  0.00  0.00    +0.004 S 
ATOM      5  O   UNL     1       1.883   1.394  23.703  0.00  0.00    -0.169 OA
ATOM      6  O   UNL     1       0.280   0.144  25.191  0.00  0.00    -0.169 OA
BRANCH   1  23
ATOM     23  C   UNL     1      -0.262   2.605  24.570  0.00  0.00    +0.089 A 
ATOM     25  C   UNL     1      -1.112   2.646  25.676  0.00  0.00    +0.027 A 
ATOM     26  C   UNL     1      -0.038   3.759  23.819  0.00  0.00    +0.027 A 
ATOM     27  C   UNL     1      -1.737   3.842  26.032  0.00  0.00    +0.005 A 
ATOM     28  C   UNL     1      -0.663   4.955  24.174  0.00  0.00    +0.005 A 
ATOM     29  C   UNL     1      -1.512   4.995  25.280  0.00  0.00    -0.050 A 
ATOM     30  C   UNL     1      -2.180   6.273  25.661  0.00  0.00    +0.044 C 
ENDBRANCH   1  23
ENDBRANCH  20   1
ENDBRANCH  17  20
TORSDOF 7
ENDMDL
MODEL 5
REMARK VINA RESULT:      -0.7      2.669      7.060
REMARK  Name = 26744016
REMARK  8 active torsions:
REMARK  status: ('A' for Active; 'I' for Inactive)
REMARK    1  A    between atoms: S_1  and  C_20
REMARK    2  A    between atoms: S_1  and  C_23
REMARK    3  A    between atoms: O_3  and  C_12
REMARK    4  A    between atoms: N_7  and  C_14
REMARK    5  A    between atoms: C_10  and  C_15
REMARK    6  A    between atoms: C_14  and  C_16
REMARK    7  A    between atoms: C_17  and  C_20
REMARK    8  A    between atoms: C_29  and  C_30
REMARK                            x       y       z     vdW  Elec       q    Type
REMARK                         _______ _______ _______ _____ _____    ______ ____
ROOT
ATOM      4  O   UNL     1      -0.303   2.230  26.166  0.00  0.00    -0.336 OA
ATOM      8  N   UNL     1      -0.611   2.940  24.064  0.00  0.00    -0.193 NA
ATOM      9  N   UNL     1      -1.195   3.307  26.245  0.00  0.00    -0.060 NA
ATOM     15  C   UNL     1      -0.009   2.082  24.847  0.00  0.00    +0.245 A 
ATOM     17  C   UNL     1      -1.326   3.672  24.966  0.00  0.00    +0.193 A 
ENDROOT
BRANCH  15  10
ATOM      7  N   UNL     1       0.269  -0.192  23.874  0.00  0.00    -0.285 NA
ATOM     10  C   UNL     1       0.949   0.965  24.490  0.00  0.00    +0.149 C 
ATOM     11  C   UNL     1       2.008   1.395  23.458  0.00  0.00    +0.061 C 
ATOM     12  C   UNL     1       1.877   0.394  22.318  0.00  0.00    +0.130 C 
ATOM     13  C   UNL     1       1.242  -0.816  22.979  0.00  0.00    +0.116 C 
BRANCH  12   3
ATOM      3  O   UNL     1       3.145   0.088  21.771  0.00  0.00    -0.390 OA
ATOM     31  H   UNL     1       3.802   0.637  22.231  0.00  0.00    +0.210 HD
ENDBRANCH  12   3
BRANCH   7  14
ATOM     14  C   UNL     1      -0.259  -1.136  24.850  0.00  0.00    +0.120 C 
BRANCH  14  16
ATOM      2  F   UNL     1      -5.556  -2.644  23.662  0.00  0.00    -0.205 F 
ATOM     16  C   UNL     1      -1.675  -1.539  24.533  0.00  0.00    -0.033 A 
ATOM     18  C   UNL     1      -2.631  -0.564  24.253  0.00  0.00    +0.008 A 
ATOM     19  C   UNL     1      -2.029  -2.888  24.519  0.00  0.00    +0.008 A 
ATOM     21  C   UNL     1      -3.942  -0.937  23.958  0.00  0.00    +0.038 A 
ATOM     22  C   UNL     1      -3.340  -3.261  24.225  0.00  0.00    +0.038 A 
ATOM     24  C   UNL     1      -4.297  -2.286  23.945  0.00  0.00    +0.123 A 
ENDBRANCH  14  16
ENDBRANCH   7  14
ENDBRANCH  15  10
BRANCH  17  20
ATOM     20  C   UNL     1      -2.189   4.787  24.561  0.00  0.00    +0.251 C 
BRANCH  20   1
ATOM      1  S   UNL     1      -3.495   4.154  23.545  0.00  0.00    +0.004 S 
ATOM      5  O   UNL     1      -2.914   3.180  22.641  0.00  0.00    -0.169 OA
ATOM      6  O   UNL     1      -4.262   5.272  23.029  0.00  0.00    -0.169 OA
BRANCH   1  23
ATOM     23  C   UNL     1      -4.536   3.292  24.684  0.00  0.00    +0.089 A 
ATOM     25  C   UNL     1      -4.758   3.816  25.958  0.00  0.00    +0.027 A 
ATOM     26  C   UNL     1      -5.132   2.088  24.310  0.00  0.00    +0.027 A 
ATOM     27  C   UNL     1      -5.579   3.135  26.859  0.00  0.00    +0.005 A 
ATOM     28  C   UNL     1      -5.951   1.406  25.211  0.00  0.00    +0.005 A 
ATOM     29  C   UNL     1      -6.174   1.930  26.485  0.00  0.00    -0.050 A 
ATOM     30  C   UNL     1      -7.051   1.203  27.447  0.00  0.00    +0.044 C 
ENDBRANCH   1  23
ENDBRANCH  20   1
ENDBRANCH  17  20
TORSDOF 7
ENDMDL
MODEL 6
REMARK VINA RESULT:      -0.2      2.724      7.165
REMARK  Name = 26744016
REMARK  8 active torsions:
REMARK  status: ('A' for Active; 'I' for Inactive)
REMARK    1  A    between atoms: S_1  and  C_20
REMARK    2  A    between atoms: S_1  and  C_23
REMARK    3  A    between atoms: O_3  and  C_12
REMARK    4  A    between atoms: N_7  and  C_14
REMARK    5  A    between atoms: C_10  and  C_15
REMARK    6  A    between atoms: C_14  and  C_16
REMARK    7  A    between atoms: C_17  and  C_20
REMARK    8  A    between atoms: C_29  and  C_30
REMARK                            x       y       z     vdW  Elec       q    Type
REMARK                         _______ _______ _______ _____ _____    ______ ____
ROOT
ATOM      4  O   UNL     1      -0.542   0.979  26.138  0.00  0.00    -0.336 OA
ATOM      8  N   UNL     1      -0.648   2.421  24.427  0.00  0.00    -0.193 NA
ATOM      9  N   UNL     1      -0.254   2.241  26.673  0.00  0.00    -0.060 NA
ATOM     15  C   UNL     1      -0.761   1.175  24.811  0.00  0.00    +0.245 A 
ATOM     17  C   UNL     1      -0.336   3.037  25.602  0.00  0.00    +0.193 A 
ENDROOT
BRANCH  15  10
ATOM      7  N   UNL     1       0.074  -0.918  23.753  0.00  0.00    -0.285 NA
ATOM     10  C   UNL     1      -1.100  -0.055  23.995  0.00  0.00    +0.149 C 
ATOM     11  C   UNL     1      -2.125  -0.969  24.692  0.00  0.00    +0.061 C 
ATOM     12  C   UNL     1      -1.455  -2.335  24.756  0.00  0.00    +0.130 C 
ATOM     13  C   UNL     1      -0.434  -2.284  23.634  0.00  0.00    +0.116 C 
BRANCH  12   3
ATOM      3  O   UNL     1      -2.401  -3.368  24.559  0.00  0.00    -0.390 OA
ATOM     31  H   UNL     1      -3.221  -2.956  24.239  0.00  0.00    +0.210 HD
ENDBRANCH  12   3
BRANCH   7  14
ATOM     14  C   UNL     1       0.850  -0.520  22.587  0.00  0.00    +0.120 C 
BRANCH  14  16
ATOM      2  F   UNL     1       6.320   0.064  23.807  0.00  0.00    -0.205 F 
ATOM     16  C   UNL     1       2.312  -0.363  22.913  0.00  0.00    -0.033 A 
ATOM     18  C   UNL     1       2.973   0.825  22.602  0.00  0.00    +0.008 A 
ATOM     19  C   UNL     1       3.005  -1.408  23.526  0.00  0.00    +0.008 A 
ATOM     21  C   UNL     1       4.327   0.969  22.904  0.00  0.00    +0.038 A 
ATOM     22  C   UNL     1       4.358  -1.263  23.827  0.00  0.00    +0.038 A 
ATOM     24  C   UNL     1       5.020  -0.075  23.516  0.00  0.00    +0.123 A 
ENDBRANCH  14  16
ENDBRANCH   7  14
ENDBRANCH  15  10
BRANCH  17  20
ATOM     20  C   UNL     1      -0.106   4.484  25.691  0.00  0.00    +0.251 C 
BRANCH  20   1
ATOM      1  S   UNL     1      -1.320   5.313  24.703  0.00  0.00    +0.004 S 
ATOM      5  O   UNL     1      -0.858   5.286  23.328  0.00  0.00    -0.169 OA
ATOM      6  O   UNL     1      -1.655   6.571  25.342  0.00  0.00    -0.169 OA
BRANCH   1  23
ATOM     23  C   UNL     1      -2.744   4.273  24.823  0.00  0.00    +0.089 A 
ATOM     25  C   UNL     1      -3.382   4.105  26.052  0.00  0.00    +0.027 A 
ATOM     26  C   UNL     1      -3.227   3.618  23.690  0.00  0.00    +0.027 A 
ATOM     27  C   UNL     1      -4.505   3.283  26.149  0.00  0.00    +0.005 A 
ATOM     28  C   UNL     1      -4.349   2.794  23.787  0.00  0.00    +0.005 A 
ATOM     29  C   UNL     1      -4.988   2.628  25.016  0.00  0.00    -0.050 A 
ATOM     30  C   UNL     1      -6.188   1.749  25.119  0.00  0.00    +0.044 C 
ENDBRANCH   1  23
ENDBRANCH  20   1
ENDBRANCH  17  20
TORSDOF 7
ENDMDL
MODEL 7
REMARK VINA RESULT:      -0.2      2.856      7.008
REMARK  Name = 26744016
REMARK  8 active torsions:
REMARK  status: ('A' for Active; 'I' for Inactive)
REMARK    1  A    between atoms: S_1  and  C_20
REMARK    2  A    between atoms: S_1  and  C_23
REMARK    3  A    between atoms: O_3  and  C_12
REMARK    4  A    between atoms: N_7  and  C_14
REMARK    5  A    between atoms: C_10  and  C_15
REMARK    6  A    between atoms: C_14  and  C_16
REMARK    7  A    between atoms: C_17  and  C_20
REMARK    8  A    between atoms: C_29  and  C_30
REMARK                            x       y       z     vdW  Elec       q    Type
REMARK                         _______ _______ _______ _____ _____    ______ ____
ROOT
ATOM      4  O   UNL     1      -4.076  -0.750  25.657  0.00  0.00    -0.336 OA
ATOM      8  N   UNL     1      -4.014   0.847  24.088  0.00  0.00    -0.193 NA
ATOM      9  N   UNL     1      -5.215   0.041  25.860  0.00  0.00    -0.060 NA
ATOM     15  C   UNL     1      -3.425  -0.206  24.596  0.00  0.00    +0.245 A 
ATOM     17  C   UNL     1      -5.106   0.961  24.896  0.00  0.00    +0.193 A 
ENDROOT
BRANCH  15  10
ATOM      7  N   UNL     1      -0.938  -0.125  24.545  0.00  0.00    -0.285 NA
ATOM     10  C   UNL     1      -2.144  -0.890  24.167  0.00  0.00    +0.149 C 
ATOM     11  C   UNL     1      -1.958  -2.271  24.823  0.00  0.00    +0.061 C 
ATOM     12  C   UNL     1      -0.599  -2.201  25.508  0.00  0.00    +0.130 C 
ATOM     13  C   UNL     1       0.127  -1.107  24.748  0.00  0.00    +0.116 C 
BRANCH  12   3
ATOM      3  O   UNL     1       0.075  -3.442  25.414  0.00  0.00    -0.390 OA
ATOM     31  H   UNL     1      -0.601  -4.139  25.371  0.00  0.00    +0.210 HD
ENDBRANCH  12   3
BRANCH   7  14
ATOM     14  C   UNL     1      -0.569   0.888  23.566  0.00  0.00    +0.120 C 
BRANCH  14  16
ATOM      2  F   UNL     1       4.778   0.327  21.880  0.00  0.00    -0.205 F 
ATOM     16  C   UNL     1       0.860   0.738  23.115  0.00  0.00    -0.033 A 
ATOM     18  C   UNL     1       1.192  -0.219  22.157  0.00  0.00    +0.008 A 
ATOM     19  C   UNL     1       1.851   1.557  23.657  0.00  0.00    +0.008 A 
ATOM     21  C   UNL     1       2.515  -0.358  21.740  0.00  0.00    +0.038 A 
ATOM     22  C   UNL     1       3.174   1.418  23.239  0.00  0.00    +0.038 A 
ATOM     24  C   UNL     1       3.507   0.460  22.281  0.00  0.00    +0.123 A 
ENDBRANCH  14  16
ENDBRANCH   7  14
ENDBRANCH  15  10
BRANCH  17  20
ATOM     20  C   UNL     1      -6.104   2.023  24.721  0.00  0.00    +0.251 C 
BRANCH  20   1
ATOM      1  S   UNL     1      -5.730   3.342  25.842  0.00  0.00    +0.004 S 
ATOM      5  O   UNL     1      -5.797   2.804  27.188  0.00  0.00    -0.169 OA
ATOM      6  O   UNL     1      -6.522   4.500  25.472  0.00  0.00    -0.169 OA
BRANCH   1  23
ATOM     23  C   UNL     1      -4.043   3.731  25.490  0.00  0.00    +0.089 A 
ATOM     25  C   UNL     1      -3.692   4.240  24.239  0.00  0.00    +0.027 A 
ATOM     26  C   UNL     1      -3.063   3.526  26.461  0.00  0.00    +0.027 A 
ATOM     27  C   UNL     1      -2.359   4.545  23.959  0.00  0.00    +0.005 A 
ATOM     28  C   UNL     1      -1.730   3.831  26.181  0.00  0.00    +0.005 A 
ATOM     29  C   UNL     1      -1.379   4.340  24.930  0.00  0.00    -0.050 A 
ATOM     30  C   UNL     1       0.045   4.667  24.632  0.00  0.00    +0.044 C 
ENDBRANCH   1  23
ENDBRANCH  20   1
ENDBRANCH  17  20
TORSDOF 7
ENDMDL
MODEL 8
REMARK VINA RESULT:      -0.0      2.666      4.137
REMARK  Name = 26744016
REMARK  8 active torsions:
REMARK  status: ('A' for Active; 'I' for Inactive)
REMARK    1  A    between atoms: S_1  and  C_20
REMARK    2  A    between atoms: S_1  and  C_23
REMARK    3  A    between atoms: O_3  and  C_12
REMARK    4  A    between atoms: N_7  and  C_14
REMARK    5  A    between atoms: C_10  and  C_15
REMARK    6  A    between atoms: C_14  and  C_16
REMARK    7  A    between atoms: C_17  and  C_20
REMARK    8  A    between atoms: C_29  and  C_30
REMARK                            x       y       z     vdW  Elec       q    Type
REMARK                         _______ _______ _______ _____ _____    ______ ____
ROOT
ATOM      4  O   UNL     1      -3.429  -1.373  24.475  0.00  0.00    -0.336 OA
ATOM      8  N   UNL     1      -1.870   0.091  25.141  0.00  0.00    -0.193 NA
ATOM      9  N   UNL     1      -2.194  -1.925  24.109  0.00  0.00    -0.060 NA
ATOM     15  C   UNL     1      -3.147  -0.187  25.075  0.00  0.00    +0.245 A 
ATOM     17  C   UNL     1      -1.325  -1.003  24.535  0.00  0.00    +0.193 A 
ENDROOT
BRANCH  15  10
ATOM      7  N   UNL     1      -4.179   2.064  25.324  0.00  0.00    -0.285 NA
ATOM     10  C   UNL     1      -4.331   0.616  25.571  0.00  0.00    +0.149 C 
ATOM     11  C   UNL     1      -5.647   0.232  24.870  0.00  0.00    +0.061 C 
ATOM     12  C   UNL     1      -6.184   1.538  24.297  0.00  0.00    +0.130 C 
ATOM     13  C   UNL     1      -5.530   2.601  25.161  0.00  0.00    +0.116 C 
BRANCH  12   3
ATOM      3  O   UNL     1      -7.595   1.584  24.388  0.00  0.00    -0.390 OA
ATOM     31  H   UNL     1      -7.941   1.697  23.487  0.00  0.00    +0.210 HD
ENDBRANCH  12   3
BRANCH   7  14
ATOM     14  C   UNL     1      -3.440   2.753  26.375  0.00  0.00    +0.120 C 
BRANCH  14  16
ATOM      2  F   UNL     1       0.534   6.145  24.268  0.00  0.00    -0.205 F 
ATOM     16  C   UNL     1      -2.379   3.660  25.812  0.00  0.00    -0.033 A 
ATOM     18  C   UNL     1      -2.697   4.969  25.455  0.00  0.00    +0.008 A 
ATOM     19  C   UNL     1      -1.076   3.189  25.648  0.00  0.00    +0.008 A 
ATOM     21  C   UNL     1      -1.713   5.809  24.933  0.00  0.00    +0.038 A 
ATOM     22  C   UNL     1      -0.092   4.028  25.126  0.00  0.00    +0.038 A 
ATOM     24  C   UNL     1      -0.411   5.339  24.768  0.00  0.00    +0.123 A 
ENDBRANCH  14  16
ENDBRANCH   7  14
ENDBRANCH  15  10
BRANCH  17  20
ATOM     20  C   UNL     1       0.123  -1.163  24.363  0.00  0.00    +0.251 C 
BRANCH  20   1
ATOM      1  S   UNL     1       0.663  -0.080  23.069  0.00  0.00    +0.004 S 
ATOM      5  O   UNL     1       0.218   1.260  23.406  0.00  0.00    -0.169 OA
ATOM      6  O   UNL     1       0.311  -0.674  21.793  0.00  0.00    -0.169 OA
BRANCH   1  23
ATOM     23  C   UNL     1       2.425  -0.120  23.192  0.00  0.00    +0.089 A 
ATOM     25  C   UNL     1       3.176   0.989  22.803  0.00  0.00    +0.027 A 
ATOM     26  C   UNL     1       3.065  -1.262  23.675  0.00  0.00    +0.027 A 
ATOM     27  C   UNL     1       4.568   0.957  22.898  0.00  0.00    +0.005 A 
ATOM     28  C   UNL     1       4.456  -1.295  23.769  0.00  0.00    +0.005 A 
ATOM     29  C   UNL     1       5.207  -0.185  23.381  0.00  0.00    -0.050 A 
ATOM     30  C   UNL     1       6.695  -0.219  23.482  0.00  0.00    +0.044 C 
ENDBRANCH   1  23
ENDBRANCH  20   1
ENDBRANCH  17  20
TORSDOF 7
ENDMDL
