MODEL 1
REMARK VINA RESULT:       5.7      0.000      0.000
REMARK  Name = 51136636
REMARK  12 active torsions:
REMARK  status: ('A' for Active; 'I' for Inactive)
REMARK    1  A    between atoms: S_1  and  N_8
REMARK    2  A    between atoms: S_1  and  C_21
REMARK    3  A    between atoms: O_4  and  C_19
REMARK    4  A    between atoms: O_6  and  C_29
REMARK    5  A    between atoms: O_6  and  C_35
REMARK    6  A    between atoms: O_7  and  C_30
REMARK    7  A    between atoms: O_7  and  C_36
REMARK    8  A    between atoms: C_11  and  C_16
REMARK    9  A    between atoms: C_12  and  C_17
REMARK   10  A    between atoms: C_16  and  C_18
REMARK   11  A    between atoms: C_17  and  C_19
REMARK   12  A    between atoms: C_31  and  C_34
REMARK                            x       y       z     vdW  Elec       q    Type
REMARK                         _______ _______ _______ _____ _____    ______ ____
ROOT
ATOM      8  N   UNL     1       1.387   0.009  23.400  0.00  0.00    -0.176 NA
ATOM     11  C   UNL     1      -0.949   0.253  24.213  0.00  0.00    +0.014 C 
ATOM     12  C   UNL     1      -0.975  -1.263  24.526  0.00  0.00    +0.006 C 
ATOM     13  C   UNL     1       0.029   0.531  23.060  0.00  0.00    +0.113 C 
ATOM     14  C   UNL     1       0.439  -1.810  24.772  0.00  0.00    +0.021 C 
ATOM     15  C   UNL     1       1.380  -1.466  23.621  0.00  0.00    +0.110 C 
ENDROOT
BRANCH   8   1
ATOM      1  S   UNL     1       2.663   0.597  22.419  0.00  0.00    +0.061 S 
ATOM      2  O   UNL     1       2.871   2.000  22.709  0.00  0.00    -0.153 OA
ATOM      3  O   UNL     1       2.462   0.137  21.062  0.00  0.00    -0.153 OA
BRANCH   1  21
ATOM     21  C   UNL     1       4.018  -0.304  23.104  0.00  0.00    +0.107 A 
ATOM     26  C   UNL     1       5.323   0.146  22.911  0.00  0.00    +0.047 A 
ATOM     27  C   UNL     1       3.781  -1.467  23.838  0.00  0.00    +0.028 A 
ATOM     31  C   UNL     1       6.394  -0.567  23.453  0.00  0.00    +0.054 A 
ATOM     32  C   UNL     1       4.852  -2.179  24.380  0.00  0.00    +0.003 A 
ATOM     33  C   UNL     1       6.157  -1.729  24.187  0.00  0.00    +0.019 A 
BRANCH  31  34
ATOM     10  N   UNL     1       8.819   0.268  23.094  0.00  0.00    -0.191 NA
ATOM     34  C   UNL     1       7.732  -0.107  23.256  0.00  0.00    +0.099 C 
ENDBRANCH  31  34
ENDBRANCH   1  21
ENDBRANCH   8   1
BRANCH  11  16
ATOM     16  C   UNL     1      -0.620   1.135  25.423  0.00  0.00    +0.060 C 
BRANCH  16  18
ATOM      9  N   UNL     1      -0.053   3.388  24.812  0.00  0.00    -0.287 NA
ATOM     18  C   UNL     1      -0.999   2.567  25.131  0.00  0.00    +0.044 C 
ATOM     20  C   UNL     1      -2.427   2.964  25.230  0.00  0.00    +0.003 A 
ATOM     22  C   UNL     1      -2.695   4.335  25.338  0.00  0.00    -0.033 A 
ATOM     23  C   UNL     1      -1.543   5.294  25.361  0.00  0.00    +0.059 C 
ATOM     24  C   UNL     1      -0.429   4.763  24.469  0.00  0.00    +0.146 C 
ATOM     25  C   UNL     1      -3.470   2.036  25.232  0.00  0.00    +0.059 A 
ATOM     28  C   UNL     1      -4.017   4.770  25.475  0.00  0.00    +0.053 A 
ATOM     29  C   UNL     1      -4.786   2.482  25.354  0.00  0.00    +0.162 A 
ATOM     30  C   UNL     1      -5.059   3.844  25.478  0.00  0.00    +0.162 A 
BRANCH  29   6
ATOM      6  O   UNL     1      -5.803   1.572  25.355  0.00  0.00    -0.491 OA
ATOM     35  C   UNL     1      -6.573   1.464  26.549  0.00  0.00    +0.277 C 
ENDBRANCH  29   6
BRANCH  30   7
ATOM      7  O   UNL     1      -6.343   4.283  25.604  0.00  0.00    -0.491 OA
ATOM     36  C   UNL     1      -6.583   5.666  25.351  0.00  0.00    +0.277 C 
ENDBRANCH  30   7
ENDBRANCH  16  18
ENDBRANCH  11  16
BRANCH  12  17
ATOM     17  C   UNL     1      -1.901  -1.621  25.688  0.00  0.00    +0.124 C 
BRANCH  17  19
ATOM      5  O   UNL     1      -3.588  -2.987  24.579  0.00  0.00    -0.251 OA
ATOM     19  C   UNL     1      -3.278  -1.987  25.207  0.00  0.00    +0.305 C 
BRANCH  19   4
ATOM      4  O   UNL     1      -4.163  -1.025  25.577  0.00  0.00    -0.481 OA
ATOM     37  H   UNL     1      -4.325  -0.380  24.856  0.00  0.00    +0.295 HD
ENDBRANCH  19   4
ENDBRANCH  17  19
ENDBRANCH  12  17
TORSDOF 10
ENDMDL
MODEL 2
REMARK VINA RESULT:       6.2      2.699      6.758
REMARK  Name = 51136636
REMARK  12 active torsions:
REMARK  status: ('A' for Active; 'I' for Inactive)
REMARK    1  A    between atoms: S_1  and  N_8
REMARK    2  A    between atoms: S_1  and  C_21
REMARK    3  A    between atoms: O_4  and  C_19
REMARK    4  A    between atoms: O_6  and  C_29
REMARK    5  A    between atoms: O_6  and  C_35
REMARK    6  A    between atoms: O_7  and  C_30
REMARK    7  A    between atoms: O_7  and  C_36
REMARK    8  A    between atoms: C_11  and  C_16
REMARK    9  A    between atoms: C_12  and  C_17
REMARK   10  A    between atoms: C_16  and  C_18
REMARK   11  A    between atoms: C_17  and  C_19
REMARK   12  A    between atoms: C_31  and  C_34
REMARK                            x       y       z     vdW  Elec       q    Type
REMARK                         _______ _______ _______ _____ _____    ______ ____
ROOT
ATOM      8  N   UNL     1      -1.169  -1.198  24.181  0.00  0.00    -0.176 NA
ATOM     11  C   UNL     1       0.903   0.173  24.110  0.00  0.00    +0.014 C 
ATOM     12  C   UNL     1       1.403  -0.684  22.922  0.00  0.00    +0.006 C 
ATOM     13  C   UNL     1      -0.037  -0.660  24.995  0.00  0.00    +0.113 C 
ATOM     14  C   UNL     1       0.232  -1.316  22.154  0.00  0.00    +0.021 C 
ATOM     15  C   UNL     1      -0.695  -2.090  23.086  0.00  0.00    +0.110 C 
ENDROOT
BRANCH   8   1
ATOM      1  S   UNL     1      -2.503  -1.786  25.081  0.00  0.00    +0.061 S 
ATOM      2  O   UNL     1      -2.156  -1.792  26.487  0.00  0.00    -0.153 OA
ATOM      3  O   UNL     1      -3.017  -2.974  24.435  0.00  0.00    -0.153 OA
BRANCH   1  21
ATOM     21  C   UNL     1      -3.656  -0.478  24.813  0.00  0.00    +0.107 A 
ATOM     26  C   UNL     1      -4.541  -0.110  25.827  0.00  0.00    +0.047 A 
ATOM     27  C   UNL     1      -3.683   0.187  23.588  0.00  0.00    +0.028 A 
ATOM     31  C   UNL     1      -5.453   0.925  25.614  0.00  0.00    +0.054 A 
ATOM     32  C   UNL     1      -4.595   1.222  23.375  0.00  0.00    +0.003 A 
ATOM     33  C   UNL     1      -5.480   1.590  24.389  0.00  0.00    +0.019 A 
BRANCH  31  34
ATOM     10  N   UNL     1      -7.096   1.609  27.495  0.00  0.00    -0.191 NA
ATOM     34  C   UNL     1      -6.360   1.303  26.652  0.00  0.00    +0.099 C 
ENDBRANCH  31  34
ENDBRANCH   1  21
ENDBRANCH   8   1
BRANCH  11  16
ATOM     16  C   UNL     1       0.229   1.486  23.694  0.00  0.00    +0.060 C 
BRANCH  16  18
ATOM      9  N   UNL     1       0.656   2.250  25.930  0.00  0.00    -0.287 NA
ATOM     18  C   UNL     1      -0.151   2.278  24.921  0.00  0.00    +0.044 C 
ATOM     20  C   UNL     1      -1.426   3.040  24.914  0.00  0.00    +0.003 A 
ATOM     22  C   UNL     1      -1.933   3.433  26.160  0.00  0.00    -0.033 A 
ATOM     23  C   UNL     1      -1.177   3.052  27.398  0.00  0.00    +0.059 C 
ATOM     24  C   UNL     1       0.316   3.068  27.100  0.00  0.00    +0.146 C 
ATOM     25  C   UNL     1      -2.113   3.351  23.740  0.00  0.00    +0.059 A 
ATOM     28  C   UNL     1      -3.150   4.118  26.225  0.00  0.00    +0.053 A 
ATOM     29  C   UNL     1      -3.319   4.049  23.814  0.00  0.00    +0.162 A 
ATOM     30  C   UNL     1      -3.838   4.429  25.052  0.00  0.00    +0.162 A 
BRANCH  29   6
ATOM      6  O   UNL     1      -3.988   4.352  22.664  0.00  0.00    -0.491 OA
ATOM     35  C   UNL     1      -3.718   3.538  21.525  0.00  0.00    +0.277 C 
ENDBRANCH  29   6
BRANCH  30   7
ATOM      7  O   UNL     1      -5.019   5.104  25.129  0.00  0.00    -0.491 OA
ATOM     36  C   UNL     1      -6.079   4.476  25.848  0.00  0.00    +0.277 C 
ENDBRANCH  30   7
ENDBRANCH  16  18
ENDBRANCH  11  16
BRANCH  12  17
ATOM     17  C   UNL     1       2.321   0.084  21.970  0.00  0.00    +0.124 C 
BRANCH  17  19
ATOM      5  O   UNL     1       4.470  -0.148  23.096  0.00  0.00    -0.251 OA
ATOM     19  C   UNL     1       3.569   0.554  22.663  0.00  0.00    +0.305 C 
BRANCH  19   4
ATOM      4  O   UNL     1       3.563   1.910  22.748  0.00  0.00    -0.481 OA
ATOM     37  H   UNL     1       4.397   2.257  23.127  0.00  0.00    +0.295 HD
ENDBRANCH  19   4
ENDBRANCH  17  19
ENDBRANCH  12  17
TORSDOF 10
ENDMDL
MODEL 3
REMARK VINA RESULT:       7.2      2.365      3.624
REMARK  Name = 51136636
REMARK  12 active torsions:
REMARK  status: ('A' for Active; 'I' for Inactive)
REMARK    1  A    between atoms: S_1  and  N_8
REMARK    2  A    between atoms: S_1  and  C_21
REMARK    3  A    between atoms: O_4  and  C_19
REMARK    4  A    between atoms: O_6  and  C_29
REMARK    5  A    between atoms: O_6  and  C_35
REMARK    6  A    between atoms: O_7  and  C_30
REMARK    7  A    between atoms: O_7  and  C_36
REMARK    8  A    between atoms: C_11  and  C_16
REMARK    9  A    between atoms: C_12  and  C_17
REMARK   10  A    between atoms: C_16  and  C_18
REMARK   11  A    between atoms: C_17  and  C_19
REMARK   12  A    between atoms: C_31  and  C_34
REMARK                            x       y       z     vdW  Elec       q    Type
REMARK                         _______ _______ _______ _____ _____    ______ ____
ROOT
ATOM      8  N   UNL     1      -0.730   0.183  24.465  0.00  0.00    -0.176 NA
ATOM     11  C   UNL     1      -2.969  -0.853  24.167  0.00  0.00    +0.014 C 
ATOM     12  C   UNL     1      -2.307  -2.251  24.229  0.00  0.00    +0.006 C 
ATOM     13  C   UNL     1      -1.965   0.177  23.625  0.00  0.00    +0.113 C 
ATOM     14  C   UNL     1      -0.984  -2.210  25.009  0.00  0.00    +0.021 C 
ATOM     15  C   UNL     1      -0.045  -1.140  24.461  0.00  0.00    +0.110 C 
ENDROOT
BRANCH   8   1
ATOM      1  S   UNL     1       0.294   1.540  24.251  0.00  0.00    +0.061 S 
ATOM      2  O   UNL     1       0.879   1.894  25.527  0.00  0.00    -0.153 OA
ATOM      3  O   UNL     1      -0.396   2.526  23.448  0.00  0.00    -0.153 OA
BRANCH   1  21
ATOM     21  C   UNL     1       1.560   0.817  23.256  0.00  0.00    +0.107 A 
ATOM     26  C   UNL     1       2.891   0.879  23.667  0.00  0.00    +0.047 A 
ATOM     27  C   UNL     1       1.228   0.184  22.058  0.00  0.00    +0.028 A 
ATOM     31  C   UNL     1       3.891   0.308  22.880  0.00  0.00    +0.054 A 
ATOM     32  C   UNL     1       2.228  -0.388  21.272  0.00  0.00    +0.003 A 
ATOM     33  C   UNL     1       3.559  -0.326  21.683  0.00  0.00    +0.019 A 
BRANCH  31  34
ATOM     10  N   UNL     1       6.364   0.421  23.642  0.00  0.00    -0.191 NA
ATOM     34  C   UNL     1       5.255   0.371  23.300  0.00  0.00    +0.099 C 
ENDBRANCH  31  34
ENDBRANCH   1  21
ENDBRANCH   8   1
BRANCH  11  16
ATOM     16  C   UNL     1      -3.559  -0.380  25.501  0.00  0.00    +0.060 C 
BRANCH  16  18
ATOM      9  N   UNL     1      -5.633   0.741  25.039  0.00  0.00    -0.287 NA
ATOM     18  C   UNL     1      -4.372   0.874  25.287  0.00  0.00    +0.044 C 
ATOM     20  C   UNL     1      -3.687   2.191  25.362  0.00  0.00    +0.003 A 
ATOM     22  C   UNL     1      -4.354   3.282  24.789  0.00  0.00    -0.033 A 
ATOM     23  C   UNL     1      -5.684   3.051  24.135  0.00  0.00    +0.059 C 
ATOM     24  C   UNL     1      -6.433   1.961  24.890  0.00  0.00    +0.146 C 
ATOM     25  C   UNL     1      -2.436   2.358  25.956  0.00  0.00    +0.059 A 
ATOM     28  C   UNL     1      -3.746   4.540  24.791  0.00  0.00    +0.053 A 
ATOM     29  C   UNL     1      -1.844   3.622  25.967  0.00  0.00    +0.162 A 
ATOM     30  C   UNL     1      -2.495   4.709  25.384  0.00  0.00    +0.162 A 
BRANCH  29   6
ATOM      6  O   UNL     1      -0.621   3.782  26.549  0.00  0.00    -0.491 OA
ATOM     35  C   UNL     1      -0.232   2.809  27.515  0.00  0.00    +0.277 C 
ENDBRANCH  29   6
BRANCH  30   7
ATOM      7  O   UNL     1      -1.917   5.943  25.386  0.00  0.00    -0.491 OA
ATOM     36  C   UNL     1      -0.702   6.091  24.654  0.00  0.00    +0.277 C 
ENDBRANCH  30   7
ENDBRANCH  16  18
ENDBRANCH  11  16
BRANCH  12  17
ATOM     17  C   UNL     1      -3.232  -3.330  24.792  0.00  0.00    +0.124 C 
BRANCH  17  19
ATOM      5  O   UNL     1      -5.358  -2.982  23.654  0.00  0.00    -0.251 OA
ATOM     19  C   UNL     1      -4.353  -3.649  23.843  0.00  0.00    +0.305 C 
BRANCH  19   4
ATOM      4  O   UNL     1      -4.091  -4.818  23.201  0.00  0.00    -0.481 OA
ATOM     37  H   UNL     1      -4.522  -5.581  23.641  0.00  0.00    +0.295 HD
ENDBRANCH  19   4
ENDBRANCH  17  19
ENDBRANCH  12  17
TORSDOF 10
ENDMDL
MODEL 4
REMARK VINA RESULT:       7.6      2.968      7.613
REMARK  Name = 51136636
REMARK  12 active torsions:
REMARK  status: ('A' for Active; 'I' for Inactive)
REMARK    1  A    between atoms: S_1  and  N_8
REMARK    2  A    between atoms: S_1  and  C_21
REMARK    3  A    between atoms: O_4  and  C_19
REMARK    4  A    between atoms: O_6  and  C_29
REMARK    5  A    between atoms: O_6  and  C_35
REMARK    6  A    between atoms: O_7  and  C_30
REMARK    7  A    between atoms: O_7  and  C_36
REMARK    8  A    between atoms: C_11  and  C_16
REMARK    9  A    between atoms: C_12  and  C_17
REMARK   10  A    between atoms: C_16  and  C_18
REMARK   11  A    between atoms: C_17  and  C_19
REMARK   12  A    between atoms: C_31  and  C_34
REMARK                            x       y       z     vdW  Elec       q    Type
REMARK                         _______ _______ _______ _____ _____    ______ ____
ROOT
ATOM      8  N   UNL     1      -5.088   0.770  24.957  0.00  0.00    -0.176 NA
ATOM     11  C   UNL     1      -3.183  -0.792  25.277  0.00  0.00    +0.014 C 
ATOM     12  C   UNL     1      -4.063  -1.943  24.732  0.00  0.00    +0.006 C 
ATOM     13  C   UNL     1      -4.069   0.278  25.932  0.00  0.00    +0.113 C 
ATOM     14  C   UNL     1      -5.172  -1.413  23.811  0.00  0.00    +0.021 C 
ATOM     15  C   UNL     1      -5.991  -0.321  24.493  0.00  0.00    +0.110 C 
ENDROOT
BRANCH   8   1
ATOM      1  S   UNL     1      -5.869   2.233  25.390  0.00  0.00    +0.061 S 
ATOM      2  O   UNL     1      -6.470   2.076  26.698  0.00  0.00    -0.153 OA
ATOM      3  O   UNL     1      -6.646   2.701  24.263  0.00  0.00    -0.153 OA
BRANCH   1  21
ATOM     21  C   UNL     1      -4.467   3.291  25.562  0.00  0.00    +0.107 A 
ATOM     26  C   UNL     1      -3.466   3.286  24.591  0.00  0.00    +0.047 A 
ATOM     27  C   UNL     1      -4.359   4.131  26.670  0.00  0.00    +0.028 A 
ATOM     31  C   UNL     1      -2.358   4.122  24.727  0.00  0.00    +0.054 A 
ATOM     32  C   UNL     1      -3.251   4.967  26.807  0.00  0.00    +0.003 A 
ATOM     33  C   UNL     1      -2.250   4.962  25.836  0.00  0.00    +0.019 A 
BRANCH  31  34
ATOM     10  N   UNL     1      -0.499   4.114  22.924  0.00  0.00    -0.191 NA
ATOM     34  C   UNL     1      -1.332   4.118  23.733  0.00  0.00    +0.099 C 
ENDBRANCH  31  34
ENDBRANCH   1  21
ENDBRANCH   8   1
BRANCH  11  16
ATOM     16  C   UNL     1      -2.261  -0.160  24.227  0.00  0.00    +0.060 C 
BRANCH  16  18
ATOM      9  N   UNL     1      -1.383   1.108  26.069  0.00  0.00    -0.287 NA
ATOM     18  C   UNL     1      -1.141   0.586  24.912  0.00  0.00    +0.044 C 
ATOM     20  C   UNL     1       0.172   0.691  24.226  0.00  0.00    +0.003 A 
ATOM     22  C   UNL     1       1.045   1.689  24.683  0.00  0.00    -0.033 A 
ATOM     23  C   UNL     1       0.597   2.579  25.804  0.00  0.00    +0.059 C 
ATOM     24  C   UNL     1      -0.278   1.780  26.760  0.00  0.00    +0.146 C 
ATOM     25  C   UNL     1       0.540  -0.140  23.167  0.00  0.00    +0.059 A 
ATOM     28  C   UNL     1       2.280   1.866  24.053  0.00  0.00    +0.053 A 
ATOM     29  C   UNL     1       1.782   0.035  22.555  0.00  0.00    +0.162 A 
ATOM     30  C   UNL     1       2.648   1.036  22.994  0.00  0.00    +0.162 A 
BRANCH  29   6
ATOM      6  O   UNL     1       2.138  -0.780  21.521  0.00  0.00    -0.491 OA
ATOM     35  C   UNL     1       1.102  -1.183  20.628  0.00  0.00    +0.277 C 
ENDBRANCH  29   6
BRANCH  30   7
ATOM      7  O   UNL     1       3.858   1.215  22.394  0.00  0.00    -0.491 OA
ATOM     36  C   UNL     1       4.969   0.518  22.956  0.00  0.00    +0.277 C 
ENDBRANCH  30   7
ENDBRANCH  16  18
ENDBRANCH  11  16
BRANCH  12  17
ATOM     17  C   UNL     1      -3.258  -3.037  24.031  0.00  0.00    +0.124 C 
BRANCH  17  19
ATOM      5  O   UNL     1      -1.321  -2.929  25.507  0.00  0.00    -0.251 OA
ATOM     19  C   UNL     1      -1.798  -2.962  24.383  0.00  0.00    +0.305 C 
BRANCH  19   4
ATOM      4  O   UNL     1      -1.054  -2.936  23.247  0.00  0.00    -0.481 OA
ATOM     37  H   UNL     1      -1.614  -2.950  22.442  0.00  0.00    +0.295 HD
ENDBRANCH  19   4
ENDBRANCH  17  19
ENDBRANCH  12  17
TORSDOF 10
ENDMDL
MODEL 5
REMARK VINA RESULT:       8.0      3.821      4.868
REMARK  Name = 51136636
REMARK  12 active torsions:
REMARK  status: ('A' for Active; 'I' for Inactive)
REMARK    1  A    between atoms: S_1  and  N_8
REMARK    2  A    between atoms: S_1  and  C_21
REMARK    3  A    between atoms: O_4  and  C_19
REMARK    4  A    between atoms: O_6  and  C_29
REMARK    5  A    between atoms: O_6  and  C_35
REMARK    6  A    between atoms: O_7  and  C_30
REMARK    7  A    between atoms: O_7  and  C_36
REMARK    8  A    between atoms: C_11  and  C_16
REMARK    9  A    between atoms: C_12  and  C_17
REMARK   10  A    between atoms: C_16  and  C_18
REMARK   11  A    between atoms: C_17  and  C_19
REMARK   12  A    between atoms: C_31  and  C_34
REMARK                            x       y       z     vdW  Elec       q    Type
REMARK                         _______ _______ _______ _____ _____    ______ ____
ROOT
ATOM      8  N   UNL     1      -0.935   1.313  25.767  0.00  0.00    -0.176 NA
ATOM     11  C   UNL     1      -1.135  -0.489  24.068  0.00  0.00    +0.014 C 
ATOM     12  C   UNL     1      -0.750  -1.525  25.153  0.00  0.00    +0.006 C 
ATOM     13  C   UNL     1      -0.511   0.875  24.404  0.00  0.00    +0.113 C 
ATOM     14  C   UNL     1      -1.098  -1.017  26.560  0.00  0.00    +0.021 C 
ATOM     15  C   UNL     1      -0.494   0.359  26.824  0.00  0.00    +0.110 C 
ENDROOT
BRANCH   8   1
ATOM      1  S   UNL     1      -0.671   2.969  26.119  0.00  0.00    +0.061 S 
ATOM      2  O   UNL     1      -1.884   3.531  26.676  0.00  0.00    -0.153 OA
ATOM      3  O   UNL     1      -0.013   3.589  24.990  0.00  0.00    -0.153 OA
BRANCH   1  21
ATOM     21  C   UNL     1       0.508   2.823  27.424  0.00  0.00    +0.107 A 
ATOM     26  C   UNL     1       0.075   2.691  28.743  0.00  0.00    +0.047 A 
ATOM     27  C   UNL     1       1.872   2.839  27.136  0.00  0.00    +0.028 A 
ATOM     31  C   UNL     1       1.007   2.576  29.775  0.00  0.00    +0.054 A 
ATOM     32  C   UNL     1       2.805   2.724  28.167  0.00  0.00    +0.003 A 
ATOM     33  C   UNL     1       2.372   2.592  29.486  0.00  0.00    +0.019 A 
BRANCH  31  34
ATOM     10  N   UNL     1       0.204   2.331  32.225  0.00  0.00    -0.191 NA
ATOM     34  C   UNL     1       0.565   2.441  31.127  0.00  0.00    +0.099 C 
ENDBRANCH  31  34
ENDBRANCH   1  21
ENDBRANCH   8   1
BRANCH  11  16
ATOM     16  C   UNL     1      -2.646  -0.350  23.844  0.00  0.00    +0.060 C 
BRANCH  16  18
ATOM      9  N   UNL     1      -2.502   1.202  22.016  0.00  0.00    -0.287 NA
ATOM     18  C   UNL     1      -2.949   0.985  23.209  0.00  0.00    +0.044 C 
ATOM     20  C   UNL     1      -3.733   1.983  23.982  0.00  0.00    +0.003 A 
ATOM     22  C   UNL     1      -3.667   3.313  23.546  0.00  0.00    -0.033 A 
ATOM     23  C   UNL     1      -2.811   3.640  22.359  0.00  0.00    +0.059 C 
ATOM     24  C   UNL     1      -2.848   2.476  21.377  0.00  0.00    +0.146 C 
ATOM     25  C   UNL     1      -4.496   1.641  25.100  0.00  0.00    +0.059 A 
ATOM     28  C   UNL     1      -4.350   4.306  24.255  0.00  0.00    +0.053 A 
ATOM     29  C   UNL     1      -5.187   2.637  25.791  0.00  0.00    +0.162 A 
ATOM     30  C   UNL     1      -5.112   3.966  25.372  0.00  0.00    +0.162 A 
BRANCH  29   6
ATOM      6  O   UNL     1      -5.933   2.299  26.882  0.00  0.00    -0.491 OA
ATOM     35  C   UNL     1      -6.847   1.217  26.731  0.00  0.00    +0.277 C 
ENDBRANCH  29   6
BRANCH  30   7
ATOM      7  O   UNL     1      -5.779   4.942  26.048  0.00  0.00    -0.491 OA
ATOM     36  C   UNL     1      -6.615   5.807  25.282  0.00  0.00    +0.277 C 
ENDBRANCH  30   7
ENDBRANCH  16  18
ENDBRANCH  11  16
BRANCH  12  17
ATOM     17  C   UNL     1      -1.361  -2.904  24.910  0.00  0.00    +0.124 C 
BRANCH  17  19
ATOM      5  O   UNL     1      -3.529  -2.442  25.923  0.00  0.00    -0.251 OA
ATOM     19  C   UNL     1      -2.862  -2.869  24.994  0.00  0.00    +0.305 C 
BRANCH  19   4
ATOM      4  O   UNL     1      -3.396  -3.395  23.861  0.00  0.00    -0.481 OA
ATOM     37  H   UNL     1      -2.950  -3.058  23.055  0.00  0.00    +0.295 HD
ENDBRANCH  19   4
ENDBRANCH  17  19
ENDBRANCH  12  17
TORSDOF 10
ENDMDL
MODEL 6
REMARK VINA RESULT:       8.1      2.285      2.991
REMARK  Name = 51136636
REMARK  12 active torsions:
REMARK  status: ('A' for Active; 'I' for Inactive)
REMARK    1  A    between atoms: S_1  and  N_8
REMARK    2  A    between atoms: S_1  and  C_21
REMARK    3  A    between atoms: O_4  and  C_19
REMARK    4  A    between atoms: O_6  and  C_29
REMARK    5  A    between atoms: O_6  and  C_35
REMARK    6  A    between atoms: O_7  and  C_30
REMARK    7  A    between atoms: O_7  and  C_36
REMARK    8  A    between atoms: C_11  and  C_16
REMARK    9  A    between atoms: C_12  and  C_17
REMARK   10  A    between atoms: C_16  and  C_18
REMARK   11  A    between atoms: C_17  and  C_19
REMARK   12  A    between atoms: C_31  and  C_34
REMARK                            x       y       z     vdW  Elec       q    Type
REMARK                         _______ _______ _______ _____ _____    ______ ____
ROOT
ATOM      8  N   UNL     1      -0.971   0.240  24.863  0.00  0.00    -0.176 NA
ATOM     11  C   UNL     1      -2.409  -1.485  23.800  0.00  0.00    +0.014 C 
ATOM     12  C   UNL     1      -2.149  -2.416  25.010  0.00  0.00    +0.006 C 
ATOM     13  C   UNL     1      -1.218  -0.533  23.609  0.00  0.00    +0.113 C 
ATOM     14  C   UNL     1      -1.794  -1.613  26.270  0.00  0.00    +0.021 C 
ATOM     15  C   UNL     1      -0.639  -0.650  26.012  0.00  0.00    +0.110 C 
ENDROOT
BRANCH   8   1
ATOM      1  S   UNL     1       0.034   1.617  24.689  0.00  0.00    +0.061 S 
ATOM      2  O   UNL     1       0.674   1.896  25.957  0.00  0.00    -0.153 OA
ATOM      3  O   UNL     1      -0.698   2.645  23.981  0.00  0.00    -0.153 OA
BRANCH   1  21
ATOM     21  C   UNL     1       1.258   0.968  23.595  0.00  0.00    +0.107 A 
ATOM     26  C   UNL     1       2.609   1.058  23.929  0.00  0.00    +0.047 A 
ATOM     27  C   UNL     1       0.874   0.366  22.398  0.00  0.00    +0.028 A 
ATOM     31  C   UNL     1       3.577   0.545  23.064  0.00  0.00    +0.054 A 
ATOM     32  C   UNL     1       1.841  -0.147  21.533  0.00  0.00    +0.003 A 
ATOM     33  C   UNL     1       3.192  -0.057  21.866  0.00  0.00    +0.019 A 
BRANCH  31  34
ATOM     10  N   UNL     1       6.086   0.713  23.681  0.00  0.00    -0.191 NA
ATOM     34  C   UNL     1       4.961   0.637  23.404  0.00  0.00    +0.099 C 
ENDBRANCH  31  34
ENDBRANCH   1  21
ENDBRANCH   8   1
BRANCH  11  16
ATOM     16  C   UNL     1      -3.722  -0.697  23.889  0.00  0.00    +0.060 C 
BRANCH  16  18
ATOM      9  N   UNL     1      -2.861   0.797  22.217  0.00  0.00    -0.287 NA
ATOM     18  C   UNL     1      -3.527   0.688  23.319  0.00  0.00    +0.044 C 
ATOM     20  C   UNL     1      -4.100   1.848  24.048  0.00  0.00    +0.003 A 
ATOM     22  C   UNL     1      -3.588   3.112  23.724  0.00  0.00    -0.033 A 
ATOM     23  C   UNL     1      -2.504   3.207  22.691  0.00  0.00    +0.059 C 
ATOM     24  C   UNL     1      -2.724   2.135  21.632  0.00  0.00    +0.146 C 
ATOM     25  C   UNL     1      -5.090   1.714  25.022  0.00  0.00    +0.059 A 
ATOM     28  C   UNL     1      -4.056   4.241  24.402  0.00  0.00    +0.053 A 
ATOM     29  C   UNL     1      -5.562   2.849  25.683  0.00  0.00    +0.162 A 
ATOM     30  C   UNL     1      -5.045   4.108  25.377  0.00  0.00    +0.162 A 
BRANCH  29   6
ATOM      6  O   UNL     1      -6.530   2.714  26.634  0.00  0.00    -0.491 OA
ATOM     35  C   UNL     1      -6.712   1.416  27.193  0.00  0.00    +0.277 C 
ENDBRANCH  29   6
BRANCH  30   7
ATOM      7  O   UNL     1      -5.498   5.217  26.025  0.00  0.00    -0.491 OA
ATOM     36  C   UNL     1      -6.600   5.907  25.438  0.00  0.00    +0.277 C 
ENDBRANCH  30   7
ENDBRANCH  16  18
ENDBRANCH  11  16
BRANCH  12  17
ATOM     17  C   UNL     1      -3.306  -3.376  25.289  0.00  0.00    +0.124 C 
BRANCH  17  19
ATOM      5  O   UNL     1      -5.176  -3.303  23.729  0.00  0.00    -0.251 OA
ATOM     19  C   UNL     1      -4.066  -3.709  24.036  0.00  0.00    +0.305 C 
BRANCH  19   4
ATOM      4  O   UNL     1      -3.330  -4.550  23.264  0.00  0.00    -0.481 OA
ATOM     37  H   UNL     1      -3.017  -4.114  22.443  0.00  0.00    +0.295 HD
ENDBRANCH  19   4
ENDBRANCH  17  19
ENDBRANCH  12  17
TORSDOF 10
ENDMDL
MODEL 7
REMARK VINA RESULT:       8.4      3.206      6.133
REMARK  Name = 51136636
REMARK  12 active torsions:
REMARK  status: ('A' for Active; 'I' for Inactive)
REMARK    1  A    between atoms: S_1  and  N_8
REMARK    2  A    between atoms: S_1  and  C_21
REMARK    3  A    between atoms: O_4  and  C_19
REMARK    4  A    between atoms: O_6  and  C_29
REMARK    5  A    between atoms: O_6  and  C_35
REMARK    6  A    between atoms: O_7  and  C_30
REMARK    7  A    between atoms: O_7  and  C_36
REMARK    8  A    between atoms: C_11  and  C_16
REMARK    9  A    between atoms: C_12  and  C_17
REMARK   10  A    between atoms: C_16  and  C_18
REMARK   11  A    between atoms: C_17  and  C_19
REMARK   12  A    between atoms: C_31  and  C_34
REMARK                            x       y       z     vdW  Elec       q    Type
REMARK                         _______ _______ _______ _____ _____    ______ ____
ROOT
ATOM      8  N   UNL     1      -0.000   2.152  25.134  0.00  0.00    -0.176 NA
ATOM     11  C   UNL     1      -0.487   0.387  23.454  0.00  0.00    +0.014 C 
ATOM     12  C   UNL     1       0.861   0.706  22.761  0.00  0.00    +0.006 C 
ATOM     13  C   UNL     1      -1.017   1.641  24.167  0.00  0.00    +0.113 C 
ATOM     14  C   UNL     1       1.864   1.327  23.745  0.00  0.00    +0.021 C 
ATOM     15  C   UNL     1       1.271   2.538  24.458  0.00  0.00    +0.110 C 
ENDROOT
BRANCH   8   1
ATOM      1  S   UNL     1      -0.587   3.275  26.288  0.00  0.00    +0.061 S 
ATOM      2  O   UNL     1      -1.882   2.832  26.759  0.00  0.00    -0.153 OA
ATOM      3  O   UNL     1      -0.399   4.615  25.776  0.00  0.00    -0.153 OA
BRANCH   1  21
ATOM     21  C   UNL     1       0.579   3.019  27.588  0.00  0.00    +0.107 A 
ATOM     26  C   UNL     1       0.134   2.816  28.893  0.00  0.00    +0.047 A 
ATOM     27  C   UNL     1       1.946   3.022  27.308  0.00  0.00    +0.028 A 
ATOM     31  C   UNL     1       1.057   2.614  29.921  0.00  0.00    +0.054 A 
ATOM     32  C   UNL     1       2.868   2.820  28.335  0.00  0.00    +0.003 A 
ATOM     33  C   UNL     1       2.423   2.617  29.641  0.00  0.00    +0.019 A 
BRANCH  31  34
ATOM     10  N   UNL     1       0.234   2.236  32.347  0.00  0.00    -0.191 NA
ATOM     34  C   UNL     1       0.602   2.405  31.259  0.00  0.00    +0.099 C 
ENDBRANCH  31  34
ENDBRANCH   1  21
ENDBRANCH   8   1
BRANCH  11  16
ATOM     16  C   UNL     1      -0.425  -0.799  24.424  0.00  0.00    +0.060 C 
BRANCH  16  18
ATOM      9  N   UNL     1      -1.822  -2.752  24.484  0.00  0.00    -0.287 NA
ATOM     18  C   UNL     1      -1.779  -1.461  24.510  0.00  0.00    +0.044 C 
ATOM     20  C   UNL     1      -2.989  -0.604  24.613  0.00  0.00    +0.003 A 
ATOM     22  C   UNL     1      -4.216  -1.206  24.303  0.00  0.00    -0.033 A 
ATOM     23  C   UNL     1      -4.227  -2.645  23.882  0.00  0.00    +0.059 C 
ATOM     24  C   UNL     1      -3.132  -3.395  24.628  0.00  0.00    +0.146 C 
ATOM     25  C   UNL     1      -2.932   0.740  24.984  0.00  0.00    +0.059 A 
ATOM     28  C   UNL     1      -5.387  -0.443  24.342  0.00  0.00    +0.053 A 
ATOM     29  C   UNL     1      -4.109   1.489  25.034  0.00  0.00    +0.162 A 
ATOM     30  C   UNL     1      -5.332   0.901  24.712  0.00  0.00    +0.162 A 
BRANCH  29   6
ATOM      6  O   UNL     1      -4.050   2.802  25.398  0.00  0.00    -0.491 OA
ATOM     35  C   UNL     1      -3.873   3.756  24.353  0.00  0.00    +0.277 C 
ENDBRANCH  29   6
BRANCH  30   7
ATOM      7  O   UNL     1      -6.482   1.630  24.752  0.00  0.00    -0.491 OA
ATOM     36  C   UNL     1      -6.803   2.266  25.988  0.00  0.00    +0.277 C 
ENDBRANCH  30   7
ENDBRANCH  16  18
ENDBRANCH  11  16
BRANCH  12  17
ATOM     17  C   UNL     1       1.474  -0.503  22.055  0.00  0.00    +0.124 C 
BRANCH  17  19
ATOM      5  O   UNL     1       3.669  -1.070  22.951  0.00  0.00    -0.251 OA
ATOM     19  C   UNL     1       2.976  -0.487  22.131  0.00  0.00    +0.305 C 
BRANCH  19   4
ATOM      4  O   UNL     1       3.477   0.289  21.135  0.00  0.00    -0.481 OA
ATOM     37  H   UNL     1       3.166  -0.004  20.252  0.00  0.00    +0.295 HD
ENDBRANCH  19   4
ENDBRANCH  17  19
ENDBRANCH  12  17
TORSDOF 10
ENDMDL
MODEL 8
REMARK VINA RESULT:       8.5      3.045      8.106
REMARK  Name = 51136636
REMARK  12 active torsions:
REMARK  status: ('A' for Active; 'I' for Inactive)
REMARK    1  A    between atoms: S_1  and  N_8
REMARK    2  A    between atoms: S_1  and  C_21
REMARK    3  A    between atoms: O_4  and  C_19
REMARK    4  A    between atoms: O_6  and  C_29
REMARK    5  A    between atoms: O_6  and  C_35
REMARK    6  A    between atoms: O_7  and  C_30
REMARK    7  A    between atoms: O_7  and  C_36
REMARK    8  A    between atoms: C_11  and  C_16
REMARK    9  A    between atoms: C_12  and  C_17
REMARK   10  A    between atoms: C_16  and  C_18
REMARK   11  A    between atoms: C_17  and  C_19
REMARK   12  A    between atoms: C_31  and  C_34
REMARK                            x       y       z     vdW  Elec       q    Type
REMARK                         _______ _______ _______ _____ _____    ______ ____
ROOT
ATOM      8  N   UNL     1      -4.461   2.621  25.409  0.00  0.00    -0.176 NA
ATOM     11  C   UNL     1      -2.695   3.797  24.114  0.00  0.00    +0.014 C 
ATOM     12  C   UNL     1      -2.861   5.023  25.044  0.00  0.00    +0.006 C 
ATOM     13  C   UNL     1      -4.017   3.017  24.038  0.00  0.00    +0.113 C 
ATOM     14  C   UNL     1      -3.416   4.615  26.417  0.00  0.00    +0.021 C 
ATOM     15  C   UNL     1      -4.701   3.805  26.282  0.00  0.00    +0.110 C 
ENDROOT
BRANCH   8   1
ATOM      1  S   UNL     1      -5.673   1.411  25.464  0.00  0.00    +0.061 S 
ATOM      2  O   UNL     1      -6.589   1.611  24.361  0.00  0.00    -0.153 OA
ATOM      3  O   UNL     1      -6.156   1.294  26.823  0.00  0.00    -0.153 OA
BRANCH   1  21
ATOM     21  C   UNL     1      -4.699  -0.017  25.107  0.00  0.00    +0.107 A 
ATOM     26  C   UNL     1      -3.415  -0.135  25.637  0.00  0.00    +0.047 A 
ATOM     27  C   UNL     1      -5.214  -1.026  24.293  0.00  0.00    +0.028 A 
ATOM     31  C   UNL     1      -2.645  -1.264  25.354  0.00  0.00    +0.054 A 
ATOM     32  C   UNL     1      -4.445  -2.155  24.010  0.00  0.00    +0.003 A 
ATOM     33  C   UNL     1      -3.160  -2.273  24.540  0.00  0.00    +0.019 A 
BRANCH  31  34
ATOM     10  N   UNL     1      -0.260  -1.485  26.337  0.00  0.00    -0.191 NA
ATOM     34  C   UNL     1      -1.329  -1.387  25.897  0.00  0.00    +0.099 C 
ENDBRANCH  31  34
ENDBRANCH   1  21
ENDBRANCH   8   1
BRANCH  11  16
ATOM     16  C   UNL     1      -1.542   2.865  24.508  0.00  0.00    +0.060 C 
BRANCH  16  18
ATOM      9  N   UNL     1      -2.566   1.324  22.976  0.00  0.00    -0.287 NA
ATOM     18  C   UNL     1      -1.470   1.705  23.545  0.00  0.00    +0.044 C 
ATOM     20  C   UNL     1      -0.155   1.056  23.304  0.00  0.00    +0.003 A 
ATOM     22  C   UNL     1      -0.178  -0.223  22.732  0.00  0.00    -0.033 A 
ATOM     23  C   UNL     1      -1.504  -0.849  22.420  0.00  0.00    +0.059 C 
ATOM     24  C   UNL     1      -2.485   0.237  21.995  0.00  0.00    +0.146 C 
ATOM     25  C   UNL     1       1.058   1.663  23.634  0.00  0.00    +0.059 A 
ATOM     28  C   UNL     1       1.024  -0.903  22.516  0.00  0.00    +0.053 A 
ATOM     29  C   UNL     1       2.253   0.982  23.401  0.00  0.00    +0.162 A 
ATOM     30  C   UNL     1       2.237  -0.299  22.847  0.00  0.00    +0.162 A 
BRANCH  29   6
ATOM      6  O   UNL     1       3.436   1.578  23.724  0.00  0.00    -0.491 OA
ATOM     35  C   UNL     1       4.461   1.560  22.733  0.00  0.00    +0.277 C 
ENDBRANCH  29   6
BRANCH  30   7
ATOM      7  O   UNL     1       3.401  -0.970  22.624  0.00  0.00    -0.491 OA
ATOM     36  C   UNL     1       4.056  -1.528  23.762  0.00  0.00    +0.277 C 
ENDBRANCH  30   7
ENDBRANCH  16  18
ENDBRANCH  11  16
BRANCH  12  17
ATOM     17  C   UNL     1      -1.576   5.836  25.201  0.00  0.00    +0.124 C 
BRANCH  17  19
ATOM      5  O   UNL     1       0.074   5.220  23.518  0.00  0.00    -0.251 OA
ATOM     19  C   UNL     1      -0.386   5.107  24.643  0.00  0.00    +0.305 C 
BRANCH  19   4
ATOM      4  O   UNL     1       0.127   4.277  25.588  0.00  0.00    -0.481 OA
ATOM     37  H   UNL     1      -0.565   3.944  26.198  0.00  0.00    +0.295 HD
ENDBRANCH  19   4
ENDBRANCH  17  19
ENDBRANCH  12  17
TORSDOF 10
ENDMDL
MODEL 9
REMARK VINA RESULT:       8.8      3.086      7.548
REMARK  Name = 51136636
REMARK  12 active torsions:
REMARK  status: ('A' for Active; 'I' for Inactive)
REMARK    1  A    between atoms: S_1  and  N_8
REMARK    2  A    between atoms: S_1  and  C_21
REMARK    3  A    between atoms: O_4  and  C_19
REMARK    4  A    between atoms: O_6  and  C_29
REMARK    5  A    between atoms: O_6  and  C_35
REMARK    6  A    between atoms: O_7  and  C_30
REMARK    7  A    between atoms: O_7  and  C_36
REMARK    8  A    between atoms: C_11  and  C_16
REMARK    9  A    between atoms: C_12  and  C_17
REMARK   10  A    between atoms: C_16  and  C_18
REMARK   11  A    between atoms: C_17  and  C_19
REMARK   12  A    between atoms: C_31  and  C_34
REMARK                            x       y       z     vdW  Elec       q    Type
REMARK                         _______ _______ _______ _____ _____    ______ ____
ROOT
ATOM      8  N   UNL     1      -2.739   1.946  25.435  0.00  0.00    -0.176 NA
ATOM     11  C   UNL     1      -1.175   3.754  26.113  0.00  0.00    +0.014 C 
ATOM     12  C   UNL     1      -0.299   2.698  26.831  0.00  0.00    +0.006 C 
ATOM     13  C   UNL     1      -2.639   3.287  26.085  0.00  0.00    +0.113 C 
ATOM     14  C   UNL     1      -0.489   1.302  26.219  0.00  0.00    +0.021 C 
ATOM     15  C   UNL     1      -1.962   0.908  26.172  0.00  0.00    +0.110 C 
ENDROOT
BRANCH   8   1
ATOM      1  S   UNL     1      -4.317   1.479  24.958  0.00  0.00    +0.061 S 
ATOM      2  O   UNL     1      -4.648   2.142  23.714  0.00  0.00    -0.153 OA
ATOM      3  O   UNL     1      -5.197   1.562  26.104  0.00  0.00    -0.153 OA
BRANCH   1  21
ATOM     21  C   UNL     1      -4.040  -0.228  24.605  0.00  0.00    +0.107 A 
ATOM     26  C   UNL     1      -2.820  -0.819  24.933  0.00  0.00    +0.047 A 
ATOM     27  C   UNL     1      -5.041  -0.985  23.997  0.00  0.00    +0.028 A 
ATOM     31  C   UNL     1      -2.602  -2.168  24.653  0.00  0.00    +0.054 A 
ATOM     32  C   UNL     1      -4.823  -2.334  23.718  0.00  0.00    +0.003 A 
ATOM     33  C   UNL     1      -3.603  -2.925  24.045  0.00  0.00    +0.019 A 
BRANCH  31  34
ATOM     10  N   UNL     1      -0.337  -3.268  25.259  0.00  0.00    -0.191 NA
ATOM     34  C   UNL     1      -1.352  -2.774  24.988  0.00  0.00    +0.099 C 
ENDBRANCH  31  34
ENDBRANCH   1  21
ENDBRANCH   8   1
BRANCH  11  16
ATOM     16  C   UNL     1      -0.695   4.108  24.700  0.00  0.00    +0.060 C 
BRANCH  16  18
ATOM      9  N   UNL     1      -2.216   2.955  23.242  0.00  0.00    -0.287 NA
ATOM     18  C   UNL     1      -1.028   2.983  23.749  0.00  0.00    +0.044 C 
ATOM     20  C   UNL     1       0.014   1.968  23.451  0.00  0.00    +0.003 A 
ATOM     22  C   UNL     1      -0.424   0.757  22.897  0.00  0.00    -0.033 A 
ATOM     23  C   UNL     1      -1.893   0.564  22.661  0.00  0.00    +0.059 C 
ATOM     24  C   UNL     1      -2.519   1.897  22.272  0.00  0.00    +0.146 C 
ATOM     25  C   UNL     1       1.369   2.177  23.711  0.00  0.00    +0.059 A 
ATOM     28  C   UNL     1       0.502  -0.255  22.630  0.00  0.00    +0.053 A 
ATOM     29  C   UNL     1       2.288   1.166  23.427  0.00  0.00    +0.162 A 
ATOM     30  C   UNL     1       1.856  -0.047  22.891  0.00  0.00    +0.162 A 
BRANCH  29   6
ATOM      6  O   UNL     1       3.612   1.375  23.682  0.00  0.00    -0.491 OA
ATOM     35  C   UNL     1       4.514   1.212  22.591  0.00  0.00    +0.277 C 
ENDBRANCH  29   6
BRANCH  30   7
ATOM      7  O   UNL     1       2.749  -1.039  22.619  0.00  0.00    -0.491 OA
ATOM     36  C   UNL     1       3.488  -1.567  23.719  0.00  0.00    +0.277 C 
ENDBRANCH  30   7
ENDBRANCH  16  18
ENDBRANCH  11  16
BRANCH  12  17
ATOM     17  C   UNL     1       1.182   3.073  26.871  0.00  0.00    +0.124 C 
BRANCH  17  19
ATOM      5  O   UNL     1       2.971   2.887  28.515  0.00  0.00    -0.251 OA
ATOM     19  C   UNL     1       1.793   2.774  28.212  0.00  0.00    +0.305 C 
BRANCH  19   4
ATOM      4  O   UNL     1       0.830   2.348  29.070  0.00  0.00    -0.481 OA
ATOM     37  H   UNL     1       0.961   1.412  29.331  0.00  0.00    +0.295 HD
ENDBRANCH  19   4
ENDBRANCH  17  19
ENDBRANCH  12  17
TORSDOF 10
ENDMDL
MODEL 10
REMARK VINA RESULT:       8.8      2.657      6.131
REMARK  Name = 51136636
REMARK  12 active torsions:
REMARK  status: ('A' for Active; 'I' for Inactive)
REMARK    1  A    between atoms: S_1  and  N_8
REMARK    2  A    between atoms: S_1  and  C_21
REMARK    3  A    between atoms: O_4  and  C_19
REMARK    4  A    between atoms: O_6  and  C_29
REMARK    5  A    between atoms: O_6  and  C_35
REMARK    6  A    between atoms: O_7  and  C_30
REMARK    7  A    between atoms: O_7  and  C_36
REMARK    8  A    between atoms: C_11  and  C_16
REMARK    9  A    between atoms: C_12  and  C_17
REMARK   10  A    between atoms: C_16  and  C_18
REMARK   11  A    between atoms: C_17  and  C_19
REMARK   12  A    between atoms: C_31  and  C_34
REMARK                            x       y       z     vdW  Elec       q    Type
REMARK                         _______ _______ _______ _____ _____    ______ ____
ROOT
ATOM      8  N   UNL     1       0.085   2.306  23.889  0.00  0.00    -0.176 NA
ATOM     11  C   UNL     1       0.127  -0.064  23.145  0.00  0.00    +0.014 C 
ATOM     12  C   UNL     1       1.616   0.108  22.755  0.00  0.00    +0.006 C 
ATOM     13  C   UNL     1      -0.599   1.285  23.040  0.00  0.00    +0.113 C 
ATOM     14  C   UNL     1       2.281   1.231  23.563  0.00  0.00    +0.021 C 
ATOM     15  C   UNL     1       1.495   2.534  23.463  0.00  0.00    +0.110 C 
ENDROOT
BRANCH   8   1
ATOM      1  S   UNL     1      -0.824   3.724  24.205  0.00  0.00    +0.061 S 
ATOM      2  O   UNL     1      -2.132   3.589  23.597  0.00  0.00    -0.153 OA
ATOM      3  O   UNL     1       0.004   4.880  23.942  0.00  0.00    -0.153 OA
BRANCH   1  21
ATOM     21  C   UNL     1      -1.022   3.580  25.953  0.00  0.00    +0.107 A 
ATOM     26  C   UNL     1       0.005   3.044  26.729  0.00  0.00    +0.047 A 
ATOM     27  C   UNL     1      -2.206   4.002  26.557  0.00  0.00    +0.028 A 
ATOM     31  C   UNL     1      -0.152   2.930  28.110  0.00  0.00    +0.054 A 
ATOM     32  C   UNL     1      -2.363   3.889  27.939  0.00  0.00    +0.003 A 
ATOM     33  C   UNL     1      -1.336   3.352  28.715  0.00  0.00    +0.019 A 
BRANCH  31  34
ATOM     10  N   UNL     1       1.754   1.936  29.554  0.00  0.00    -0.191 NA
ATOM     34  C   UNL     1       0.899   2.381  28.907  0.00  0.00    +0.099 C 
ENDBRANCH  31  34
ENDBRANCH   1  21
ENDBRANCH   8   1
BRANCH  11  16
ATOM     16  C   UNL     1      -0.087  -0.686  24.531  0.00  0.00    +0.060 C 
BRANCH  16  18
ATOM      9  N   UNL     1      -1.334  -2.738  24.456  0.00  0.00    -0.287 NA
ATOM     18  C   UNL     1      -1.389  -1.451  24.553  0.00  0.00    +0.044 C 
ATOM     20  C   UNL     1      -2.661  -0.693  24.675  0.00  0.00    +0.003 A 
ATOM     22  C   UNL     1      -3.834  -1.367  24.308  0.00  0.00    -0.033 A 
ATOM     23  C   UNL     1      -3.729  -2.777  23.810  0.00  0.00    +0.059 C 
ATOM     24  C   UNL     1      -2.594  -3.484  24.538  0.00  0.00    +0.146 C 
ATOM     25  C   UNL     1      -2.713   0.629  25.118  0.00  0.00    +0.059 A 
ATOM     28  C   UNL     1      -5.060  -0.696  24.363  0.00  0.00    +0.053 A 
ATOM     29  C   UNL     1      -3.943   1.284  25.184  0.00  0.00    +0.162 A 
ATOM     30  C   UNL     1      -5.113   0.625  24.805  0.00  0.00    +0.162 A 
BRANCH  29   6
ATOM      6  O   UNL     1      -3.990   2.576  25.618  0.00  0.00    -0.491 OA
ATOM     35  C   UNL     1      -4.625   3.524  24.763  0.00  0.00    +0.277 C 
ENDBRANCH  29   6
BRANCH  30   7
ATOM      7  O   UNL     1      -6.315   1.264  24.860  0.00  0.00    -0.491 OA
ATOM     36  C   UNL     1      -6.763   1.693  26.145  0.00  0.00    +0.277 C 
ENDBRANCH  30   7
ENDBRANCH  16  18
ENDBRANCH  11  16
BRANCH  12  17
ATOM     17  C   UNL     1       2.420  -1.187  22.866  0.00  0.00    +0.124 C 
BRANCH  17  19
ATOM      5  O   UNL     1       4.554  -0.011  22.869  0.00  0.00    -0.251 OA
ATOM     19  C   UNL     1       3.845  -0.923  23.266  0.00  0.00    +0.305 C 
BRANCH  19   4
ATOM      4  O   UNL     1       4.253  -1.863  24.157  0.00  0.00    -0.481 OA
ATOM     37  H   UNL     1       3.496  -2.326  24.574  0.00  0.00    +0.295 HD
ENDBRANCH  19   4
ENDBRANCH  17  19
ENDBRANCH  12  17
TORSDOF 10
ENDMDL
