MODEL 1
REMARK VINA RESULT:       0.9      0.000      0.000
REMARK  Name = 45361174
REMARK  9 active torsions:
REMARK  status: ('A' for Active; 'I' for Inactive)
REMARK    1  A    between atoms: O_4  and  C_26
REMARK    2  A    between atoms: O_4  and  C_30
REMARK    3  A    between atoms: N_5  and  C_18
REMARK    4  A    between atoms: N_6  and  C_17
REMARK    5  A    between atoms: C_12  and  C_16
REMARK    6  A    between atoms: C_16  and  C_19
REMARK    7  A    between atoms: C_17  and  C_25
REMARK    8  A    between atoms: C_19  and  C_23
REMARK    9  A    between atoms: C_20  and  C_26
REMARK                            x       y       z     vdW  Elec       q    Type
REMARK                         _______ _______ _______ _____ _____    ______ ____
ROOT
ATOM      2  O   UNL     1      -0.812  -0.984  21.898  0.00  0.00    -0.274 OA
ATOM      5  N   UNL     1      -1.167   0.432  25.483  0.00  0.00    -0.296 NA
ATOM      6  N   UNL     1       1.298   0.451  22.780  0.00  0.00    -0.285 NA
ATOM      7  N   UNL     1      -1.230  -1.987  23.912  0.00  0.00    -0.312 N 
ATOM      9  C   UNL     1       0.207   0.540  24.946  0.00  0.00    +0.084 C 
ATOM     10  C   UNL     1       0.622  -0.400  23.776  0.00  0.00    +0.161 C 
ATOM     11  C   UNL     1       0.548   1.929  24.377  0.00  0.00    +0.036 C 
ATOM     12  C   UNL     1      -1.481  -0.881  26.114  0.00  0.00    +0.074 C 
ATOM     13  C   UNL     1       1.732   1.659  23.473  0.00  0.00    +0.087 C 
ATOM     14  C   UNL     1      -0.979  -2.112  25.334  0.00  0.00    +0.123 C 
ATOM     15  C   UNL     1      -0.534  -1.124  23.088  0.00  0.00    +0.232 C 
ATOM     18  C   UNL     1      -1.449   1.529  26.424  0.00  0.00    +0.105 C 
ATOM     31  H   UNL     1      -1.961  -2.556  23.497  0.00  0.00    +0.149 HD
ENDROOT
BRANCH  12  16
ATOM     16  C   UNL     1      -3.005  -1.039  26.302  0.00  0.00    +0.029 C 
BRANCH  16  19
ATOM     19  C   UNL     1      -3.767  -0.734  25.026  0.00  0.00    +0.097 C 
BRANCH  19  23
ATOM      3  O   UNL     1      -5.239   0.906  25.926  0.00  0.00    -0.276 OA
ATOM      8  N   UNL     1      -3.930   1.537  24.125  0.00  0.00    -0.296 N 
ATOM     20  C   UNL     1      -4.495   2.879  23.971  0.00  0.00    +0.102 C 
ATOM     21  C   UNL     1      -4.021   3.316  22.583  0.00  0.00    +0.026 C 
ATOM     22  C   UNL     1      -2.924   1.264  23.102  0.00  0.00    +0.108 C 
ATOM     23  C   UNL     1      -4.388   0.639  25.076  0.00  0.00    +0.216 C 
ATOM     24  C   UNL     1      -2.681   2.607  22.427  0.00  0.00    +0.021 C 
BRANCH  20  26
ATOM     26  C   UNL     1      -4.003   3.821  25.069  0.00  0.00    +0.181 C 
BRANCH  26   4
ATOM      4  O   UNL     1      -3.026   4.683  24.517  0.00  0.00    -0.381 OA
ATOM     30  C   UNL     1      -1.868   4.765  25.342  0.00  0.00    +0.194 C 
ENDBRANCH  26   4
ENDBRANCH  20  26
ENDBRANCH  19  23
ENDBRANCH  16  19
ENDBRANCH  12  16
BRANCH   6  17
ATOM     17  C   UNL     1       2.402  -0.220  22.103  0.00  0.00    +0.127 C 
BRANCH  17  25
ATOM      1  S   UNL     1       4.198  -1.481  23.811  0.00  0.00    -0.100 S 
ATOM     25  C   UNL     1       3.680  -0.131  22.894  0.00  0.00    +0.004 A 
ATOM     27  C   UNL     1       4.550   0.931  23.002  0.00  0.00    +0.012 A 
ATOM     28  C   UNL     1       5.657   0.633  23.848  0.00  0.00    +0.008 A 
ATOM     29  C   UNL     1       5.590  -0.645  24.356  0.00  0.00    +0.045 A 
ENDBRANCH  17  25
ENDBRANCH   6  17
TORSDOF 7
ENDMDL
MODEL 2
REMARK VINA RESULT:       1.0      1.741      2.867
REMARK  Name = 45361174
REMARK  9 active torsions:
REMARK  status: ('A' for Active; 'I' for Inactive)
REMARK    1  A    between atoms: O_4  and  C_26
REMARK    2  A    between atoms: O_4  and  C_30
REMARK    3  A    between atoms: N_5  and  C_18
REMARK    4  A    between atoms: N_6  and  C_17
REMARK    5  A    between atoms: C_12  and  C_16
REMARK    6  A    between atoms: C_16  and  C_19
REMARK    7  A    between atoms: C_17  and  C_25
REMARK    8  A    between atoms: C_19  and  C_23
REMARK    9  A    between atoms: C_20  and  C_26
REMARK                            x       y       z     vdW  Elec       q    Type
REMARK                         _______ _______ _______ _____ _____    ______ ____
ROOT
ATOM      2  O   UNL     1      -0.514   2.046  23.459  0.00  0.00    -0.274 OA
ATOM      5  N   UNL     1      -2.899  -0.574  25.019  0.00  0.00    -0.296 NA
ATOM      6  N   UNL     1       0.532  -0.426  23.756  0.00  0.00    -0.285 NA
ATOM      7  N   UNL     1      -2.597   1.313  22.859  0.00  0.00    -0.312 N 
ATOM      9  C   UNL     1      -1.675  -1.170  24.440  0.00  0.00    +0.084 C 
ATOM     10  C   UNL     1      -0.890  -0.357  23.369  0.00  0.00    +0.161 C 
ATOM     11  C   UNL     1      -0.579  -1.477  25.476  0.00  0.00    +0.036 C 
ATOM     12  C   UNL     1      -3.999  -0.352  24.040  0.00  0.00    +0.074 C 
ATOM     13  C   UNL     1       0.679  -1.577  24.640  0.00  0.00    +0.087 C 
ATOM     14  C   UNL     1      -3.555   0.239  22.687  0.00  0.00    +0.123 C 
ATOM     15  C   UNL     1      -1.288   1.112  23.253  0.00  0.00    +0.232 C 
ATOM     18  C   UNL     1      -3.384  -1.375  26.156  0.00  0.00    +0.105 C 
ATOM     31  H   UNL     1      -2.902   2.266  22.688  0.00  0.00    +0.149 HD
ENDROOT
BRANCH  12  16
ATOM     16  C   UNL     1      -5.066   0.593  24.632  0.00  0.00    +0.029 C 
BRANCH  16  19
ATOM     19  C   UNL     1      -4.808   2.042  24.260  0.00  0.00    +0.097 C 
BRANCH  19  23
ATOM      3  O   UNL     1      -4.703   2.621  26.567  0.00  0.00    -0.276 OA
ATOM      8  N   UNL     1      -3.258   3.724  25.135  0.00  0.00    -0.296 N 
ATOM     20  C   UNL     1      -2.686   4.626  26.137  0.00  0.00    +0.102 C 
ATOM     21  C   UNL     1      -1.983   5.698  25.302  0.00  0.00    +0.026 C 
ATOM     22  C   UNL     1      -2.707   3.988  23.808  0.00  0.00    +0.108 C 
ATOM     23  C   UNL     1      -4.262   2.816  25.433  0.00  0.00    +0.216 C 
ATOM     24  C   UNL     1      -1.548   4.944  24.052  0.00  0.00    +0.021 C 
BRANCH  20  26
ATOM     26  C   UNL     1      -1.719   3.890  27.062  0.00  0.00    +0.181 C 
BRANCH  26   4
ATOM      4  O   UNL     1      -1.261   2.726  26.398  0.00  0.00    -0.381 OA
ATOM     30  C   UNL     1       0.150   2.573  26.514  0.00  0.00    +0.194 C 
ENDBRANCH  26   4
ENDBRANCH  20  26
ENDBRANCH  19  23
ENDBRANCH  16  19
ENDBRANCH  12  16
BRANCH   6  17
ATOM     17  C   UNL     1       1.437  -0.491  22.615  0.00  0.00    +0.127 C 
BRANCH  17  25
ATOM      1  S   UNL     1       3.739   1.067  22.706  0.00  0.00    -0.100 S 
ATOM     25  C   UNL     1       2.878  -0.376  23.037  0.00  0.00    +0.004 A 
ATOM     27  C   UNL     1       3.659  -1.305  23.687  0.00  0.00    +0.012 A 
ATOM     28  C   UNL     1       4.981  -0.827  23.917  0.00  0.00    +0.008 A 
ATOM     29  C   UNL     1       5.161   0.450  23.433  0.00  0.00    +0.045 A 
ENDBRANCH  17  25
ENDBRANCH   6  17
TORSDOF 7
ENDMDL
MODEL 3
REMARK VINA RESULT:       2.3      1.651      2.811
REMARK  Name = 45361174
REMARK  9 active torsions:
REMARK  status: ('A' for Active; 'I' for Inactive)
REMARK    1  A    between atoms: O_4  and  C_26
REMARK    2  A    between atoms: O_4  and  C_30
REMARK    3  A    between atoms: N_5  and  C_18
REMARK    4  A    between atoms: N_6  and  C_17
REMARK    5  A    between atoms: C_12  and  C_16
REMARK    6  A    between atoms: C_16  and  C_19
REMARK    7  A    between atoms: C_17  and  C_25
REMARK    8  A    between atoms: C_19  and  C_23
REMARK    9  A    between atoms: C_20  and  C_26
REMARK                            x       y       z     vdW  Elec       q    Type
REMARK                         _______ _______ _______ _____ _____    ______ ____
ROOT
ATOM      2  O   UNL     1      -0.367   1.909  23.266  0.00  0.00    -0.274 OA
ATOM      5  N   UNL     1      -2.825  -0.542  24.980  0.00  0.00    -0.296 NA
ATOM      6  N   UNL     1       0.611  -0.566  23.724  0.00  0.00    -0.285 NA
ATOM      7  N   UNL     1      -2.467   1.195  22.704  0.00  0.00    -0.312 N 
ATOM      9  C   UNL     1      -1.616  -1.206  24.445  0.00  0.00    +0.084 C 
ATOM     10  C   UNL     1      -0.807  -0.484  23.327  0.00  0.00    +0.161 C 
ATOM     11  C   UNL     1      -0.531  -1.475  25.503  0.00  0.00    +0.036 C 
ATOM     12  C   UNL     1      -3.916  -0.354  23.983  0.00  0.00    +0.074 C 
ATOM     13  C   UNL     1       0.726  -1.661  24.680  0.00  0.00    +0.087 C 
ATOM     14  C   UNL     1      -3.453   0.137  22.598  0.00  0.00    +0.123 C 
ATOM     15  C   UNL     1      -1.166   0.985  23.116  0.00  0.00    +0.232 C 
ATOM     18  C   UNL     1      -3.333  -1.255  26.164  0.00  0.00    +0.105 C 
ATOM     31  H   UNL     1      -2.747   2.143  22.472  0.00  0.00    +0.149 HD
ENDROOT
BRANCH  12  16
ATOM     16  C   UNL     1      -4.959   0.655  24.509  0.00  0.00    +0.029 C 
BRANCH  16  19
ATOM     19  C   UNL     1      -4.413   1.490  25.652  0.00  0.00    +0.097 C 
BRANCH  19  23
ATOM      3  O   UNL     1      -4.491   3.562  24.481  0.00  0.00    -0.276 OA
ATOM      8  N   UNL     1      -2.488   2.995  25.492  0.00  0.00    -0.296 N 
ATOM     20  C   UNL     1      -1.724   4.146  25.004  0.00  0.00    +0.102 C 
ATOM     21  C   UNL     1      -0.268   3.747  25.254  0.00  0.00    +0.026 C 
ATOM     22  C   UNL     1      -1.648   2.096  26.279  0.00  0.00    +0.108 C 
ATOM     23  C   UNL     1      -3.813   2.778  25.148  0.00  0.00    +0.216 C 
ATOM     24  C   UNL     1      -0.351   2.863  26.492  0.00  0.00    +0.021 C 
BRANCH  20  26
ATOM     26  C   UNL     1      -2.107   5.424  25.747  0.00  0.00    +0.181 C 
BRANCH  26   4
ATOM      4  O   UNL     1      -1.871   6.528  24.891  0.00  0.00    -0.381 OA
ATOM     30  C   UNL     1      -2.620   6.429  23.684  0.00  0.00    +0.194 C 
ENDBRANCH  26   4
ENDBRANCH  20  26
ENDBRANCH  19  23
ENDBRANCH  16  19
ENDBRANCH  12  16
BRANCH   6  17
ATOM     17  C   UNL     1       1.518  -0.727  22.593  0.00  0.00    +0.127 C 
BRANCH  17  25
ATOM      1  S   UNL     1       3.993  -1.397  23.669  0.00  0.00    -0.100 S 
ATOM     25  C   UNL     1       2.918  -0.288  22.931  0.00  0.00    +0.004 A 
ATOM     27  C   UNL     1       3.504   0.941  22.727  0.00  0.00    +0.012 A 
ATOM     28  C   UNL     1       4.853   0.973  23.183  0.00  0.00    +0.008 A 
ATOM     29  C   UNL     1       5.248  -0.233  23.718  0.00  0.00    +0.045 A 
ENDBRANCH  17  25
ENDBRANCH   6  17
TORSDOF 7
ENDMDL
MODEL 4
REMARK VINA RESULT:       3.4      2.495      6.641
REMARK  Name = 45361174
REMARK  9 active torsions:
REMARK  status: ('A' for Active; 'I' for Inactive)
REMARK    1  A    between atoms: O_4  and  C_26
REMARK    2  A    between atoms: O_4  and  C_30
REMARK    3  A    between atoms: N_5  and  C_18
REMARK    4  A    between atoms: N_6  and  C_17
REMARK    5  A    between atoms: C_12  and  C_16
REMARK    6  A    between atoms: C_16  and  C_19
REMARK    7  A    between atoms: C_17  and  C_25
REMARK    8  A    between atoms: C_19  and  C_23
REMARK    9  A    between atoms: C_20  and  C_26
REMARK                            x       y       z     vdW  Elec       q    Type
REMARK                         _______ _______ _______ _____ _____    ______ ____
ROOT
ATOM      2  O   UNL     1      -2.834   2.225  22.354  0.00  0.00    -0.274 OA
ATOM      5  N   UNL     1      -3.399  -0.893  24.578  0.00  0.00    -0.296 NA
ATOM      6  N   UNL     1      -4.689   2.519  24.294  0.00  0.00    -0.285 NA
ATOM      7  N   UNL     1      -1.409   0.966  23.627  0.00  0.00    -0.312 N 
ATOM      9  C   UNL     1      -4.036   0.330  25.113  0.00  0.00    +0.084 C 
ATOM     10  C   UNL     1      -3.503   1.714  24.638  0.00  0.00    +0.161 C 
ATOM     11  C   UNL     1      -5.539   0.441  24.799  0.00  0.00    +0.036 C 
ATOM     12  C   UNL     1      -1.966  -1.054  24.948  0.00  0.00    +0.074 C 
ATOM     13  C   UNL     1      -5.829   1.917  24.976  0.00  0.00    +0.087 C 
ATOM     14  C   UNL     1      -1.120   0.230  24.843  0.00  0.00    +0.123 C 
ATOM     15  C   UNL     1      -2.582   1.667  23.421  0.00  0.00    +0.232 C 
ATOM     18  C   UNL     1      -4.163  -2.092  24.963  0.00  0.00    +0.105 C 
ATOM     31  H   UNL     1      -0.718   0.963  22.883  0.00  0.00    +0.149 HD
ENDROOT
BRANCH  12  16
ATOM     16  C   UNL     1      -1.296  -2.125  24.061  0.00  0.00    +0.029 C 
BRANCH  16  19
ATOM     19  C   UNL     1      -0.267  -1.522  23.124  0.00  0.00    +0.097 C 
BRANCH  19  23
ATOM      3  O   UNL     1       1.218  -1.717  24.975  0.00  0.00    -0.276 OA
ATOM      8  N   UNL     1       2.005  -0.610  23.101  0.00  0.00    -0.296 N 
ATOM     20  C   UNL     1       3.299  -0.222  23.669  0.00  0.00    +0.102 C 
ATOM     21  C   UNL     1       3.810   0.853  22.706  0.00  0.00    +0.026 C 
ATOM     22  C   UNL     1       1.846  -0.094  21.744  0.00  0.00    +0.108 C 
ATOM     23  C   UNL     1       1.047  -1.297  23.829  0.00  0.00    +0.216 C 
ATOM     24  C   UNL     1       3.221   0.434  21.364  0.00  0.00    +0.021 C 
BRANCH  20  26
ATOM     26  C   UNL     1       4.249  -1.414  23.758  0.00  0.00    +0.181 C 
BRANCH  26   4
ATOM      4  O   UNL     1       5.434  -0.996  24.409  0.00  0.00    -0.381 OA
ATOM     30  C   UNL     1       6.280  -0.253  23.538  0.00  0.00    +0.194 C 
ENDBRANCH  26   4
ENDBRANCH  20  26
ENDBRANCH  19  23
ENDBRANCH  16  19
ENDBRANCH  12  16
BRANCH   6  17
ATOM     17  C   UNL     1      -4.540   3.933  24.619  0.00  0.00    +0.127 C 
BRANCH  17  25
ATOM      1  S   UNL     1      -2.282   3.582  26.204  0.00  0.00    -0.100 S 
ATOM     25  C   UNL     1      -3.103   4.297  24.883  0.00  0.00    +0.004 A 
ATOM     27  C   UNL     1      -2.297   5.169  24.185  0.00  0.00    +0.012 A 
ATOM     28  C   UNL     1      -0.988   5.251  24.742  0.00  0.00    +0.008 A 
ATOM     29  C   UNL     1      -0.843   4.439  25.846  0.00  0.00    +0.045 A 
ENDBRANCH  17  25
ENDBRANCH   6  17
TORSDOF 7
ENDMDL
MODEL 5
REMARK VINA RESULT:       3.9      1.503      3.243
REMARK  Name = 45361174
REMARK  9 active torsions:
REMARK  status: ('A' for Active; 'I' for Inactive)
REMARK    1  A    between atoms: O_4  and  C_26
REMARK    2  A    between atoms: O_4  and  C_30
REMARK    3  A    between atoms: N_5  and  C_18
REMARK    4  A    between atoms: N_6  and  C_17
REMARK    5  A    between atoms: C_12  and  C_16
REMARK    6  A    between atoms: C_16  and  C_19
REMARK    7  A    between atoms: C_17  and  C_25
REMARK    8  A    between atoms: C_19  and  C_23
REMARK    9  A    between atoms: C_20  and  C_26
REMARK                            x       y       z     vdW  Elec       q    Type
REMARK                         _______ _______ _______ _____ _____    ______ ____
ROOT
ATOM      2  O   UNL     1      -1.296  -0.111  23.415  0.00  0.00    -0.274 OA
ATOM      5  N   UNL     1      -0.450   3.428  24.739  0.00  0.00    -0.296 NA
ATOM      6  N   UNL     1       1.286   0.631  23.141  0.00  0.00    -0.285 NA
ATOM      7  N   UNL     1      -1.571   0.870  25.464  0.00  0.00    -0.312 N 
ATOM      9  C   UNL     1       0.748   2.619  24.425  0.00  0.00    +0.084 C 
ATOM     10  C   UNL     1       0.605   1.069  24.373  0.00  0.00    +0.161 C 
ATOM     11  C   UNL     1       1.371   2.929  23.052  0.00  0.00    +0.036 C 
ATOM     12  C   UNL     1      -1.010   3.198  26.099  0.00  0.00    +0.074 C 
ATOM     13  C   UNL     1       2.201   1.699  22.755  0.00  0.00    +0.087 C 
ATOM     14  C   UNL     1      -1.081   1.720  26.532  0.00  0.00    +0.123 C 
ATOM     15  C   UNL     1      -0.832   0.555  24.340  0.00  0.00    +0.232 C 
ATOM     18  C   UNL     1      -0.183   4.861  24.533  0.00  0.00    +0.105 C 
ATOM     31  H   UNL     1      -2.510   0.492  25.539  0.00  0.00    +0.149 HD
ENDROOT
BRANCH  12  16
ATOM     16  C   UNL     1      -2.436   3.780  26.202  0.00  0.00    +0.029 C 
BRANCH  16  19
ATOM     19  C   UNL     1      -2.982   4.182  24.844  0.00  0.00    +0.097 C 
BRANCH  19  23
ATOM      3  O   UNL     1      -3.161   2.610  23.065  0.00  0.00    -0.276 OA
ATOM      8  N   UNL     1      -4.695   2.433  24.788  0.00  0.00    -0.296 N 
ATOM     20  C   UNL     1      -5.483   1.348  24.198  0.00  0.00    +0.102 C 
ATOM     21  C   UNL     1      -6.775   1.351  25.018  0.00  0.00    +0.026 C 
ATOM     22  C   UNL     1      -5.263   2.869  26.061  0.00  0.00    +0.108 C 
ATOM     23  C   UNL     1      -3.613   3.007  24.141  0.00  0.00    +0.216 C 
ATOM     24  C   UNL     1      -6.321   1.827  26.393  0.00  0.00    +0.021 C 
BRANCH  20  26
ATOM     26  C   UNL     1      -4.747   0.013  24.287  0.00  0.00    +0.181 C 
BRANCH  26   4
ATOM      4  O   UNL     1      -4.256  -0.142  25.606  0.00  0.00    -0.381 OA
ATOM     30  C   UNL     1      -3.629  -1.407  25.790  0.00  0.00    +0.194 C 
ENDBRANCH  26   4
ENDBRANCH  20  26
ENDBRANCH  19  23
ENDBRANCH  16  19
ENDBRANCH  12  16
BRANCH   6  17
ATOM     17  C   UNL     1       1.968  -0.650  23.284  0.00  0.00    +0.127 C 
BRANCH  17  25
ATOM      1  S   UNL     1       4.409  -1.779  23.992  0.00  0.00    -0.100 S 
ATOM     25  C   UNL     1       3.459  -0.480  23.407  0.00  0.00    +0.004 A 
ATOM     27  C   UNL     1       4.224   0.624  23.105  0.00  0.00    +0.012 A 
ATOM     28  C   UNL     1       5.608   0.401  23.356  0.00  0.00    +0.008 A 
ATOM     29  C   UNL     1       5.849  -0.865  23.842  0.00  0.00    +0.045 A 
ENDBRANCH  17  25
ENDBRANCH   6  17
TORSDOF 7
ENDMDL
MODEL 6
REMARK VINA RESULT:       4.2      1.656      2.724
REMARK  Name = 45361174
REMARK  9 active torsions:
REMARK  status: ('A' for Active; 'I' for Inactive)
REMARK    1  A    between atoms: O_4  and  C_26
REMARK    2  A    between atoms: O_4  and  C_30
REMARK    3  A    between atoms: N_5  and  C_18
REMARK    4  A    between atoms: N_6  and  C_17
REMARK    5  A    between atoms: C_12  and  C_16
REMARK    6  A    between atoms: C_16  and  C_19
REMARK    7  A    between atoms: C_17  and  C_25
REMARK    8  A    between atoms: C_19  and  C_23
REMARK    9  A    between atoms: C_20  and  C_26
REMARK                            x       y       z     vdW  Elec       q    Type
REMARK                         _______ _______ _______ _____ _____    ______ ____
ROOT
ATOM      2  O   UNL     1      -0.391   1.887  23.699  0.00  0.00    -0.274 OA
ATOM      5  N   UNL     1      -2.502  -1.140  24.871  0.00  0.00    -0.296 NA
ATOM      6  N   UNL     1       0.898  -0.485  23.687  0.00  0.00    -0.285 NA
ATOM      7  N   UNL     1      -2.389   1.034  22.978  0.00  0.00    -0.312 N 
ATOM      9  C   UNL     1      -1.223  -1.529  24.237  0.00  0.00    +0.084 C 
ATOM     10  C   UNL     1      -0.522  -0.509  23.292  0.00  0.00    +0.161 C 
ATOM     11  C   UNL     1      -0.102  -1.858  25.240  0.00  0.00    +0.036 C 
ATOM     12  C   UNL     1      -3.617  -0.903  23.912  0.00  0.00    +0.074 C 
ATOM     13  C   UNL     1       1.160  -1.721  24.416  0.00  0.00    +0.087 C 
ATOM     14  C   UNL     1      -3.233  -0.099  22.655  0.00  0.00    +0.123 C 
ATOM     15  C   UNL     1      -1.067   0.916  23.363  0.00  0.00    +0.232 C 
ATOM     18  C   UNL     1      -2.904  -2.127  25.887  0.00  0.00    +0.105 C 
ATOM     31  H   UNL     1      -2.789   1.966  22.929  0.00  0.00    +0.149 HD
ENDROOT
BRANCH  12  16
ATOM     16  C   UNL     1      -4.775  -0.155  24.607  0.00  0.00    +0.029 C 
BRANCH  16  19
ATOM     19  C   UNL     1      -4.357   0.412  25.951  0.00  0.00    +0.097 C 
BRANCH  19  23
ATOM      3  O   UNL     1      -2.437   1.809  25.782  0.00  0.00    -0.276 OA
ATOM      8  N   UNL     1      -4.506   2.838  25.655  0.00  0.00    -0.296 N 
ATOM     20  C   UNL     1      -4.004   4.212  25.588  0.00  0.00    +0.102 C 
ATOM     21  C   UNL     1      -5.239   5.065  25.886  0.00  0.00    +0.026 C 
ATOM     22  C   UNL     1      -5.966   2.807  25.660  0.00  0.00    +0.108 C 
ATOM     23  C   UNL     1      -3.667   1.743  25.791  0.00  0.00    +0.216 C 
ATOM     24  C   UNL     1      -6.387   4.231  25.330  0.00  0.00    +0.021 C 
BRANCH  20  26
ATOM     26  C   UNL     1      -3.408   4.522  24.216  0.00  0.00    +0.181 C 
BRANCH  26   4
ATOM      4  O   UNL     1      -3.663   3.425  23.358  0.00  0.00    -0.381 OA
ATOM     30  C   UNL     1      -3.986   3.851  22.039  0.00  0.00    +0.194 C 
ENDBRANCH  26   4
ENDBRANCH  20  26
ENDBRANCH  19  23
ENDBRANCH  16  19
ENDBRANCH  12  16
BRANCH   6  17
ATOM     17  C   UNL     1       1.807  -0.310  22.560  0.00  0.00    +0.127 C 
BRANCH  17  25
ATOM      1  S   UNL     1       4.103  -1.356  23.731  0.00  0.00    -0.100 S 
ATOM     25  C   UNL     1       3.223  -0.073  23.016  0.00  0.00    +0.004 A 
ATOM     27  C   UNL     1       3.965   1.084  22.942  0.00  0.00    +0.012 A 
ATOM     28  C   UNL     1       5.274   0.916  23.480  0.00  0.00    +0.008 A 
ATOM     29  C   UNL     1       5.482  -0.364  23.945  0.00  0.00    +0.045 A 
ENDBRANCH  17  25
ENDBRANCH   6  17
TORSDOF 7
ENDMDL
MODEL 7
REMARK VINA RESULT:       4.2      2.409      6.488
REMARK  Name = 45361174
REMARK  9 active torsions:
REMARK  status: ('A' for Active; 'I' for Inactive)
REMARK    1  A    between atoms: O_4  and  C_26
REMARK    2  A    between atoms: O_4  and  C_30
REMARK    3  A    between atoms: N_5  and  C_18
REMARK    4  A    between atoms: N_6  and  C_17
REMARK    5  A    between atoms: C_12  and  C_16
REMARK    6  A    between atoms: C_16  and  C_19
REMARK    7  A    between atoms: C_17  and  C_25
REMARK    8  A    between atoms: C_19  and  C_23
REMARK    9  A    between atoms: C_20  and  C_26
REMARK                            x       y       z     vdW  Elec       q    Type
REMARK                         _______ _______ _______ _____ _____    ______ ____
ROOT
ATOM      2  O   UNL     1      -2.838   2.248  22.691  0.00  0.00    -0.274 OA
ATOM      5  N   UNL     1      -3.059  -1.210  24.419  0.00  0.00    -0.296 NA
ATOM      6  N   UNL     1      -4.758   2.027  24.577  0.00  0.00    -0.285 NA
ATOM      7  N   UNL     1      -1.296   0.995  23.827  0.00  0.00    -0.312 N 
ATOM      9  C   UNL     1      -3.855  -0.165  25.099  0.00  0.00    +0.084 C 
ATOM     10  C   UNL     1      -3.489   1.328  24.849  0.00  0.00    +0.161 C 
ATOM     11  C   UNL     1      -5.353  -0.190  24.745  0.00  0.00    +0.036 C 
ATOM     12  C   UNL     1      -1.625  -1.250  24.820  0.00  0.00    +0.074 C 
ATOM     13  C   UNL     1      -5.828   1.198  25.120  0.00  0.00    +0.087 C 
ATOM     14  C   UNL     1      -0.944   0.127  24.934  0.00  0.00    +0.123 C 
ATOM     15  C   UNL     1      -2.542   1.572  23.676  0.00  0.00    +0.232 C 
ATOM     18  C   UNL     1      -3.675  -2.536  24.597  0.00  0.00    +0.105 C 
ATOM     31  H   UNL     1      -0.594   1.184  23.118  0.00  0.00    +0.149 HD
ENDROOT
BRANCH  12  16
ATOM     16  C   UNL     1      -0.808  -2.091  23.816  0.00  0.00    +0.029 C 
BRANCH  16  19
ATOM     19  C   UNL     1       0.686  -1.905  24.005  0.00  0.00    +0.097 C 
BRANCH  19  23
ATOM      3  O   UNL     1       0.461  -0.212  22.347  0.00  0.00    -0.276 OA
ATOM      8  N   UNL     1       2.579  -0.576  23.203  0.00  0.00    -0.296 N 
ATOM     20  C   UNL     1       3.276   0.374  22.332  0.00  0.00    +0.102 C 
ATOM     21  C   UNL     1       4.750  -0.006  22.488  0.00  0.00    +0.026 C 
ATOM     22  C   UNL     1       3.514  -1.272  24.084  0.00  0.00    +0.108 C 
ATOM     23  C   UNL     1       1.219  -0.820  23.104  0.00  0.00    +0.216 C 
ATOM     24  C   UNL     1       4.832  -0.531  23.916  0.00  0.00    +0.021 C 
BRANCH  20  26
ATOM     26  C   UNL     1       3.006   1.817  22.752  0.00  0.00    +0.181 C 
BRANCH  26   4
ATOM      4  O   UNL     1       2.073   1.807  23.818  0.00  0.00    -0.381 OA
ATOM     30  C   UNL     1       1.045   2.773  23.628  0.00  0.00    +0.194 C 
ENDBRANCH  26   4
ENDBRANCH  20  26
ENDBRANCH  19  23
ENDBRANCH  16  19
ENDBRANCH  12  16
BRANCH   6  17
ATOM     17  C   UNL     1      -4.793   3.385  25.108  0.00  0.00    +0.127 C 
BRANCH  17  25
ATOM      1  S   UNL     1      -2.909   5.221  24.207  0.00  0.00    -0.100 S 
ATOM     25  C   UNL     1      -3.411   3.964  25.256  0.00  0.00    +0.004 A 
ATOM     27  C   UNL     1      -2.428   3.619  26.156  0.00  0.00    +0.012 A 
ATOM     28  C   UNL     1      -1.247   4.397  25.984  0.00  0.00    +0.008 A 
ATOM     29  C   UNL     1      -1.371   5.306  24.957  0.00  0.00    +0.045 A 
ENDBRANCH  17  25
ENDBRANCH   6  17
TORSDOF 7
ENDMDL
