MODEL 1
REMARK VINA RESULT:      -5.0      0.000      0.000
REMARK  Name = 75536725
REMARK  8 active torsions:
REMARK  status: ('A' for Active; 'I' for Inactive)
REMARK    1  A    between atoms: O_2  and  C_9
REMARK    2  A    between atoms: N_4  and  C_8
REMARK    3  A    between atoms: N_4  and  C_10
REMARK    4  A    between atoms: N_6  and  C_17
REMARK    5  A    between atoms: N_7  and  C_19
REMARK    6  A    between atoms: C_11  and  C_17
REMARK    7  A    between atoms: C_19  and  C_20
REMARK    8  A    between atoms: C_19  and  C_21
REMARK                            x       y       z     vdW  Elec       q    Type
REMARK                         _______ _______ _______ _____ _____    ______ ____
ROOT
ATOM      1  O   UNL     1      -2.196   2.945  23.263  0.00  0.00    -0.371 OA
ATOM      8  C   UNL     1      -4.180   2.112  24.268  0.00  0.00    +0.111 C 
ATOM      9  C   UNL     1      -3.293   2.708  25.345  0.00  0.00    +0.164 C 
ATOM     11  C   UNL     1      -2.398   3.619  24.517  0.00  0.00    +0.165 C 
ATOM     12  C   UNL     1      -3.185   1.908  23.137  0.00  0.00    +0.181 C 
ENDROOT
BRANCH   9   2
ATOM      2  O   UNL     1      -4.025   3.429  26.318  0.00  0.00    -0.388 OA
ATOM     24  H   UNL     1      -3.578   4.278  26.470  0.00  0.00    +0.210 HD
ENDBRANCH   9   2
BRANCH   8   4
ATOM      4  N   UNL     1      -4.839   0.880  24.670  0.00  0.00    -0.306 NA
ATOM     22  H   UNL     1      -5.693   0.745  24.130  0.00  0.00    +0.123 HD
BRANCH   4  10
ATOM      5  N   UNL     1      -3.253  -3.044  25.109  0.00  0.00    -0.316 NA
ATOM     10  C   UNL     1      -3.952  -0.267  24.486  0.00  0.00    +0.056 C 
ATOM     13  C   UNL     1      -4.708  -1.454  23.880  0.00  0.00    +0.034 C 
ATOM     14  C   UNL     1      -3.321  -0.669  25.824  0.00  0.00    +0.034 C 
ATOM     15  C   UNL     1      -3.808  -2.689  23.800  0.00  0.00    +0.082 C 
ATOM     16  C   UNL     1      -2.476  -1.935  25.668  0.00  0.00    +0.082 C 
ATOM     23  H   UNL     1      -2.649  -3.860  25.007  0.00  0.00    +0.122 HD
ENDBRANCH   4  10
ENDBRANCH   8   4
BRANCH  11  17
ATOM     17  C   UNL     1      -1.057   3.899  25.171  0.00  0.00    +0.140 C 
BRANCH  17   6
ATOM      3  O   UNL     1      -0.094   1.180  25.069  0.00  0.00    -0.253 OA
ATOM      6  N   UNL     1       0.026   3.395  24.376  0.00  0.00    -0.297 N 
ATOM      7  N   UNL     1       1.505   1.842  23.523  0.00  0.00    -0.297 N 
ATOM     18  C   UNL     1       0.432   2.057  24.385  0.00  0.00    +0.300 C 
ATOM     25  H   UNL     1       0.534   4.048  23.788  0.00  0.00    +0.150 HD
ATOM     26  H   UNL     1       1.821   2.614  22.944  0.00  0.00    +0.150 HD
BRANCH   7  19
ATOM     19  C   UNL     1       2.117   0.547  23.344  0.00  0.00    +0.068 C 
ATOM     20  C   UNL     1       3.540   0.700  22.824  0.00  0.00    +0.027 C 
ATOM     21  C   UNL     1       1.277  -0.316  22.410  0.00  0.00    +0.027 C 
ENDBRANCH   7  19
ENDBRANCH  17   6
ENDBRANCH  11  17
TORSDOF 6
ENDMDL
MODEL 2
REMARK VINA RESULT:      -4.9      2.021      4.682
REMARK  Name = 75536725
REMARK  8 active torsions:
REMARK  status: ('A' for Active; 'I' for Inactive)
REMARK    1  A    between atoms: O_2  and  C_9
REMARK    2  A    between atoms: N_4  and  C_8
REMARK    3  A    between atoms: N_4  and  C_10
REMARK    4  A    between atoms: N_6  and  C_17
REMARK    5  A    between atoms: N_7  and  C_19
REMARK    6  A    between atoms: C_11  and  C_17
REMARK    7  A    between atoms: C_19  and  C_20
REMARK    8  A    between atoms: C_19  and  C_21
REMARK                            x       y       z     vdW  Elec       q    Type
REMARK                         _______ _______ _______ _____ _____    ______ ____
ROOT
ATOM      1  O   UNL     1      -0.272   2.638  23.240  0.00  0.00    -0.371 OA
ATOM      8  C   UNL     1      -0.927   3.541  25.336  0.00  0.00    +0.111 C 
ATOM      9  C   UNL     1      -0.214   2.222  25.567  0.00  0.00    +0.164 C 
ATOM     11  C   UNL     1       0.564   2.077  24.267  0.00  0.00    +0.165 C 
ATOM     12  C   UNL     1      -1.296   3.431  23.866  0.00  0.00    +0.181 C 
ENDROOT
BRANCH   9   2
ATOM      2  O   UNL     1       0.641   2.253  26.693  0.00  0.00    -0.388 OA
ATOM     24  H   UNL     1       0.094   2.352  27.491  0.00  0.00    +0.210 HD
ENDBRANCH   9   2
BRANCH   8   4
ATOM      4  N   UNL     1      -2.083   3.738  26.196  0.00  0.00    -0.306 NA
ATOM     22  H   UNL     1      -2.111   4.701  26.532  0.00  0.00    +0.123 HD
BRANCH   4  10
ATOM      5  N   UNL     1      -5.971   2.178  25.450  0.00  0.00    -0.316 NA
ATOM     10  C   UNL     1      -3.319   3.427  25.482  0.00  0.00    +0.056 C 
ATOM     13  C   UNL     1      -4.529   4.062  26.177  0.00  0.00    +0.034 C 
ATOM     14  C   UNL     1      -3.505   1.910  25.380  0.00  0.00    +0.034 C 
ATOM     15  C   UNL     1      -5.832   3.636  25.498  0.00  0.00    +0.082 C 
ATOM     16  C   UNL     1      -4.849   1.569  24.732  0.00  0.00    +0.082 C 
ATOM     23  H   UNL     1      -6.842   1.940  24.977  0.00  0.00    +0.122 HD
ENDBRANCH   4  10
ENDBRANCH   8   4
BRANCH  11  17
ATOM     17  C   UNL     1       0.899   0.636  23.925  0.00  0.00    +0.140 C 
BRANCH  17   6
ATOM      3  O   UNL     1      -0.598  -0.997  25.775  0.00  0.00    -0.253 OA
ATOM      6  N   UNL     1      -0.286  -0.123  23.645  0.00  0.00    -0.297 N 
ATOM      7  N   UNL     1      -2.072  -1.524  24.062  0.00  0.00    -0.297 N 
ATOM     18  C   UNL     1      -0.954  -0.892  24.602  0.00  0.00    +0.300 C 
ATOM     25  H   UNL     1      -0.649  -0.112  22.697  0.00  0.00    +0.150 HD
ATOM     26  H   UNL     1      -2.326  -1.315  23.101  0.00  0.00    +0.150 HD
BRANCH   7  19
ATOM     19  C   UNL     1      -2.938  -2.379  24.837  0.00  0.00    +0.068 C 
ATOM     20  C   UNL     1      -4.050  -2.941  23.962  0.00  0.00    +0.027 C 
ATOM     21  C   UNL     1      -3.505  -1.623  26.033  0.00  0.00    +0.027 C 
ENDBRANCH   7  19
ENDBRANCH  17   6
ENDBRANCH  11  17
TORSDOF 6
ENDMDL
MODEL 3
REMARK VINA RESULT:      -4.7      1.992      4.926
REMARK  Name = 75536725
REMARK  8 active torsions:
REMARK  status: ('A' for Active; 'I' for Inactive)
REMARK    1  A    between atoms: O_2  and  C_9
REMARK    2  A    between atoms: N_4  and  C_8
REMARK    3  A    between atoms: N_4  and  C_10
REMARK    4  A    between atoms: N_6  and  C_17
REMARK    5  A    between atoms: N_7  and  C_19
REMARK    6  A    between atoms: C_11  and  C_17
REMARK    7  A    between atoms: C_19  and  C_20
REMARK    8  A    between atoms: C_19  and  C_21
REMARK                            x       y       z     vdW  Elec       q    Type
REMARK                         _______ _______ _______ _____ _____    ______ ____
ROOT
ATOM      1  O   UNL     1      -5.463   3.203  26.232  0.00  0.00    -0.371 OA
ATOM      8  C   UNL     1      -3.779   4.225  24.906  0.00  0.00    +0.111 C 
ATOM      9  C   UNL     1      -4.155   2.893  24.286  0.00  0.00    +0.164 C 
ATOM     11  C   UNL     1      -5.528   2.660  24.902  0.00  0.00    +0.165 C 
ATOM     12  C   UNL     1      -4.312   4.061  26.320  0.00  0.00    +0.181 C 
ENDROOT
BRANCH   9   2
ATOM      2  O   UNL     1      -4.213   2.945  22.873  0.00  0.00    -0.388 OA
ATOM     24  H   UNL     1      -4.023   2.057  22.526  0.00  0.00    +0.210 HD
ENDBRANCH   9   2
BRANCH   8   4
ATOM      4  N   UNL     1      -2.353   4.504  24.868  0.00  0.00    -0.306 NA
ATOM     22  H   UNL     1      -2.104   5.164  25.605  0.00  0.00    +0.123 HD
BRANCH   4  10
ATOM      5  N   UNL     1       1.008   1.949  25.400  0.00  0.00    -0.316 NA
ATOM     10  C   UNL     1      -1.579   3.275  25.025  0.00  0.00    +0.056 C 
ATOM     13  C   UNL     1      -0.868   3.243  26.382  0.00  0.00    +0.034 C 
ATOM     14  C   UNL     1      -0.558   3.142  23.890  0.00  0.00    +0.034 C 
ATOM     15  C   UNL     1       0.036   2.013  26.495  0.00  0.00    +0.082 C 
ATOM     16  C   UNL     1       0.333   1.916  24.100  0.00  0.00    +0.082 C 
ATOM     23  H   UNL     1       1.576   1.109  25.505  0.00  0.00    +0.122 HD
ENDBRANCH   4  10
ENDBRANCH   8   4
BRANCH  11  17
ATOM     17  C   UNL     1      -5.916   1.193  24.965  0.00  0.00    +0.140 C 
BRANCH  17   6
ATOM      3  O   UNL     1      -3.893  -0.084  23.350  0.00  0.00    -0.253 OA
ATOM      6  N   UNL     1      -4.825   0.384  25.427  0.00  0.00    -0.297 N 
ATOM      7  N   UNL     1      -2.935  -0.933  25.286  0.00  0.00    -0.297 N 
ATOM     18  C   UNL     1      -3.883  -0.202  24.575  0.00  0.00    +0.300 C 
ATOM     25  H   UNL     1      -4.741   0.216  26.424  0.00  0.00    +0.150 HD
ATOM     26  H   UNL     1      -2.967  -0.908  26.301  0.00  0.00    +0.150 HD
BRANCH   7  19
ATOM     19  C   UNL     1      -1.850  -1.638  24.645  0.00  0.00    +0.068 C 
ATOM     20  C   UNL     1      -2.239  -3.089  24.392  0.00  0.00    +0.027 C 
ATOM     21  C   UNL     1      -0.582  -1.545  25.485  0.00  0.00    +0.027 C 
ENDBRANCH   7  19
ENDBRANCH  17   6
ENDBRANCH  11  17
TORSDOF 6
ENDMDL
MODEL 4
REMARK VINA RESULT:      -4.6      2.080      4.828
REMARK  Name = 75536725
REMARK  8 active torsions:
REMARK  status: ('A' for Active; 'I' for Inactive)
REMARK    1  A    between atoms: O_2  and  C_9
REMARK    2  A    between atoms: N_4  and  C_8
REMARK    3  A    between atoms: N_4  and  C_10
REMARK    4  A    between atoms: N_6  and  C_17
REMARK    5  A    between atoms: N_7  and  C_19
REMARK    6  A    between atoms: C_11  and  C_17
REMARK    7  A    between atoms: C_19  and  C_20
REMARK    8  A    between atoms: C_19  and  C_21
REMARK                            x       y       z     vdW  Elec       q    Type
REMARK                         _______ _______ _______ _____ _____    ______ ____
ROOT
ATOM      1  O   UNL     1      -0.674   1.969  26.342  0.00  0.00    -0.371 OA
ATOM      8  C   UNL     1       0.024   0.203  24.916  0.00  0.00    +0.111 C 
ATOM      9  C   UNL     1       0.133   1.517  24.165  0.00  0.00    +0.164 C 
ATOM     11  C   UNL     1       0.178   2.510  25.318  0.00  0.00    +0.165 C 
ATOM     12  C   UNL     1      -0.914   0.581  26.051  0.00  0.00    +0.181 C 
ENDROOT
BRANCH   9   2
ATOM      2  O   UNL     1       1.293   1.591  23.360  0.00  0.00    -0.388 OA
ATOM     24  H   UNL     1       1.849   2.317  23.690  0.00  0.00    +0.210 HD
ENDBRANCH   9   2
BRANCH   8   4
ATOM      4  N   UNL     1      -0.482  -0.893  24.105  0.00  0.00    -0.306 NA
ATOM     22  H   UNL     1       0.139  -1.698  24.176  0.00  0.00    +0.123 HD
BRANCH   4  10
ATOM      5  N   UNL     1      -4.478  -2.333  23.856  0.00  0.00    -0.316 NA
ATOM     10  C   UNL     1      -1.830  -1.269  24.525  0.00  0.00    +0.056 C 
ATOM     13  C   UNL     1      -2.076  -2.765  24.304  0.00  0.00    +0.034 C 
ATOM     14  C   UNL     1      -2.872  -0.444  23.762  0.00  0.00    +0.034 C 
ATOM     15  C   UNL     1      -3.525  -3.133  24.630  0.00  0.00    +0.082 C 
ATOM     16  C   UNL     1      -4.290  -0.902  24.110  0.00  0.00    +0.082 C 
ATOM     23  H   UNL     1      -5.427  -2.599  24.116  0.00  0.00    +0.122 HD
ENDBRANCH   4  10
ENDBRANCH   8   4
BRANCH  11  17
ATOM     17  C   UNL     1      -0.302   3.898  24.933  0.00  0.00    +0.140 C 
BRANCH  17   6
ATOM      3  O   UNL     1      -2.820   2.961  23.878  0.00  0.00    -0.253 OA
ATOM      6  N   UNL     1      -1.611   4.162  25.458  0.00  0.00    -0.297 N 
ATOM      7  N   UNL     1      -3.913   4.076  25.594  0.00  0.00    -0.297 N 
ATOM     18  C   UNL     1      -2.787   3.668  24.884  0.00  0.00    +0.300 C 
ATOM     25  H   UNL     1      -1.688   4.751  26.281  0.00  0.00    +0.150 HD
ATOM     26  H   UNL     1      -3.779   4.597  26.456  0.00  0.00    +0.150 HD
BRANCH   7  19
ATOM     19  C   UNL     1      -5.255   3.704  25.213  0.00  0.00    +0.068 C 
ATOM     20  C   UNL     1      -6.242   4.792  25.616  0.00  0.00    +0.027 C 
ATOM     21  C   UNL     1      -5.632   2.361  25.828  0.00  0.00    +0.027 C 
ENDBRANCH   7  19
ENDBRANCH  17   6
ENDBRANCH  11  17
TORSDOF 6
ENDMDL
MODEL 5
REMARK VINA RESULT:      -4.5      1.702      4.821
REMARK  Name = 75536725
REMARK  8 active torsions:
REMARK  status: ('A' for Active; 'I' for Inactive)
REMARK    1  A    between atoms: O_2  and  C_9
REMARK    2  A    between atoms: N_4  and  C_8
REMARK    3  A    between atoms: N_4  and  C_10
REMARK    4  A    between atoms: N_6  and  C_17
REMARK    5  A    between atoms: N_7  and  C_19
REMARK    6  A    between atoms: C_11  and  C_17
REMARK    7  A    between atoms: C_19  and  C_20
REMARK    8  A    between atoms: C_19  and  C_21
REMARK                            x       y       z     vdW  Elec       q    Type
REMARK                         _______ _______ _______ _____ _____    ______ ____
ROOT
ATOM      1  O   UNL     1      -3.942   3.893  26.314  0.00  0.00    -0.371 OA
ATOM      8  C   UNL     1      -1.921   3.831  25.068  0.00  0.00    +0.111 C 
ATOM      9  C   UNL     1      -2.973   3.009  24.346  0.00  0.00    +0.164 C 
ATOM     11  C   UNL     1      -4.252   3.577  24.946  0.00  0.00    +0.165 C 
ATOM     12  C   UNL     1      -2.512   3.915  26.465  0.00  0.00    +0.181 C 
ENDROOT
BRANCH   9   2
ATOM      2  O   UNL     1      -2.929   3.177  22.942  0.00  0.00    -0.388 OA
ATOM     24  H   UNL     1      -2.798   2.305  22.533  0.00  0.00    +0.210 HD
ENDBRANCH   9   2
BRANCH   8   4
ATOM      4  N   UNL     1      -0.597   3.232  25.048  0.00  0.00    -0.306 NA
ATOM     22  H   UNL     1      -0.210   3.204  25.990  0.00  0.00    +0.123 HD
BRANCH   4  10
ATOM      5  N   UNL     1       0.519  -0.799  24.262  0.00  0.00    -0.316 NA
ATOM     10  C   UNL     1      -0.648   1.880  24.495  0.00  0.00    +0.056 C 
ATOM     13  C   UNL     1      -0.773   0.835  25.609  0.00  0.00    +0.034 C 
ATOM     14  C   UNL     1       0.601   1.605  23.651  0.00  0.00    +0.034 C 
ATOM     15  C   UNL     1      -0.705  -0.582  25.037  0.00  0.00    +0.082 C 
ATOM     16  C   UNL     1       0.615   0.157  23.155  0.00  0.00    +0.082 C 
ATOM     23  H   UNL     1       0.516  -1.747  23.887  0.00  0.00    +0.122 HD
ENDBRANCH   4  10
ENDBRANCH   8   4
BRANCH  11  17
ATOM     17  C   UNL     1      -5.420   2.608  24.895  0.00  0.00    +0.140 C 
BRANCH  17   6
ATOM      3  O   UNL     1      -4.048   0.539  23.424  0.00  0.00    -0.253 OA
ATOM      6  N   UNL     1      -5.043   1.310  25.377  0.00  0.00    -0.297 N 
ATOM      7  N   UNL     1      -4.133  -0.810  25.311  0.00  0.00    -0.297 N 
ATOM     18  C   UNL     1      -4.377   0.361  24.596  0.00  0.00    +0.300 C 
ATOM     25  H   UNL     1      -5.286   1.064  26.331  0.00  0.00    +0.150 HD
ATOM     26  H   UNL     1      -4.377  -0.833  26.296  0.00  0.00    +0.150 HD
BRANCH   7  19
ATOM     19  C   UNL     1      -3.460  -1.950  24.737  0.00  0.00    +0.068 C 
ATOM     20  C   UNL     1      -4.322  -2.586  23.654  0.00  0.00    +0.027 C 
ATOM     21  C   UNL     1      -3.102  -2.960  25.821  0.00  0.00    +0.027 C 
ENDBRANCH   7  19
ENDBRANCH  17   6
ENDBRANCH  11  17
TORSDOF 6
ENDMDL
MODEL 6
REMARK VINA RESULT:      -3.7      2.313      3.958
REMARK  Name = 75536725
REMARK  8 active torsions:
REMARK  status: ('A' for Active; 'I' for Inactive)
REMARK    1  A    between atoms: O_2  and  C_9
REMARK    2  A    between atoms: N_4  and  C_8
REMARK    3  A    between atoms: N_4  and  C_10
REMARK    4  A    between atoms: N_6  and  C_17
REMARK    5  A    between atoms: N_7  and  C_19
REMARK    6  A    between atoms: C_11  and  C_17
REMARK    7  A    between atoms: C_19  and  C_20
REMARK    8  A    between atoms: C_19  and  C_21
REMARK                            x       y       z     vdW  Elec       q    Type
REMARK                         _______ _______ _______ _____ _____    ______ ____
ROOT
ATOM      1  O   UNL     1      -0.004   3.452  24.165  0.00  0.00    -0.371 OA
ATOM      8  C   UNL     1      -2.144   4.355  24.660  0.00  0.00    +0.111 C 
ATOM      9  C   UNL     1      -1.741   3.401  25.769  0.00  0.00    +0.164 C 
ATOM     11  C   UNL     1      -0.231   3.354  25.582  0.00  0.00    +0.165 C 
ATOM     12  C   UNL     1      -1.209   3.927  23.541  0.00  0.00    +0.181 C 
ENDROOT
BRANCH   9   2
ATOM      2  O   UNL     1      -2.099   3.875  27.053  0.00  0.00    -0.388 OA
ATOM     24  H   UNL     1      -3.006   3.582  27.246  0.00  0.00    +0.210 HD
ENDBRANCH   9   2
BRANCH   8   4
ATOM      4  N   UNL     1      -3.547   4.263  24.292  0.00  0.00    -0.306 NA
ATOM     22  H   UNL     1      -3.639   4.124  23.286  0.00  0.00    +0.123 HD
BRANCH   4  10
ATOM      5  N   UNL     1      -6.469   1.333  25.284  0.00  0.00    -0.316 NA
ATOM     10  C   UNL     1      -4.199   3.165  25.003  0.00  0.00    +0.056 C 
ATOM     13  C   UNL     1      -4.386   1.951  24.087  0.00  0.00    +0.034 C 
ATOM     14  C   UNL     1      -5.553   3.622  25.558  0.00  0.00    +0.034 C 
ATOM     15  C   UNL     1      -5.175   0.849  24.797  0.00  0.00    +0.082 C 
ATOM     16  C   UNL     1      -6.296   2.455  26.210  0.00  0.00    +0.082 C 
ATOM     23  H   UNL     1      -6.953   0.573  25.763  0.00  0.00    +0.122 HD
ENDBRANCH   4  10
ENDBRANCH   8   4
BRANCH  11  17
ATOM     17  C   UNL     1       0.400   2.081  26.115  0.00  0.00    +0.140 C 
BRANCH  17   6
ATOM      3  O   UNL     1      -0.368   0.293  23.984  0.00  0.00    -0.253 OA
ATOM      6  N   UNL     1      -0.556   1.013  26.185  0.00  0.00    -0.297 N 
ATOM      7  N   UNL     1      -1.830  -0.763  25.444  0.00  0.00    -0.297 N 
ATOM     18  C   UNL     1      -0.873   0.189  25.101  0.00  0.00    +0.300 C 
ATOM     25  H   UNL     1      -1.038   0.858  27.064  0.00  0.00    +0.150 HD
ATOM     26  H   UNL     1      -2.131  -0.817  26.412  0.00  0.00    +0.150 HD
BRANCH   7  19
ATOM     19  C   UNL     1      -2.334  -1.738  24.506  0.00  0.00    +0.068 C 
ATOM     20  C   UNL     1      -3.605  -2.383  25.044  0.00  0.00    +0.027 C 
ATOM     21  C   UNL     1      -1.270  -2.786  24.202  0.00  0.00    +0.027 C 
ENDBRANCH   7  19
ENDBRANCH  17   6
ENDBRANCH  11  17
TORSDOF 6
ENDMDL
MODEL 7
REMARK VINA RESULT:      -3.6     14.787     16.991
REMARK  Name = 75536725
REMARK  8 active torsions:
REMARK  status: ('A' for Active; 'I' for Inactive)
REMARK    1  A    between atoms: O_2  and  C_9
REMARK    2  A    between atoms: N_4  and  C_8
REMARK    3  A    between atoms: N_4  and  C_10
REMARK    4  A    between atoms: N_6  and  C_17
REMARK    5  A    between atoms: N_7  and  C_19
REMARK    6  A    between atoms: C_11  and  C_17
REMARK    7  A    between atoms: C_19  and  C_20
REMARK    8  A    between atoms: C_19  and  C_21
REMARK                            x       y       z     vdW  Elec       q    Type
REMARK                         _______ _______ _______ _____ _____    ______ ____
ROOT
ATOM      1  O   UNL     1      -8.778  -9.823   9.949  0.00  0.00    -0.371 OA
ATOM      8  C   UNL     1      -8.685  -9.866  12.322  0.00  0.00    +0.111 C 
ATOM      9  C   UNL     1      -7.300  -9.565  11.777  0.00  0.00    +0.164 C 
ATOM     11  C   UNL     1      -7.637  -9.062  10.381  0.00  0.00    +0.165 C 
ATOM     12  C   UNL     1      -9.367 -10.456  11.098  0.00  0.00    +0.181 C 
ENDROOT
BRANCH   9   2
ATOM      2  O   UNL     1      -6.614  -8.590  12.538  0.00  0.00    -0.388 OA
ATOM     24  H   UNL     1      -5.747  -8.435  12.127  0.00  0.00    +0.210 HD
ENDBRANCH   9   2
BRANCH   8   4
ATOM      4  N   UNL     1      -8.680 -10.771  13.459  0.00  0.00    -0.306 NA
ATOM     22  H   UNL     1      -7.736 -11.115  13.631  0.00  0.00    +0.123 HD
BRANCH   4  10
ATOM      5  N   UNL     1      -9.269  -7.743  16.389  0.00  0.00    -0.316 NA
ATOM     10  C   UNL     1      -9.189 -10.104  14.655  0.00  0.00    +0.056 C 
ATOM     13  C   UNL     1      -9.985  -8.847  14.286  0.00  0.00    +0.034 C 
ATOM     14  C   UNL     1      -8.033  -9.741  15.593  0.00  0.00    +0.034 C 
ATOM     15  C   UNL     1     -10.414  -8.086  15.542  0.00  0.00    +0.082 C 
ATOM     16  C   UNL     1      -8.538  -8.945  16.798  0.00  0.00    +0.082 C 
ATOM     23  H   UNL     1      -9.600  -7.252  17.219  0.00  0.00    +0.122 HD
ENDBRANCH   4  10
ENDBRANCH   8   4
BRANCH  11  17
ATOM     17  C   UNL     1      -6.500  -9.235   9.390  0.00  0.00    +0.140 C 
BRANCH  17   6
ATOM      3  O   UNL     1      -4.058  -8.498  10.740  0.00  0.00    -0.253 OA
ATOM      6  N   UNL     1      -5.494 -10.121   9.900  0.00  0.00    -0.297 N 
ATOM      7  N   UNL     1      -3.531 -10.749  10.938  0.00  0.00    -0.297 N 
ATOM     18  C   UNL     1      -4.333  -9.682  10.545  0.00  0.00    +0.300 C 
ATOM     25  H   UNL     1      -5.624 -11.120   9.773  0.00  0.00    +0.150 HD
ATOM     26  H   UNL     1      -3.880 -11.693  10.799  0.00  0.00    +0.150 HD
BRANCH   7  19
ATOM     19  C   UNL     1      -2.273 -10.571  11.625  0.00  0.00    +0.068 C 
ATOM     20  C   UNL     1      -2.500 -10.462  13.127  0.00  0.00    +0.027 C 
ATOM     21  C   UNL     1      -1.540  -9.349  11.087  0.00  0.00    +0.027 C 
ENDBRANCH   7  19
ENDBRANCH  17   6
ENDBRANCH  11  17
TORSDOF 6
ENDMDL
MODEL 8
REMARK VINA RESULT:      -3.0     15.147     17.774
REMARK  Name = 75536725
REMARK  8 active torsions:
REMARK  status: ('A' for Active; 'I' for Inactive)
REMARK    1  A    between atoms: O_2  and  C_9
REMARK    2  A    between atoms: N_4  and  C_8
REMARK    3  A    between atoms: N_4  and  C_10
REMARK    4  A    between atoms: N_6  and  C_17
REMARK    5  A    between atoms: N_7  and  C_19
REMARK    6  A    between atoms: C_11  and  C_17
REMARK    7  A    between atoms: C_19  and  C_20
REMARK    8  A    between atoms: C_19  and  C_21
REMARK                            x       y       z     vdW  Elec       q    Type
REMARK                         _______ _______ _______ _____ _____    ______ ____
ROOT
ATOM      1  O   UNL     1      -6.659  -7.983  10.854  0.00  0.00    -0.371 OA
ATOM      8  C   UNL     1      -5.106  -9.013   9.381  0.00  0.00    +0.111 C 
ATOM      9  C   UNL     1      -6.210 -10.002   9.706  0.00  0.00    +0.164 C 
ATOM     11  C   UNL     1      -7.316  -9.064  10.171  0.00  0.00    +0.165 C 
ATOM     12  C   UNL     1      -5.263  -8.006  10.509  0.00  0.00    +0.181 C 
ENDROOT
BRANCH   9   2
ATOM      2  O   UNL     1      -6.605 -10.767   8.583  0.00  0.00    -0.388 OA
ATOM     24  H   UNL     1      -7.574 -10.838   8.587  0.00  0.00    +0.210 HD
ENDBRANCH   9   2
BRANCH   8   4
ATOM      4  N   UNL     1      -3.782  -9.611   9.336  0.00  0.00    -0.306 NA
ATOM     22  H   UNL     1      -3.229  -9.187   8.591  0.00  0.00    +0.123 HD
BRANCH   4  10
ATOM      5  N   UNL     1      -0.885 -10.157  12.405  0.00  0.00    -0.316 NA
ATOM     10  C   UNL     1      -3.095  -9.447  10.615  0.00  0.00    +0.056 C 
ATOM     13  C   UNL     1      -1.675  -8.909  10.411  0.00  0.00    +0.034 C 
ATOM     14  C   UNL     1      -3.051 -10.781  11.369  0.00  0.00    +0.034 C 
ATOM     15  C   UNL     1      -0.918  -8.852  11.740  0.00  0.00    +0.082 C 
ATOM     16  C   UNL     1      -2.241 -10.650  12.660  0.00  0.00    +0.082 C 
ATOM     23  H   UNL     1      -0.386 -10.070  13.290  0.00  0.00    +0.122 HD
ENDBRANCH   4  10
ENDBRANCH   8   4
BRANCH  11  17
ATOM     17  C   UNL     1      -8.314  -9.728  11.102  0.00  0.00    +0.140 C 
BRANCH  17   6
ATOM      3  O   UNL     1     -10.024  -9.779  13.427  0.00  0.00    -0.253 OA
ATOM      6  N   UNL     1      -7.912  -9.600  12.474  0.00  0.00    -0.297 N 
ATOM      7  N   UNL     1      -8.152  -9.488  14.767  0.00  0.00    -0.297 N 
ATOM     18  C   UNL     1      -8.808  -9.635  13.547  0.00  0.00    +0.300 C 
ATOM     25  H   UNL     1      -6.927  -9.462  12.674  0.00  0.00    +0.150 HD
ATOM     26  H   UNL     1      -7.137  -9.451  14.767  0.00  0.00    +0.150 HD
BRANCH   7  19
ATOM     19  C   UNL     1      -8.845  -9.488  16.033  0.00  0.00    +0.068 C 
ATOM     20  C   UNL     1      -9.430  -8.110  16.317  0.00  0.00    +0.027 C 
ATOM     21  C   UNL     1      -7.912  -9.933  17.152  0.00  0.00    +0.027 C 
ENDBRANCH   7  19
ENDBRANCH  17   6
ENDBRANCH  11  17
TORSDOF 6
ENDMDL
MODEL 9
REMARK VINA RESULT:      -2.4     14.670     16.813
REMARK  Name = 75536725
REMARK  8 active torsions:
REMARK  status: ('A' for Active; 'I' for Inactive)
REMARK    1  A    between atoms: O_2  and  C_9
REMARK    2  A    between atoms: N_4  and  C_8
REMARK    3  A    between atoms: N_4  and  C_10
REMARK    4  A    between atoms: N_6  and  C_17
REMARK    5  A    between atoms: N_7  and  C_19
REMARK    6  A    between atoms: C_11  and  C_17
REMARK    7  A    between atoms: C_19  and  C_20
REMARK    8  A    between atoms: C_19  and  C_21
REMARK                            x       y       z     vdW  Elec       q    Type
REMARK                         _______ _______ _______ _____ _____    ______ ____
ROOT
ATOM      1  O   UNL     1      -5.383  -9.686   9.149  0.00  0.00    -0.371 OA
ATOM      8  C   UNL     1      -7.207  -9.521  10.662  0.00  0.00    +0.111 C 
ATOM      9  C   UNL     1      -5.931  -9.759  11.448  0.00  0.00    +0.164 C 
ATOM     11  C   UNL     1      -4.879  -9.313  10.442  0.00  0.00    +0.165 C 
ATOM     12  C   UNL     1      -6.789  -9.965   9.270  0.00  0.00    +0.181 C 
ENDROOT
BRANCH   9   2
ATOM      2  O   UNL     1      -5.876  -9.001  12.641  0.00  0.00    -0.388 OA
ATOM     24  H   UNL     1      -6.497  -8.257  12.560  0.00  0.00    +0.210 HD
ENDBRANCH   9   2
BRANCH   8   4
ATOM      4  N   UNL     1      -8.352 -10.257  11.171  0.00  0.00    -0.306 NA
ATOM     22  H   UNL     1      -8.128 -11.249  11.245  0.00  0.00    +0.123 HD
BRANCH   4  10
ATOM      5  N   UNL     1     -10.421  -9.986  14.879  0.00  0.00    -0.316 NA
ATOM     10  C   UNL     1      -8.759  -9.744  12.477  0.00  0.00    +0.056 C 
ATOM     13  C   UNL     1      -8.449 -10.755  13.585  0.00  0.00    +0.034 C 
ATOM     14  C   UNL     1     -10.255  -9.409  12.472  0.00  0.00    +0.034 C 
ATOM     15  C   UNL     1      -8.984 -10.268  14.933  0.00  0.00    +0.082 C 
ATOM     16  C   UNL     1     -10.719  -8.973  13.863  0.00  0.00    +0.082 C 
ATOM     23  H   UNL     1     -10.732  -9.650  15.791  0.00  0.00    +0.122 HD
ENDBRANCH   4  10
ENDBRANCH   8   4
BRANCH  11  17
ATOM     17  C   UNL     1      -3.522  -9.957  10.668  0.00  0.00    +0.140 C 
BRANCH  17   6
ATOM      3  O   UNL     1      -1.201  -9.450  12.307  0.00  0.00    -0.253 OA
ATOM      6  N   UNL     1      -3.340 -10.320  12.044  0.00  0.00    -0.297 N 
ATOM      7  N   UNL     1      -2.268 -10.500  14.080  0.00  0.00    -0.297 N 
ATOM     18  C   UNL     1      -2.179 -10.037  12.770  0.00  0.00    +0.300 C 
ATOM     25  H   UNL     1      -4.088 -10.822  12.511  0.00  0.00    +0.150 HD
ATOM     26  H   UNL     1      -3.146 -10.905  14.390  0.00  0.00    +0.150 HD
BRANCH   7  19
ATOM     19  C   UNL     1      -1.204 -10.336  15.042  0.00  0.00    +0.068 C 
ATOM     20  C   UNL     1      -1.665 -10.781  16.424  0.00  0.00    +0.027 C 
ATOM     21  C   UNL     1      -0.717  -8.892  15.060  0.00  0.00    +0.027 C 
ENDBRANCH   7  19
ENDBRANCH  17   6
ENDBRANCH  11  17
TORSDOF 6
ENDMDL
MODEL 10
REMARK VINA RESULT:      -2.4      2.098      5.089
REMARK  Name = 75536725
REMARK  8 active torsions:
REMARK  status: ('A' for Active; 'I' for Inactive)
REMARK    1  A    between atoms: O_2  and  C_9
REMARK    2  A    between atoms: N_4  and  C_8
REMARK    3  A    between atoms: N_4  and  C_10
REMARK    4  A    between atoms: N_6  and  C_17
REMARK    5  A    between atoms: N_7  and  C_19
REMARK    6  A    between atoms: C_11  and  C_17
REMARK    7  A    between atoms: C_19  and  C_20
REMARK    8  A    between atoms: C_19  and  C_21
REMARK                            x       y       z     vdW  Elec       q    Type
REMARK                         _______ _______ _______ _____ _____    ______ ____
ROOT
ATOM      1  O   UNL     1      -0.833   2.900  26.458  0.00  0.00    -0.371 OA
ATOM      8  C   UNL     1       0.357   1.863  24.683  0.00  0.00    +0.111 C 
ATOM      9  C   UNL     1      -0.429   3.038  24.132  0.00  0.00    +0.164 C 
ATOM     11  C   UNL     1      -0.662   3.854  25.395  0.00  0.00    +0.165 C 
ATOM     12  C   UNL     1      -0.350   1.622  26.007  0.00  0.00    +0.181 C 
ENDROOT
BRANCH   9   2
ATOM      2  O   UNL     1       0.292   3.768  23.158  0.00  0.00    -0.388 OA
ATOM     24  H   UNL     1      -0.051   3.529  22.280  0.00  0.00    +0.210 HD
ENDBRANCH   9   2
BRANCH   8   4
ATOM      4  N   UNL     1       0.348   0.696  23.816  0.00  0.00    -0.306 NA
ATOM     22  H   UNL     1       1.138   0.090  24.034  0.00  0.00    +0.123 HD
BRANCH   4  10
ATOM      5  N   UNL     1      -3.442  -0.469  25.362  0.00  0.00    -0.316 NA
ATOM     10  C   UNL     1      -0.901  -0.049  23.963  0.00  0.00    +0.056 C 
ATOM     13  C   UNL     1      -2.113   0.863  23.744  0.00  0.00    +0.034 C 
ATOM     14  C   UNL     1      -0.971  -0.698  25.349  0.00  0.00    +0.034 C 
ATOM     15  C   UNL     1      -3.417   0.109  24.016  0.00  0.00    +0.082 C 
ATOM     16  C   UNL     1      -2.320  -1.390  25.558  0.00  0.00    +0.082 C 
ATOM     23  H   UNL     1      -4.318  -0.973  25.495  0.00  0.00    +0.122 HD
ENDBRANCH   4  10
ENDBRANCH   8   4
BRANCH  11  17
ATOM     17  C   UNL     1      -1.883   4.753  25.313  0.00  0.00    +0.140 C 
BRANCH  17   6
ATOM      3  O   UNL     1      -4.239   3.520  24.191  0.00  0.00    -0.253 OA
ATOM      6  N   UNL     1      -2.992   4.194  26.032  0.00  0.00    -0.297 N 
ATOM      7  N   UNL     1      -5.027   3.151  26.342  0.00  0.00    -0.297 N 
ATOM     18  C   UNL     1      -4.101   3.613  25.410  0.00  0.00    +0.300 C 
ATOM     25  H   UNL     1      -2.976   4.237  27.046  0.00  0.00    +0.150 HD
ATOM     26  H   UNL     1      -4.788   3.206  27.328  0.00  0.00    +0.150 HD
BRANCH   7  19
ATOM     19  C   UNL     1      -6.264   2.509  25.964  0.00  0.00    +0.068 C 
ATOM     20  C   UNL     1      -6.703   1.528  27.044  0.00  0.00    +0.027 C 
ATOM     21  C   UNL     1      -6.114   1.815  24.616  0.00  0.00    +0.027 C 
ENDBRANCH   7  19
ENDBRANCH  17   6
ENDBRANCH  11  17
TORSDOF 6
ENDMDL
