MODEL 1
REMARK VINA RESULT:      -6.4      0.000      0.000
REMARK  Name = 26742943
REMARK  12 active torsions:
REMARK  status: ('A' for Active; 'I' for Inactive)
REMARK    1  A    between atoms: N_5  and  C_20
REMARK    2  A    between atoms: N_7  and  C_22
REMARK    3  A    between atoms: C_8  and  C_14
REMARK    4  A    between atoms: C_9  and  C_12
REMARK    5  A    between atoms: C_12  and  C_15
REMARK    6  A    between atoms: C_14  and  C_16
REMARK    7  A    between atoms: C_18  and  C_19
REMARK    8  A    between atoms: C_19  and  C_21
REMARK    9  A    between atoms: C_20  and  C_22
REMARK   10  A    between atoms: C_21  and  C_23
REMARK   11  A    between atoms: C_23  and  C_24
REMARK   12  A    between atoms: C_25  and  C_26
REMARK                            x       y       z     vdW  Elec       q    Type
REMARK                         _______ _______ _______ _____ _____    ______ ____
ROOT
ATOM      4  N   UNL     1      -2.109  -3.104  24.556  0.00  0.00    -0.316 NA
ATOM      8  C   UNL     1      -3.660  -0.633  24.113  0.00  0.00    +0.004 C 
ATOM      9  C   UNL     1      -2.113  -0.664  24.099  0.00  0.00    +0.012 C 
ATOM     10  C   UNL     1      -4.192  -2.036  23.771  0.00  0.00    +0.019 C 
ATOM     11  C   UNL     1      -1.559  -1.810  24.962  0.00  0.00    +0.085 C 
ATOM     13  C   UNL     1      -3.568  -3.125  24.640  0.00  0.00    +0.081 C 
ATOM     27  H   UNL     1      -1.727  -3.836  25.156  0.00  0.00    +0.122 HD
ENDROOT
BRANCH   9  12
ATOM     12  C   UNL     1      -1.484   0.669  24.508  0.00  0.00    +0.064 C 
BRANCH  12  15
ATOM      1  O   UNL     1       1.903   1.623  23.750  0.00  0.00    -0.359 OA
ATOM      6  N   UNL     1       0.676   1.831  24.367  0.00  0.00    -0.083 NA
ATOM     15  C   UNL     1      -0.071   0.782  24.013  0.00  0.00    +0.084 A 
ATOM     17  C   UNL     1       0.624  -0.112  23.180  0.00  0.00    +0.071 A 
ATOM     18  C   UNL     1       1.860   0.464  23.046  0.00  0.00    +0.138 A 
BRANCH  18  19
ATOM     19  C   UNL     1       3.083   0.088  22.326  0.00  0.00    +0.077 C 
BRANCH  19  21
ATOM     21  C   UNL     1       4.294   0.978  22.685  0.00  0.00    +0.007 C 
BRANCH  21  23
ATOM     23  C   UNL     1       5.336   0.240  23.526  0.00  0.00    -0.003 C 
ATOM     24  C   UNL     1       4.844  -1.138  23.940  0.00  0.00    +0.004 C 
ENDBRANCH  21  23
ENDBRANCH  19  21
ENDBRANCH  18  19
ENDBRANCH  12  15
ENDBRANCH   9  12
BRANCH   8  14
ATOM     14  C   UNL     1      -4.262  -0.129  25.430  0.00  0.00    +0.099 C 
BRANCH  14  16
ATOM      2  O   UNL     1      -5.918   1.567  25.915  0.00  0.00    -0.276 OA
ATOM      5  N   UNL     1      -4.278   1.996  24.326  0.00  0.00    -0.314 N 
ATOM     16  C   UNL     1      -4.929   1.222  25.275  0.00  0.00    +0.213 C 
ATOM     28  H   UNL     1      -3.459   1.620  23.854  0.00  0.00    +0.149 HD
BRANCH   5  20
ATOM     20  C   UNL     1      -4.700   3.331  23.972  0.00  0.00    +0.123 C 
BRANCH  20  22
ATOM     22  C   UNL     1      -4.283   4.355  25.015  0.00  0.00    +0.123 C 
BRANCH  22   7
ATOM      3  O   UNL     1      -1.783   3.403  26.143  0.00  0.00    -0.276 OA
ATOM      7  N   UNL     1      -2.962   4.870  24.772  0.00  0.00    -0.314 N 
ATOM     25  C   UNL     1      -1.818   4.349  25.360  0.00  0.00    +0.210 C 
ATOM     26  C   UNL     1      -0.567   5.058  24.914  0.00  0.00    +0.109 C 
ATOM     29  H   UNL     1      -2.871   5.646  24.122  0.00  0.00    +0.149 HD
ENDBRANCH  22   7
ENDBRANCH  20  22
ENDBRANCH   5  20
ENDBRANCH  14  16
ENDBRANCH   8  14
TORSDOF 10
ENDMDL
MODEL 2
REMARK VINA RESULT:      -5.7      1.609      6.209
REMARK  Name = 26742943
REMARK  12 active torsions:
REMARK  status: ('A' for Active; 'I' for Inactive)
REMARK    1  A    between atoms: N_5  and  C_20
REMARK    2  A    between atoms: N_7  and  C_22
REMARK    3  A    between atoms: C_8  and  C_14
REMARK    4  A    between atoms: C_9  and  C_12
REMARK    5  A    between atoms: C_12  and  C_15
REMARK    6  A    between atoms: C_14  and  C_16
REMARK    7  A    between atoms: C_18  and  C_19
REMARK    8  A    between atoms: C_19  and  C_21
REMARK    9  A    between atoms: C_20  and  C_22
REMARK   10  A    between atoms: C_21  and  C_23
REMARK   11  A    between atoms: C_23  and  C_24
REMARK   12  A    between atoms: C_25  and  C_26
REMARK                            x       y       z     vdW  Elec       q    Type
REMARK                         _______ _______ _______ _____ _____    ______ ____
ROOT
ATOM      4  N   UNL     1      -3.502  -3.206  24.341  0.00  0.00    -0.316 NA
ATOM      8  C   UNL     1      -2.893  -0.424  25.115  0.00  0.00    +0.004 C 
ATOM      9  C   UNL     1      -4.319  -0.897  24.743  0.00  0.00    +0.012 C 
ATOM     10  C   UNL     1      -2.076  -1.633  25.603  0.00  0.00    +0.019 C 
ATOM     11  C   UNL     1      -4.288  -2.102  23.789  0.00  0.00    +0.085 C 
ATOM     13  C   UNL     1      -2.125  -2.805  24.624  0.00  0.00    +0.081 C 
ATOM     27  H   UNL     1      -3.497  -3.981  23.677  0.00  0.00    +0.122 HD
ENDROOT
BRANCH   9  12
ATOM     12  C   UNL     1      -5.189   0.223  24.168  0.00  0.00    +0.064 C 
BRANCH  12  15
ATOM      1  O   UNL     1      -5.369   3.072  26.359  0.00  0.00    -0.359 OA
ATOM      6  N   UNL     1      -5.840   1.853  25.886  0.00  0.00    -0.083 NA
ATOM     15  C   UNL     1      -4.988   1.509  24.915  0.00  0.00    +0.084 A 
ATOM     17  C   UNL     1      -3.972   2.463  24.732  0.00  0.00    +0.071 A 
ATOM     18  C   UNL     1      -4.258   3.425  25.665  0.00  0.00    +0.138 A 
BRANCH  18  19
ATOM     19  C   UNL     1      -3.627   4.697  26.039  0.00  0.00    +0.077 C 
BRANCH  19  21
ATOM     21  C   UNL     1      -2.087   4.606  26.124  0.00  0.00    +0.007 C 
BRANCH  21  23
ATOM     23  C   UNL     1      -1.391   5.373  24.999  0.00  0.00    -0.003 C 
ATOM     24  C   UNL     1      -0.409   4.490  24.247  0.00  0.00    +0.004 C 
ENDBRANCH  21  23
ENDBRANCH  19  21
ENDBRANCH  18  19
ENDBRANCH  12  15
ENDBRANCH   9  12
BRANCH   8  14
ATOM     14  C   UNL     1      -2.162   0.305  23.981  0.00  0.00    +0.099 C 
BRANCH  14  16
ATOM      2  O   UNL     1      -0.574   1.304  25.509  0.00  0.00    -0.276 OA
ATOM      5  N   UNL     1       0.138   0.630  23.402  0.00  0.00    -0.314 N 
ATOM     16  C   UNL     1      -0.799   0.807  24.409  0.00  0.00    +0.213 C 
ATOM     28  H   UNL     1      -0.148   0.200  22.526  0.00  0.00    +0.149 HD
BRANCH   5  20
ATOM     20  C   UNL     1       1.523   1.021  23.535  0.00  0.00    +0.123 C 
BRANCH  20  22
ATOM     22  C   UNL     1       2.440   0.169  22.673  0.00  0.00    +0.123 C 
BRANCH  22   7
ATOM      3  O   UNL     1       4.383  -1.620  23.876  0.00  0.00    -0.276 OA
ATOM      7  N   UNL     1       3.830   0.435  22.932  0.00  0.00    -0.314 N 
ATOM     25  C   UNL     1       4.688  -0.487  23.515  0.00  0.00    +0.210 C 
ATOM     26  C   UNL     1       6.092   0.039  23.649  0.00  0.00    +0.109 C 
ATOM     29  H   UNL     1       4.196   1.342  22.655  0.00  0.00    +0.149 HD
ENDBRANCH  22   7
ENDBRANCH  20  22
ENDBRANCH   5  20
ENDBRANCH  14  16
ENDBRANCH   8  14
TORSDOF 10
ENDMDL
MODEL 3
REMARK VINA RESULT:      -5.6      1.799      6.592
REMARK  Name = 26742943
REMARK  12 active torsions:
REMARK  status: ('A' for Active; 'I' for Inactive)
REMARK    1  A    between atoms: N_5  and  C_20
REMARK    2  A    between atoms: N_7  and  C_22
REMARK    3  A    between atoms: C_8  and  C_14
REMARK    4  A    between atoms: C_9  and  C_12
REMARK    5  A    between atoms: C_12  and  C_15
REMARK    6  A    between atoms: C_14  and  C_16
REMARK    7  A    between atoms: C_18  and  C_19
REMARK    8  A    between atoms: C_19  and  C_21
REMARK    9  A    between atoms: C_20  and  C_22
REMARK   10  A    between atoms: C_21  and  C_23
REMARK   11  A    between atoms: C_23  and  C_24
REMARK   12  A    between atoms: C_25  and  C_26
REMARK                            x       y       z     vdW  Elec       q    Type
REMARK                         _______ _______ _______ _____ _____    ______ ____
ROOT
ATOM      4  N   UNL     1      -1.828   5.885  25.172  0.00  0.00    -0.316 NA
ATOM      8  C   UNL     1      -1.587   3.019  24.513  0.00  0.00    +0.004 C 
ATOM      9  C   UNL     1      -2.946   3.699  24.808  0.00  0.00    +0.012 C 
ATOM     10  C   UNL     1      -0.590   4.084  24.022  0.00  0.00    +0.019 C 
ATOM     11  C   UNL     1      -2.782   4.923  25.724  0.00  0.00    +0.085 C 
ATOM     13  C   UNL     1      -0.512   5.286  24.961  0.00  0.00    +0.081 C 
ATOM     27  H   UNL     1      -1.739   6.676  25.811  0.00  0.00    +0.122 HD
ENDROOT
BRANCH   9  12
ATOM     12  C   UNL     1      -3.986   2.734  25.380  0.00  0.00    +0.064 C 
BRANCH  12  15
ATOM      1  O   UNL     1      -3.692   0.048  23.002  0.00  0.00    -0.359 OA
ATOM      6  N   UNL     1      -3.572   1.382  23.371  0.00  0.00    -0.083 NA
ATOM     15  C   UNL     1      -3.982   1.426  24.642  0.00  0.00    +0.084 A 
ATOM     17  C   UNL     1      -4.369   0.164  25.123  0.00  0.00    +0.071 A 
ATOM     18  C   UNL     1      -4.167  -0.668  24.052  0.00  0.00    +0.138 A 
BRANCH  18  19
ATOM     19  C   UNL     1      -4.355  -2.107  23.834  0.00  0.00    +0.077 C 
BRANCH  19  21
ATOM     21  C   UNL     1      -3.640  -2.977  24.892  0.00  0.00    +0.007 C 
BRANCH  21  23
ATOM     23  C   UNL     1      -2.161  -2.618  25.044  0.00  0.00    -0.003 C 
ATOM     24  C   UNL     1      -1.374  -2.954  23.787  0.00  0.00    +0.004 C 
ENDBRANCH  21  23
ENDBRANCH  19  21
ENDBRANCH  18  19
ENDBRANCH  12  15
ENDBRANCH   9  12
BRANCH   8  14
ATOM     14  C   UNL     1      -1.010   2.237  25.699  0.00  0.00    +0.099 C 
BRANCH  14  16
ATOM      2  O   UNL     1      -0.842  -0.161  25.972  0.00  0.00    -0.276 OA
ATOM      5  N   UNL     1       0.135   0.848  24.121  0.00  0.00    -0.314 N 
ATOM     16  C   UNL     1      -0.580   0.839  25.308  0.00  0.00    +0.213 C 
ATOM     28  H   UNL     1       0.292   1.731  23.641  0.00  0.00    +0.149 HD
BRANCH   5  20
ATOM     20  C   UNL     1       0.670  -0.348  23.512  0.00  0.00    +0.123 C 
BRANCH  20  22
ATOM     22  C   UNL     1       1.793  -0.037  22.536  0.00  0.00    +0.123 C 
BRANCH  22   7
ATOM      3  O   UNL     1       4.193   1.595  22.499  0.00  0.00    -0.276 OA
ATOM      7  N   UNL     1       3.086  -0.371  23.072  0.00  0.00    -0.314 N 
ATOM     25  C   UNL     1       4.182   0.477  23.007  0.00  0.00    +0.210 C 
ATOM     26  C   UNL     1       5.403  -0.108  23.666  0.00  0.00    +0.109 C 
ATOM     29  H   UNL     1       3.186  -1.271  23.534  0.00  0.00    +0.149 HD
ENDBRANCH  22   7
ENDBRANCH  20  22
ENDBRANCH   5  20
ENDBRANCH  14  16
ENDBRANCH   8  14
TORSDOF 10
ENDMDL
MODEL 4
REMARK VINA RESULT:      -4.3      2.036      6.211
REMARK  Name = 26742943
REMARK  12 active torsions:
REMARK  status: ('A' for Active; 'I' for Inactive)
REMARK    1  A    between atoms: N_5  and  C_20
REMARK    2  A    between atoms: N_7  and  C_22
REMARK    3  A    between atoms: C_8  and  C_14
REMARK    4  A    between atoms: C_9  and  C_12
REMARK    5  A    between atoms: C_12  and  C_15
REMARK    6  A    between atoms: C_14  and  C_16
REMARK    7  A    between atoms: C_18  and  C_19
REMARK    8  A    between atoms: C_19  and  C_21
REMARK    9  A    between atoms: C_20  and  C_22
REMARK   10  A    between atoms: C_21  and  C_23
REMARK   11  A    between atoms: C_23  and  C_24
REMARK   12  A    between atoms: C_25  and  C_26
REMARK                            x       y       z     vdW  Elec       q    Type
REMARK                         _______ _______ _______ _____ _____    ______ ____
ROOT
ATOM      4  N   UNL     1       2.703   0.807  22.302  0.00  0.00    -0.316 NA
ATOM      8  C   UNL     1       0.105   0.127  23.525  0.00  0.00    +0.004 C 
ATOM      9  C   UNL     1       0.889   1.412  23.886  0.00  0.00    +0.012 C 
ATOM     10  C   UNL     1       0.520  -0.336  22.118  0.00  0.00    +0.019 C 
ATOM     11  C   UNL     1       2.401   1.234  23.669  0.00  0.00    +0.085 C 
ATOM     13  C   UNL     1       2.036  -0.450  21.966  0.00  0.00    +0.081 C 
ATOM     27  H   UNL     1       3.711   0.691  22.199  0.00  0.00    +0.122 HD
ENDROOT
BRANCH   9  12
ATOM     12  C   UNL     1       0.604   1.908  25.305  0.00  0.00    +0.064 C 
BRANCH  12  15
ATOM      1  O   UNL     1      -1.764   4.569  24.793  0.00  0.00    -0.359 OA
ATOM      6  N   UNL     1      -0.565   3.921  24.522  0.00  0.00    -0.083 NA
ATOM     15  C   UNL     1      -0.559   2.856  25.329  0.00  0.00    +0.084 A 
ATOM     17  C   UNL     1      -1.716   2.782  26.124  0.00  0.00    +0.071 A 
ATOM     18  C   UNL     1      -2.440   3.882  25.747  0.00  0.00    +0.138 A 
BRANCH  18  19
ATOM     19  C   UNL     1      -3.738   4.433  26.157  0.00  0.00    +0.077 C 
BRANCH  19  21
ATOM     21  C   UNL     1      -4.914   3.906  25.303  0.00  0.00    +0.007 C 
BRANCH  21  23
ATOM     23  C   UNL     1      -5.708   2.808  26.012  0.00  0.00    -0.003 C 
ATOM     24  C   UNL     1      -6.538   1.998  25.028  0.00  0.00    +0.004 C 
ENDBRANCH  21  23
ENDBRANCH  19  21
ENDBRANCH  18  19
ENDBRANCH  12  15
ENDBRANCH   9  12
BRANCH   8  14
ATOM     14  C   UNL     1       0.266  -1.009  24.542  0.00  0.00    +0.099 C 
BRANCH  14  16
ATOM      2  O   UNL     1      -1.388  -0.955  26.307  0.00  0.00    -0.276 OA
ATOM      5  N   UNL     1      -1.787  -2.234  24.409  0.00  0.00    -0.314 N 
ATOM     16  C   UNL     1      -1.045  -1.375  25.205  0.00  0.00    +0.213 C 
ATOM     28  H   UNL     1      -1.417  -2.518  23.505  0.00  0.00    +0.149 HD
BRANCH   5  20
ATOM     20  C   UNL     1      -3.081  -2.747  24.793  0.00  0.00    +0.123 C 
BRANCH  20  22
ATOM     22  C   UNL     1      -4.205  -2.120  23.986  0.00  0.00    +0.123 C 
BRANCH  22   7
ATOM      3  O   UNL     1      -3.952   0.505  25.200  0.00  0.00    -0.276 OA
ATOM      7  N   UNL     1      -3.797  -0.896  23.347  0.00  0.00    -0.314 N 
ATOM     25  C   UNL     1      -3.705   0.319  24.012  0.00  0.00    +0.210 C 
ATOM     26  C   UNL     1      -3.230   1.431  23.115  0.00  0.00    +0.109 C 
ATOM     29  H   UNL     1      -3.550  -0.939  22.362  0.00  0.00    +0.149 HD
ENDBRANCH  22   7
ENDBRANCH  20  22
ENDBRANCH   5  20
ENDBRANCH  14  16
ENDBRANCH   8  14
TORSDOF 10
ENDMDL
MODEL 5
REMARK VINA RESULT:      -3.9      1.835      5.782
REMARK  Name = 26742943
REMARK  12 active torsions:
REMARK  status: ('A' for Active; 'I' for Inactive)
REMARK    1  A    between atoms: N_5  and  C_20
REMARK    2  A    between atoms: N_7  and  C_22
REMARK    3  A    between atoms: C_8  and  C_14
REMARK    4  A    between atoms: C_9  and  C_12
REMARK    5  A    between atoms: C_12  and  C_15
REMARK    6  A    between atoms: C_14  and  C_16
REMARK    7  A    between atoms: C_18  and  C_19
REMARK    8  A    between atoms: C_19  and  C_21
REMARK    9  A    between atoms: C_20  and  C_22
REMARK   10  A    between atoms: C_21  and  C_23
REMARK   11  A    between atoms: C_23  and  C_24
REMARK   12  A    between atoms: C_25  and  C_26
REMARK                            x       y       z     vdW  Elec       q    Type
REMARK                         _______ _______ _______ _____ _____    ______ ____
ROOT
ATOM      4  N   UNL     1      -6.617   2.915  25.257  0.00  0.00    -0.316 NA
ATOM      8  C   UNL     1      -4.048   4.291  24.794  0.00  0.00    +0.004 C 
ATOM      9  C   UNL     1      -4.490   3.049  23.984  0.00  0.00    +0.012 C 
ATOM     10  C   UNL     1      -5.297   5.001  25.344  0.00  0.00    +0.019 C 
ATOM     11  C   UNL     1      -5.455   2.160  24.787  0.00  0.00    +0.085 C 
ATOM     13  C   UNL     1      -6.227   4.049  26.093  0.00  0.00    +0.081 C 
ATOM     27  H   UNL     1      -7.227   2.297  25.791  0.00  0.00    +0.122 HD
ENDROOT
BRANCH   9  12
ATOM     12  C   UNL     1      -3.311   2.226  23.460  0.00  0.00    +0.064 C 
BRANCH  12  15
ATOM      1  O   UNL     1      -3.058  -0.677  25.572  0.00  0.00    -0.359 OA
ATOM      6  N   UNL     1      -2.971   0.691  25.348  0.00  0.00    -0.083 NA
ATOM     15  C   UNL     1      -3.295   0.850  24.062  0.00  0.00    +0.084 A 
ATOM     17  C   UNL     1      -3.592  -0.370  23.430  0.00  0.00    +0.071 A 
ATOM     18  C   UNL     1      -3.427  -1.299  24.424  0.00  0.00    +0.138 A 
BRANCH  18  19
ATOM     19  C   UNL     1      -3.567  -2.759  24.483  0.00  0.00    +0.077 C 
BRANCH  19  21
ATOM     21  C   UNL     1      -2.210  -3.492  24.575  0.00  0.00    +0.007 C 
BRANCH  21  23
ATOM     23  C   UNL     1      -1.043  -2.631  24.090  0.00  0.00    -0.003 C 
ATOM     24  C   UNL     1      -0.224  -2.097  25.254  0.00  0.00    +0.004 C 
ENDBRANCH  21  23
ENDBRANCH  19  21
ENDBRANCH  18  19
ENDBRANCH  12  15
ENDBRANCH   9  12
BRANCH   8  14
ATOM     14  C   UNL     1      -3.057   3.981  25.922  0.00  0.00    +0.099 C 
BRANCH  14  16
ATOM      2  O   UNL     1      -1.099   4.984  24.914  0.00  0.00    -0.276 OA
ATOM      5  N   UNL     1      -0.990   2.795  25.687  0.00  0.00    -0.314 N 
ATOM     16  C   UNL     1      -1.620   4.006  25.445  0.00  0.00    +0.213 C 
ATOM     28  H   UNL     1      -1.508   2.047  26.141  0.00  0.00    +0.149 HD
BRANCH   5  20
ATOM     20  C   UNL     1       0.386   2.536  25.333  0.00  0.00    +0.123 C 
BRANCH  20  22
ATOM     22  C   UNL     1       0.501   1.608  24.135  0.00  0.00    +0.123 C 
BRANCH  22   7
ATOM      3  O   UNL     1       1.516  -0.310  22.206  0.00  0.00    -0.276 OA
ATOM      7  N   UNL     1       1.866   1.428  23.716  0.00  0.00    -0.314 N 
ATOM     25  C   UNL     1       2.260   0.479  22.784  0.00  0.00    +0.210 C 
ATOM     26  C   UNL     1       3.740   0.521  22.510  0.00  0.00    +0.109 C 
ATOM     29  H   UNL     1       2.567   2.043  24.120  0.00  0.00    +0.149 HD
ENDBRANCH  22   7
ENDBRANCH  20  22
ENDBRANCH   5  20
ENDBRANCH  14  16
ENDBRANCH   8  14
TORSDOF 10
ENDMDL
MODEL 6
REMARK VINA RESULT:      -3.8      3.004      5.328
REMARK  Name = 26742943
REMARK  12 active torsions:
REMARK  status: ('A' for Active; 'I' for Inactive)
REMARK    1  A    between atoms: N_5  and  C_20
REMARK    2  A    between atoms: N_7  and  C_22
REMARK    3  A    between atoms: C_8  and  C_14
REMARK    4  A    between atoms: C_9  and  C_12
REMARK    5  A    between atoms: C_12  and  C_15
REMARK    6  A    between atoms: C_14  and  C_16
REMARK    7  A    between atoms: C_18  and  C_19
REMARK    8  A    between atoms: C_19  and  C_21
REMARK    9  A    between atoms: C_20  and  C_22
REMARK   10  A    between atoms: C_21  and  C_23
REMARK   11  A    between atoms: C_23  and  C_24
REMARK   12  A    between atoms: C_25  and  C_26
REMARK                            x       y       z     vdW  Elec       q    Type
REMARK                         _______ _______ _______ _____ _____    ______ ____
ROOT
ATOM      4  N   UNL     1      -5.900   1.266  25.042  0.00  0.00    -0.316 NA
ATOM      8  C   UNL     1      -4.537   3.884  25.015  0.00  0.00    +0.004 C 
ATOM      9  C   UNL     1      -4.212   2.761  24.001  0.00  0.00    +0.012 C 
ATOM     10  C   UNL     1      -5.968   3.684  25.543  0.00  0.00    +0.019 C 
ATOM     11  C   UNL     1      -4.516   1.368  24.578  0.00  0.00    +0.085 C 
ATOM     13  C   UNL     1      -6.206   2.267  26.062  0.00  0.00    +0.081 C 
ATOM     27  H   UNL     1      -6.060   0.335  25.425  0.00  0.00    +0.122 HD
ENDROOT
BRANCH   9  12
ATOM     12  C   UNL     1      -2.777   2.824  23.477  0.00  0.00    +0.064 C 
BRANCH  12  15
ATOM      1  O   UNL     1      -0.390   0.149  23.793  0.00  0.00    -0.359 OA
ATOM      6  N   UNL     1      -0.792   1.387  23.306  0.00  0.00    -0.083 NA
ATOM     15  C   UNL     1      -2.021   1.568  23.799  0.00  0.00    +0.084 A 
ATOM     17  C   UNL     1      -2.443   0.488  24.594  0.00  0.00    +0.071 A 
ATOM     18  C   UNL     1      -1.380  -0.377  24.557  0.00  0.00    +0.138 A 
BRANCH  18  19
ATOM     19  C   UNL     1      -1.121  -1.692  25.154  0.00  0.00    +0.077 C 
BRANCH  19  21
ATOM     21  C   UNL     1      -1.929  -2.828  24.488  0.00  0.00    +0.007 C 
BRANCH  21  23
ATOM     23  C   UNL     1      -3.395  -2.839  24.924  0.00  0.00    -0.003 C 
ATOM     24  C   UNL     1      -4.308  -2.326  23.822  0.00  0.00    +0.004 C 
ENDBRANCH  21  23
ENDBRANCH  19  21
ENDBRANCH  18  19
ENDBRANCH  12  15
ENDBRANCH   9  12
BRANCH   8  14
ATOM     14  C   UNL     1      -3.538   3.985  26.174  0.00  0.00    +0.099 C 
BRANCH  14  16
ATOM      2  O   UNL     1      -1.910   5.430  25.118  0.00  0.00    -0.276 OA
ATOM      5  N   UNL     1      -1.220   3.402  26.021  0.00  0.00    -0.314 N 
ATOM     16  C   UNL     1      -2.153   4.378  25.704  0.00  0.00    +0.213 C 
ATOM     28  H   UNL     1      -1.523   2.568  26.516  0.00  0.00    +0.149 HD
BRANCH   5  20
ATOM     20  C   UNL     1       0.182   3.513  25.690  0.00  0.00    +0.123 C 
BRANCH  20  22
ATOM     22  C   UNL     1       1.014   2.441  26.373  0.00  0.00    +0.123 C 
BRANCH  22   7
ATOM      3  O   UNL     1       2.954   2.859  28.492  0.00  0.00    -0.276 OA
ATOM      7  N   UNL     1       0.781   2.397  27.793  0.00  0.00    -0.314 N 
ATOM     25  C   UNL     1       1.776   2.610  28.737  0.00  0.00    +0.210 C 
ATOM     26  C   UNL     1       1.258   2.531  30.147  0.00  0.00    +0.109 C 
ATOM     29  H   UNL     1      -0.167   2.214  28.109  0.00  0.00    +0.149 HD
ENDBRANCH  22   7
ENDBRANCH  20  22
ENDBRANCH   5  20
ENDBRANCH  14  16
ENDBRANCH   8  14
TORSDOF 10
ENDMDL
MODEL 7
REMARK VINA RESULT:      -3.4      2.833      5.719
REMARK  Name = 26742943
REMARK  12 active torsions:
REMARK  status: ('A' for Active; 'I' for Inactive)
REMARK    1  A    between atoms: N_5  and  C_20
REMARK    2  A    between atoms: N_7  and  C_22
REMARK    3  A    between atoms: C_8  and  C_14
REMARK    4  A    between atoms: C_9  and  C_12
REMARK    5  A    between atoms: C_12  and  C_15
REMARK    6  A    between atoms: C_14  and  C_16
REMARK    7  A    between atoms: C_18  and  C_19
REMARK    8  A    between atoms: C_19  and  C_21
REMARK    9  A    between atoms: C_20  and  C_22
REMARK   10  A    between atoms: C_21  and  C_23
REMARK   11  A    between atoms: C_23  and  C_24
REMARK   12  A    between atoms: C_25  and  C_26
REMARK                            x       y       z     vdW  Elec       q    Type
REMARK                         _______ _______ _______ _____ _____    ______ ____
ROOT
ATOM      4  N   UNL     1      -3.409  -3.342  24.425  0.00  0.00    -0.316 NA
ATOM      8  C   UNL     1      -2.699  -0.536  25.000  0.00  0.00    +0.004 C 
ATOM      9  C   UNL     1      -4.134  -0.976  24.622  0.00  0.00    +0.012 C 
ATOM     10  C   UNL     1      -1.950  -1.736  25.605  0.00  0.00    +0.019 C 
ATOM     11  C   UNL     1      -4.130  -2.253  23.765  0.00  0.00    +0.085 C 
ATOM     13  C   UNL     1      -2.024  -2.978  24.719  0.00  0.00    +0.081 C 
ATOM     27  H   UNL     1      -3.420  -4.167  23.824  0.00  0.00    +0.122 HD
ENDROOT
BRANCH   9  12
ATOM     12  C   UNL     1      -4.937   0.130  23.935  0.00  0.00    +0.064 C 
BRANCH  12  15
ATOM      1  O   UNL     1      -5.590   2.685  26.384  0.00  0.00    -0.359 OA
ATOM      6  N   UNL     1      -5.788   1.421  25.843  0.00  0.00    -0.083 NA
ATOM     15  C   UNL     1      -4.986   1.373  24.776  0.00  0.00    +0.084 A 
ATOM     17  C   UNL     1      -4.266   2.566  24.595  0.00  0.00    +0.071 A 
ATOM     18  C   UNL     1      -4.682   3.358  25.632  0.00  0.00    +0.138 A 
BRANCH  18  19
ATOM     19  C   UNL     1      -4.353   4.721  26.065  0.00  0.00    +0.077 C 
BRANCH  19  21
ATOM     21  C   UNL     1      -2.832   4.984  26.130  0.00  0.00    +0.007 C 
BRANCH  21  23
ATOM     23  C   UNL     1      -2.288   5.603  24.842  0.00  0.00    -0.003 C 
ATOM     24  C   UNL     1      -0.770   5.531  24.787  0.00  0.00    +0.004 C 
ENDBRANCH  21  23
ENDBRANCH  19  21
ENDBRANCH  18  19
ENDBRANCH  12  15
ENDBRANCH   9  12
BRANCH   8  14
ATOM     14  C   UNL     1      -1.905   0.071  23.836  0.00  0.00    +0.099 C 
BRANCH  14  16
ATOM      2  O   UNL     1      -1.233   2.340  23.334  0.00  0.00    -0.276 OA
ATOM      5  N   UNL     1      -1.056   1.554  25.513  0.00  0.00    -0.314 N 
ATOM     16  C   UNL     1      -1.368   1.447  24.166  0.00  0.00    +0.213 C 
ATOM     28  H   UNL     1      -1.212   0.756  26.124  0.00  0.00    +0.149 HD
BRANCH   5  20
ATOM     20  C   UNL     1      -0.522   2.757  26.107  0.00  0.00    +0.123 C 
BRANCH  20  22
ATOM     22  C   UNL     1       0.846   2.527  26.728  0.00  0.00    +0.123 C 
BRANCH  22   7
ATOM      3  O   UNL     1       2.981   2.878  28.663  0.00  0.00    -0.276 OA
ATOM      7  N   UNL     1       0.772   2.347  28.153  0.00  0.00    -0.314 N 
ATOM     25  C   UNL     1       1.851   2.538  29.005  0.00  0.00    +0.210 C 
ATOM     26  C   UNL     1       1.494   2.307  30.448  0.00  0.00    +0.109 C 
ATOM     29  H   UNL     1      -0.126   2.082  28.548  0.00  0.00    +0.149 HD
ENDBRANCH  22   7
ENDBRANCH  20  22
ENDBRANCH   5  20
ENDBRANCH  14  16
ENDBRANCH   8  14
TORSDOF 10
ENDMDL
MODEL 8
REMARK VINA RESULT:      -3.3      1.941      6.845
REMARK  Name = 26742943
REMARK  12 active torsions:
REMARK  status: ('A' for Active; 'I' for Inactive)
REMARK    1  A    between atoms: N_5  and  C_20
REMARK    2  A    between atoms: N_7  and  C_22
REMARK    3  A    between atoms: C_8  and  C_14
REMARK    4  A    between atoms: C_9  and  C_12
REMARK    5  A    between atoms: C_12  and  C_15
REMARK    6  A    between atoms: C_14  and  C_16
REMARK    7  A    between atoms: C_18  and  C_19
REMARK    8  A    between atoms: C_19  and  C_21
REMARK    9  A    between atoms: C_20  and  C_22
REMARK   10  A    between atoms: C_21  and  C_23
REMARK   11  A    between atoms: C_23  and  C_24
REMARK   12  A    between atoms: C_25  and  C_26
REMARK                            x       y       z     vdW  Elec       q    Type
REMARK                         _______ _______ _______ _____ _____    ______ ____
ROOT
ATOM      4  N   UNL     1      -3.131  -1.446  25.696  0.00  0.00    -0.316 NA
ATOM      8  C   UNL     1      -0.430  -1.072  24.567  0.00  0.00    +0.004 C 
ATOM      9  C   UNL     1      -0.994  -0.182  25.701  0.00  0.00    +0.012 C 
ATOM     10  C   UNL     1      -1.155  -2.429  24.588  0.00  0.00    +0.019 C 
ATOM     11  C   UNL     1      -2.529  -0.112  25.658  0.00  0.00    +0.085 C 
ATOM     13  C   UNL     1      -2.675  -2.279  24.585  0.00  0.00    +0.081 C 
ATOM     27  H   UNL     1      -4.147  -1.358  25.656  0.00  0.00    +0.122 HD
ENDROOT
BRANCH   9  12
ATOM     12  C   UNL     1      -0.391   1.224  25.713  0.00  0.00    +0.064 C 
BRANCH  12  15
ATOM      1  O   UNL     1      -2.548   4.092  25.992  0.00  0.00    -0.359 OA
ATOM      6  N   UNL     1      -1.454   3.333  26.389  0.00  0.00    -0.083 NA
ATOM     15  C   UNL     1      -1.454   2.275  25.573  0.00  0.00    +0.084 A 
ATOM     17  C   UNL     1      -2.514   2.312  24.651  0.00  0.00    +0.071 A 
ATOM     18  C   UNL     1      -3.171   3.475  24.957  0.00  0.00    +0.138 A 
BRANCH  18  19
ATOM     19  C   UNL     1      -4.357   4.146  24.410  0.00  0.00    +0.077 C 
BRANCH  19  21
ATOM     21  C   UNL     1      -5.584   4.062  25.345  0.00  0.00    +0.007 C 
BRANCH  21  23
ATOM     23  C   UNL     1      -5.736   2.685  25.993  0.00  0.00    -0.003 C 
ATOM     24  C   UNL     1      -6.187   1.642  24.983  0.00  0.00    +0.004 C 
ENDBRANCH  21  23
ENDBRANCH  19  21
ENDBRANCH  18  19
ENDBRANCH  12  15
ENDBRANCH   9  12
BRANCH   8  14
ATOM     14  C   UNL     1      -0.509  -0.434  23.175  0.00  0.00    +0.099 C 
BRANCH  14  16
ATOM      2  O   UNL     1       1.403  -0.584  21.699  0.00  0.00    -0.276 OA
ATOM      5  N   UNL     1       1.384   1.017  23.383  0.00  0.00    -0.314 N 
ATOM     16  C   UNL     1       0.855  -0.034  22.651  0.00  0.00    +0.213 C 
ATOM     28  H   UNL     1       0.846   1.410  24.151  0.00  0.00    +0.149 HD
BRANCH   5  20
ATOM     20  C   UNL     1       2.676   1.602  23.104  0.00  0.00    +0.123 C 
BRANCH  20  22
ATOM     22  C   UNL     1       3.585   0.643  22.356  0.00  0.00    +0.123 C 
BRANCH  22   7
ATOM      3  O   UNL     1       4.106  -1.754  23.910  0.00  0.00    -0.276 OA
ATOM      7  N   UNL     1       4.774   0.326  23.104  0.00  0.00    -0.314 N 
ATOM     25  C   UNL     1       4.934  -0.850  23.822  0.00  0.00    +0.210 C 
ATOM     26  C   UNL     1       6.280  -0.938  24.490  0.00  0.00    +0.109 C 
ATOM     29  H   UNL     1       5.534   1.000  23.086  0.00  0.00    +0.149 HD
ENDBRANCH  22   7
ENDBRANCH  20  22
ENDBRANCH   5  20
ENDBRANCH  14  16
ENDBRANCH   8  14
TORSDOF 10
ENDMDL
MODEL 9
REMARK VINA RESULT:      -3.2      1.594      2.156
REMARK  Name = 26742943
REMARK  12 active torsions:
REMARK  status: ('A' for Active; 'I' for Inactive)
REMARK    1  A    between atoms: N_5  and  C_20
REMARK    2  A    between atoms: N_7  and  C_22
REMARK    3  A    between atoms: C_8  and  C_14
REMARK    4  A    between atoms: C_9  and  C_12
REMARK    5  A    between atoms: C_12  and  C_15
REMARK    6  A    between atoms: C_14  and  C_16
REMARK    7  A    between atoms: C_18  and  C_19
REMARK    8  A    between atoms: C_19  and  C_21
REMARK    9  A    between atoms: C_20  and  C_22
REMARK   10  A    between atoms: C_21  and  C_23
REMARK   11  A    between atoms: C_23  and  C_24
REMARK   12  A    between atoms: C_25  and  C_26
REMARK                            x       y       z     vdW  Elec       q    Type
REMARK                         _______ _______ _______ _____ _____    ______ ____
ROOT
ATOM      4  N   UNL     1      -3.309  -3.393  24.455  0.00  0.00    -0.316 NA
ATOM      8  C   UNL     1      -3.738  -0.476  24.309  0.00  0.00    +0.004 C 
ATOM      9  C   UNL     1      -2.464  -1.106  24.923  0.00  0.00    +0.012 C 
ATOM     10  C   UNL     1      -4.357  -1.470  23.311  0.00  0.00    +0.019 C 
ATOM     11  C   UNL     1      -2.735  -2.515  25.475  0.00  0.00    +0.085 C 
ATOM     13  C   UNL     1      -4.559  -2.857  23.918  0.00  0.00    +0.081 C 
ATOM     27  H   UNL     1      -3.484  -4.312  24.861  0.00  0.00    +0.122 HD
ENDROOT
BRANCH   9  12
ATOM     12  C   UNL     1      -1.816  -0.224  25.992  0.00  0.00    +0.064 C 
BRANCH  12  15
ATOM      1  O   UNL     1       0.547   2.363  25.169  0.00  0.00    -0.359 OA
ATOM      6  N   UNL     1      -0.494   1.845  25.930  0.00  0.00    -0.083 NA
ATOM     15  C   UNL     1      -0.736   0.640  25.407  0.00  0.00    +0.084 A 
ATOM     17  C   UNL     1       0.111   0.346  24.325  0.00  0.00    +0.071 A 
ATOM     18  C   UNL     1       0.899   1.462  24.217  0.00  0.00    +0.138 A 
BRANCH  18  19
ATOM     19  C   UNL     1       1.991   1.851  23.317  0.00  0.00    +0.077 C 
BRANCH  19  21
ATOM     21  C   UNL     1       3.019   0.720  23.090  0.00  0.00    +0.007 C 
BRANCH  21  23
ATOM     23  C   UNL     1       2.931   0.119  21.687  0.00  0.00    -0.003 C 
ATOM     24  C   UNL     1       1.565  -0.496  21.429  0.00  0.00    +0.004 C 
ENDBRANCH  21  23
ENDBRANCH  19  21
ENDBRANCH  18  19
ENDBRANCH  12  15
ENDBRANCH   9  12
BRANCH   8  14
ATOM     14  C   UNL     1      -4.774  -0.029  25.347  0.00  0.00    +0.099 C 
BRANCH  14  16
ATOM      2  O   UNL     1      -6.126   1.917  24.859  0.00  0.00    -0.276 OA
ATOM      5  N   UNL     1      -3.980   2.201  25.703  0.00  0.00    -0.314 N 
ATOM     16  C   UNL     1      -5.063   1.455  25.265  0.00  0.00    +0.213 C 
ATOM     28  H   UNL     1      -3.144   1.721  26.028  0.00  0.00    +0.149 HD
BRANCH   5  20
ATOM     20  C   UNL     1      -3.976   3.646  25.732  0.00  0.00    +0.123 C 
BRANCH  20  22
ATOM     22  C   UNL     1      -2.806   4.227  24.956  0.00  0.00    +0.123 C 
BRANCH  22   7
ATOM      3  O   UNL     1      -4.057   3.157  22.565  0.00  0.00    -0.276 OA
ATOM      7  N   UNL     1      -2.248   3.282  24.026  0.00  0.00    -0.314 N 
ATOM     25  C   UNL     1      -2.924   2.824  22.904  0.00  0.00    +0.210 C 
ATOM     26  C   UNL     1      -2.102   1.862  22.089  0.00  0.00    +0.109 C 
ATOM     29  H   UNL     1      -1.303   2.951  24.201  0.00  0.00    +0.149 HD
ENDBRANCH  22   7
ENDBRANCH  20  22
ENDBRANCH   5  20
ENDBRANCH  14  16
ENDBRANCH   8  14
TORSDOF 10
ENDMDL
MODEL 10
REMARK VINA RESULT:      -3.0      1.771      4.231
REMARK  Name = 26742943
REMARK  12 active torsions:
REMARK  status: ('A' for Active; 'I' for Inactive)
REMARK    1  A    between atoms: N_5  and  C_20
REMARK    2  A    between atoms: N_7  and  C_22
REMARK    3  A    between atoms: C_8  and  C_14
REMARK    4  A    between atoms: C_9  and  C_12
REMARK    5  A    between atoms: C_12  and  C_15
REMARK    6  A    between atoms: C_14  and  C_16
REMARK    7  A    between atoms: C_18  and  C_19
REMARK    8  A    between atoms: C_19  and  C_21
REMARK    9  A    between atoms: C_20  and  C_22
REMARK   10  A    between atoms: C_21  and  C_23
REMARK   11  A    between atoms: C_23  and  C_24
REMARK   12  A    between atoms: C_25  and  C_26
REMARK                            x       y       z     vdW  Elec       q    Type
REMARK                         _______ _______ _______ _____ _____    ______ ____
ROOT
ATOM      4  N   UNL     1      -3.247   2.885  22.541  0.00  0.00    -0.316 NA
ATOM      8  C   UNL     1      -2.509   4.192  25.081  0.00  0.00    +0.004 C 
ATOM      9  C   UNL     1      -1.528   3.300  24.283  0.00  0.00    +0.012 C 
ATOM     10  C   UNL     1      -3.568   4.757  24.119  0.00  0.00    +0.019 C 
ATOM     11  C   UNL     1      -2.272   2.257  23.433  0.00  0.00    +0.085 C 
ATOM     13  C   UNL     1      -4.234   3.669  23.280  0.00  0.00    +0.081 C 
ATOM     27  H   UNL     1      -3.725   2.163  22.002  0.00  0.00    +0.122 HD
ENDROOT
BRANCH   9  12
ATOM     12  C   UNL     1      -0.480   2.623  25.169  0.00  0.00    +0.064 C 
BRANCH  12  15
ATOM      1  O   UNL     1       0.704  -0.374  23.566  0.00  0.00    -0.359 OA
ATOM      6  N   UNL     1      -0.226   0.333  24.318  0.00  0.00    -0.083 NA
ATOM     15  C   UNL     1       0.275   1.568  24.413  0.00  0.00    +0.084 A 
ATOM     17  C   UNL     1       1.506   1.698  23.748  0.00  0.00    +0.071 A 
ATOM     18  C   UNL     1       1.730   0.448  23.233  0.00  0.00    +0.138 A 
BRANCH  18  19
ATOM     19  C   UNL     1       2.810  -0.141  22.432  0.00  0.00    +0.077 C 
BRANCH  19  21
ATOM     21  C   UNL     1       4.066   0.756  22.356  0.00  0.00    +0.007 C 
BRANCH  21  23
ATOM     23  C   UNL     1       5.039   0.501  23.507  0.00  0.00    -0.003 C 
ATOM     24  C   UNL     1       5.070  -0.969  23.895  0.00  0.00    +0.004 C 
ENDBRANCH  21  23
ENDBRANCH  19  21
ENDBRANCH  18  19
ENDBRANCH  12  15
ENDBRANCH   9  12
BRANCH   8  14
ATOM     14  C   UNL     1      -3.173   3.484  26.268  0.00  0.00    +0.099 C 
BRANCH  14  16
ATOM      2  O   UNL     1      -5.544   3.186  25.888  0.00  0.00    -0.276 OA
ATOM      5  N   UNL     1      -4.088   1.430  25.445  0.00  0.00    -0.314 N 
ATOM     16  C   UNL     1      -4.411   2.714  25.855  0.00  0.00    +0.213 C 
ATOM     28  H   UNL     1      -3.115   1.137  25.446  0.00  0.00    +0.149 HD
BRANCH   5  20
ATOM     20  C   UNL     1      -5.074   0.473  24.997  0.00  0.00    +0.123 C 
BRANCH  20  22
ATOM     22  C   UNL     1      -4.494  -0.518  24.003  0.00  0.00    +0.123 C 
BRANCH  22   7
ATOM      3  O   UNL     1      -3.697  -3.282  24.397  0.00  0.00    -0.276 OA
ATOM      7  N   UNL     1      -3.204  -1.006  24.412  0.00  0.00    -0.314 N 
ATOM     25  C   UNL     1      -2.913  -2.353  24.576  0.00  0.00    +0.210 C 
ATOM     26  C   UNL     1      -1.484  -2.588  24.985  0.00  0.00    +0.109 C 
ATOM     29  H   UNL     1      -2.471  -0.321  24.571  0.00  0.00    +0.149 HD
ENDBRANCH  22   7
ENDBRANCH  20  22
ENDBRANCH   5  20
ENDBRANCH  14  16
ENDBRANCH   8  14
TORSDOF 10
ENDMDL
