MODEL 1
REMARK VINA RESULT:      20.9      0.000      0.000
REMARK  Name = 11884219
REMARK  6 active torsions:
REMARK  status: ('A' for Active; 'I' for Inactive)
REMARK    1  A    between atoms: O_5  and  C_20
REMARK    2  A    between atoms: O_5  and  C_27
REMARK    3  A    between atoms: O_6  and  C_25
REMARK    4  A    between atoms: O_6  and  C_35
REMARK    5  A    between atoms: C_17  and  C_20
REMARK    6  A    between atoms: C_22  and  C_24
REMARK                            x       y       z     vdW  Elec       q    Type
REMARK                         _______ _______ _______ _____ _____    ______ ____
ROOT
ATOM      2  O   UNL     1      -3.294   2.216  22.933  0.00  0.00    -0.273 OA
ATOM      3  O   UNL     1       0.583   1.884  26.510  0.00  0.00    -0.270 OA
ATOM      4  O   UNL     1      -4.788   5.826  23.492  0.00  0.00    -0.272 OA
ATOM      7  N   UNL     1      -0.985   2.935  25.172  0.00  0.00    -0.283 N 
ATOM      8  N   UNL     1      -3.377   4.539  24.818  0.00  0.00    -0.295 N 
ATOM      9  N   UNL     1      -1.300   1.123  22.854  0.00  0.00    -0.283 N 
ATOM     10  C   UNL     1      -1.384   3.379  23.845  0.00  0.00    +0.180 C 
ATOM     11  C   UNL     1      -2.255   4.642  23.881  0.00  0.00    +0.140 C 
ATOM     12  C   UNL     1      -1.671   3.535  26.317  0.00  0.00    +0.128 C 
ATOM     13  C   UNL     1      -3.150   3.760  26.039  0.00  0.00    +0.127 C 
ATOM     14  C   UNL     1      -2.092   2.195  23.205  0.00  0.00    +0.239 C 
ATOM     15  C   UNL     1       0.119   2.114  25.392  0.00  0.00    +0.249 C 
ATOM     16  C   UNL     1       0.766   1.450  24.229  0.00  0.00    +0.059 A 
ATOM     17  C   UNL     1      -4.586   5.169  24.516  0.00  0.00    +0.253 C 
ATOM     18  C   UNL     1       0.068   0.920  23.132  0.00  0.00    +0.046 A 
ATOM     19  C   UNL     1       2.144   1.196  24.357  0.00  0.00    +0.023 A 
ATOM     21  C   UNL     1       0.753   0.090  22.226  0.00  0.00    +0.024 A 
ATOM     22  C   UNL     1       2.817   0.412  23.422  0.00  0.00    -0.014 A 
ATOM     23  C   UNL     1       2.119  -0.154  22.364  0.00  0.00    +0.010 A 
ATOM     37  H   UNL     1      -1.735   0.443  22.236  0.00  0.00    +0.155 HD
ENDROOT
BRANCH  22  24
ATOM      1 CL   UNL     1       7.550   2.370  23.990  0.00  0.00    -0.084 Cl
ATOM     24  C   UNL     1       4.236   0.166  23.569  0.00  0.00    +0.025 A 
ATOM     25  C   UNL     1       4.740  -1.136  23.587  0.00  0.00    +0.128 A 
ATOM     26  C   UNL     1       5.107   1.250  23.693  0.00  0.00    +0.032 A 
ATOM     28  C   UNL     1       6.110  -1.354  23.729  0.00  0.00    +0.047 A 
ATOM     29  C   UNL     1       6.477   1.032  23.835  0.00  0.00    +0.042 A 
ATOM     30  C   UNL     1       6.979  -0.269  23.854  0.00  0.00    +0.023 A 
BRANCH  25   6
ATOM      6  O   UNL     1       3.913  -2.214  23.468  0.00  0.00    -0.495 OA
ATOM     35  C   UNL     1       3.094  -2.528  24.591  0.00  0.00    +0.277 C 
ENDBRANCH  25   6
ENDBRANCH  22  24
BRANCH  17  20
ATOM     20  C   UNL     1      -5.689   5.016  25.534  0.00  0.00    +0.324 C 
BRANCH  20   5
ATOM      5  O   UNL     1      -6.500   3.956  25.090  0.00  0.00    -0.483 OA
BRANCH   5  27
ATOM     27  C   UNL     1      -6.053   2.675  25.328  0.00  0.00    +0.121 A 
ATOM     31  C   UNL     1      -6.187   2.132  26.596  0.00  0.00    +0.045 A 
ATOM     32  C   UNL     1      -5.475   1.953  24.295  0.00  0.00    +0.045 A 
ATOM     33  C   UNL     1      -5.733   0.835  26.837  0.00  0.00    +0.004 A 
ATOM     34  C   UNL     1      -5.021   0.657  24.536  0.00  0.00    +0.004 A 
ATOM     36  C   UNL     1      -5.150   0.097  25.807  0.00  0.00    +0.000 A 
ENDBRANCH   5  27
ENDBRANCH  20   5
ENDBRANCH  17  20
TORSDOF 5
ENDMDL
MODEL 2
REMARK VINA RESULT:      21.1      1.334      1.722
REMARK  Name = 11884219
REMARK  6 active torsions:
REMARK  status: ('A' for Active; 'I' for Inactive)
REMARK    1  A    between atoms: O_5  and  C_20
REMARK    2  A    between atoms: O_5  and  C_27
REMARK    3  A    between atoms: O_6  and  C_25
REMARK    4  A    between atoms: O_6  and  C_35
REMARK    5  A    between atoms: C_17  and  C_20
REMARK    6  A    between atoms: C_22  and  C_24
REMARK                            x       y       z     vdW  Elec       q    Type
REMARK                         _______ _______ _______ _____ _____    ______ ____
ROOT
ATOM      2  O   UNL     1      -3.688   1.888  23.484  0.00  0.00    -0.273 OA
ATOM      3  O   UNL     1       0.679   2.126  26.452  0.00  0.00    -0.270 OA
ATOM      4  O   UNL     1      -5.155   5.547  23.667  0.00  0.00    -0.272 OA
ATOM      7  N   UNL     1      -1.089   2.952  25.210  0.00  0.00    -0.283 N 
ATOM      8  N   UNL     1      -3.539   4.487  24.960  0.00  0.00    -0.295 N 
ATOM      9  N   UNL     1      -1.707   0.787  23.288  0.00  0.00    -0.283 N 
ATOM     10  C   UNL     1      -1.688   3.176  23.902  0.00  0.00    +0.180 C 
ATOM     11  C   UNL     1      -2.570   4.431  23.862  0.00  0.00    +0.140 C 
ATOM     12  C   UNL     1      -1.611   3.734  26.331  0.00  0.00    +0.128 C 
ATOM     13  C   UNL     1      -3.119   3.918  26.243  0.00  0.00    +0.127 C 
ATOM     14  C   UNL     1      -2.459   1.906  23.575  0.00  0.00    +0.239 C 
ATOM     15  C   UNL     1       0.051   2.173  25.393  0.00  0.00    +0.249 C 
ATOM     16  C   UNL     1       0.532   1.326  24.270  0.00  0.00    +0.059 A 
ATOM     17  C   UNL     1      -4.792   5.065  24.743  0.00  0.00    +0.253 C 
ATOM     18  C   UNL     1      -0.309   0.626  23.389  0.00  0.00    +0.046 A 
ATOM     19  C   UNL     1       1.919   1.089  24.232  0.00  0.00    +0.023 A 
ATOM     21  C   UNL     1       0.252  -0.343  22.538  0.00  0.00    +0.024 A 
ATOM     22  C   UNL     1       2.463   0.160  23.346  0.00  0.00    -0.014 A 
ATOM     23  C   UNL     1       1.628  -0.567  22.509  0.00  0.00    +0.010 A 
ATOM     37  H   UNL     1      -2.214   0.017  22.860  0.00  0.00    +0.155 HD
ENDROOT
BRANCH  22  24
ATOM      1 CL   UNL     1       6.552  -2.198  25.414  0.00  0.00    -0.084 Cl
ATOM     24  C   UNL     1       3.892  -0.065  23.318  0.00  0.00    +0.025 A 
ATOM     25  C   UNL     1       4.697   0.558  22.362  0.00  0.00    +0.128 A 
ATOM     26  C   UNL     1       4.468  -0.917  24.262  0.00  0.00    +0.032 A 
ATOM     28  C   UNL     1       6.073   0.329  22.350  0.00  0.00    +0.047 A 
ATOM     29  C   UNL     1       5.844  -1.146  24.250  0.00  0.00    +0.042 A 
ATOM     30  C   UNL     1       6.647  -0.523  23.294  0.00  0.00    +0.023 A 
BRANCH  25   6
ATOM      6  O   UNL     1       4.163   1.395  21.427  0.00  0.00    -0.495 OA
ATOM     35  C   UNL     1       3.850   2.720  21.850  0.00  0.00    +0.277 C 
ENDBRANCH  25   6
ENDBRANCH  22  24
BRANCH  17  20
ATOM     20  C   UNL     1      -5.729   5.085  25.925  0.00  0.00    +0.324 C 
BRANCH  20   5
ATOM      5  O   UNL     1      -6.710   4.108  25.675  0.00  0.00    -0.483 OA
BRANCH   5  27
ATOM     27  C   UNL     1      -6.284   2.804  25.545  0.00  0.00    +0.121 A 
ATOM     31  C   UNL     1      -5.444   2.263  26.506  0.00  0.00    +0.045 A 
ATOM     32  C   UNL     1      -6.702   2.058  24.454  0.00  0.00    +0.045 A 
ATOM     33  C   UNL     1      -5.013   0.943  26.373  0.00  0.00    +0.004 A 
ATOM     34  C   UNL     1      -6.271   0.738  24.321  0.00  0.00    +0.004 A 
ATOM     36  C   UNL     1      -5.426   0.180  25.280  0.00  0.00    +0.000 A 
ENDBRANCH   5  27
ENDBRANCH  20   5
ENDBRANCH  17  20
TORSDOF 5
ENDMDL
