MODEL 1
REMARK VINA RESULT:      -5.5      0.000      0.000
REMARK  Name = 38029736
REMARK  13 active torsions:
REMARK  status: ('A' for Active; 'I' for Inactive)
REMARK    1  A    between atoms: S_1  and  N_6
REMARK    2  A    between atoms: S_1  and  C_20
REMARK    3  A    between atoms: O_2  and  C_19
REMARK    4  A    between atoms: O_2  and  C_21
REMARK    5  A    between atoms: N_6  and  C_14
REMARK    6  A    between atoms: C_7  and  C_11
REMARK    7  A    between atoms: C_8  and  C_14
REMARK    8  A    between atoms: C_10  and  C_15
REMARK    9  A    between atoms: C_11  and  C_16
REMARK   10  A    between atoms: C_11  and  C_17
REMARK   11  A    between atoms: C_12  and  C_18
REMARK   12  A    between atoms: C_15  and  C_19
REMARK   13  A    between atoms: C_21  and  C_24
REMARK                            x       y       z     vdW  Elec       q    Type
REMARK                         _______ _______ _______ _____ _____    ______ ____
ROOT
ATOM      7  C   UNL     1      -2.017  -1.323  24.281  0.00  0.00    +0.000 C 
ATOM      8  C   UNL     1      -2.607  -0.057  24.951  0.00  0.00    +0.030 C 
ATOM      9  C   UNL     1      -0.506  -1.413  24.537  0.00  0.00    +0.012 C 
ATOM     10  C   UNL     1       0.250  -0.181  24.003  0.00  0.00    +0.025 C 
ATOM     12  C   UNL     1      -0.429   1.113  24.401  0.00  0.00    -0.073 C 
ATOM     13  C   UNL     1      -1.701   1.148  24.835  0.00  0.00    -0.023 C 
ATOM     18  C   UNL     1       0.403   2.363  24.333  0.00  0.00    +0.039 C 
ENDROOT
BRANCH   7  11
ATOM     11  C   UNL     1      -2.705  -2.600  24.776  0.00  0.00    -0.013 C 
ATOM     16  C   UNL     1      -3.913  -2.926  23.904  0.00  0.00    +0.007 C 
ATOM     17  C   UNL     1      -3.117  -2.451  26.237  0.00  0.00    +0.007 C 
ENDBRANCH   7  11
BRANCH   8  14
ATOM     14  C   UNL     1      -3.986   0.283  24.375  0.00  0.00    +0.113 C 
BRANCH  14   6
ATOM      6  N   UNL     1      -4.920   0.540  25.483  0.00  0.00    -0.189 NA
ATOM     28  H   UNL     1      -5.415  -0.278  25.859  0.00  0.00    +0.148 HD
BRANCH   6   1
ATOM      1  S   UNL     1      -5.698   2.051  25.614  0.00  0.00    +0.058 S 
ATOM      4  O   UNL     1      -6.177   2.225  26.973  0.00  0.00    -0.153 OA
ATOM      5  O   UNL     1      -6.603   2.218  24.495  0.00  0.00    -0.153 OA
BRANCH   1  20
ATOM     20  C   UNL     1      -4.353   3.171  25.363  0.00  0.00    +0.105 A 
ATOM     22  C   UNL     1      -4.070   3.643  24.082  0.00  0.00    +0.028 A 
ATOM     23  C   UNL     1      -3.574   3.579  26.445  0.00  0.00    +0.028 A 
ATOM     25  C   UNL     1      -3.006   4.524  23.883  0.00  0.00    +0.002 A 
ATOM     26  C   UNL     1      -2.510   4.459  26.246  0.00  0.00    +0.002 A 
ATOM     27  C   UNL     1      -2.227   4.931  24.966  0.00  0.00    +0.000 A 
ENDBRANCH   1  20
ENDBRANCH   6   1
ENDBRANCH  14   6
ENDBRANCH   8  14
BRANCH  10  15
ATOM     15  C   UNL     1       0.429  -0.261  22.482  0.00  0.00    +0.128 C 
BRANCH  15  19
ATOM      3  O   UNL     1       2.319  -0.275  20.953  0.00  0.00    -0.251 OA
ATOM     19  C   UNL     1       1.879  -0.160  22.089  0.00  0.00    +0.308 C 
BRANCH  19   2
ATOM      2  O   UNL     1       2.616   0.078  23.214  0.00  0.00    -0.465 OA
BRANCH   2  21
ATOM     21  C   UNL     1       3.797   0.863  23.022  0.00  0.00    +0.229 C 
ATOM     24  C   UNL     1       5.000   0.062  23.470  0.00  0.00    +0.048 C 
ENDBRANCH   2  21
ENDBRANCH  19   2
ENDBRANCH  15  19
ENDBRANCH  10  15
TORSDOF 9
ENDMDL
MODEL 2
REMARK VINA RESULT:      -4.5      1.173      1.472
REMARK  Name = 38029736
REMARK  13 active torsions:
REMARK  status: ('A' for Active; 'I' for Inactive)
REMARK    1  A    between atoms: S_1  and  N_6
REMARK    2  A    between atoms: S_1  and  C_20
REMARK    3  A    between atoms: O_2  and  C_19
REMARK    4  A    between atoms: O_2  and  C_21
REMARK    5  A    between atoms: N_6  and  C_14
REMARK    6  A    between atoms: C_7  and  C_11
REMARK    7  A    between atoms: C_8  and  C_14
REMARK    8  A    between atoms: C_10  and  C_15
REMARK    9  A    between atoms: C_11  and  C_16
REMARK   10  A    between atoms: C_11  and  C_17
REMARK   11  A    between atoms: C_12  and  C_18
REMARK   12  A    between atoms: C_15  and  C_19
REMARK   13  A    between atoms: C_21  and  C_24
REMARK                            x       y       z     vdW  Elec       q    Type
REMARK                         _______ _______ _______ _____ _____    ______ ____
ROOT
ATOM      7  C   UNL     1      -2.306  -1.364  24.404  0.00  0.00    +0.000 C 
ATOM      8  C   UNL     1      -2.841  -0.597  25.640  0.00  0.00    +0.030 C 
ATOM      9  C   UNL     1      -0.785  -1.552  24.505  0.00  0.00    +0.012 C 
ATOM     10  C   UNL     1      -0.038  -0.209  24.606  0.00  0.00    +0.025 C 
ATOM     12  C   UNL     1      -0.675   0.716  25.623  0.00  0.00    -0.073 C 
ATOM     13  C   UNL     1      -1.923   0.519  26.084  0.00  0.00    -0.023 C 
ATOM     18  C   UNL     1       0.173   1.847  26.136  0.00  0.00    +0.039 C 
ENDROOT
BRANCH   7  11
ATOM     11  C   UNL     1      -2.988  -2.726  24.243  0.00  0.00    -0.013 C 
ATOM     16  C   UNL     1      -4.312  -2.573  23.501  0.00  0.00    +0.007 C 
ATOM     17  C   UNL     1      -3.204  -3.379  25.604  0.00  0.00    +0.007 C 
ENDBRANCH   7  11
BRANCH   8  14
ATOM     14  C   UNL     1      -4.242  -0.032  25.377  0.00  0.00    +0.113 C 
BRANCH  14   6
ATOM      6  N   UNL     1      -4.156   1.001  24.332  0.00  0.00    -0.189 NA
ATOM     28  H   UNL     1      -3.416   0.877  23.631  0.00  0.00    +0.148 HD
BRANCH   6   1
ATOM      1  S   UNL     1      -4.661   2.595  24.660  0.00  0.00    +0.058 S 
ATOM      4  O   UNL     1      -5.206   2.656  26.004  0.00  0.00    -0.153 OA
ATOM      5  O   UNL     1      -5.432   3.090  23.537  0.00  0.00    -0.153 OA
BRANCH   1  20
ATOM     20  C   UNL     1      -3.124   3.468  24.656  0.00  0.00    +0.105 A 
ATOM     22  C   UNL     1      -2.881   4.458  25.608  0.00  0.00    +0.028 A 
ATOM     23  C   UNL     1      -2.154   3.168  23.698  0.00  0.00    +0.028 A 
ATOM     25  C   UNL     1      -1.670   5.149  25.602  0.00  0.00    +0.002 A 
ATOM     26  C   UNL     1      -0.943   3.860  23.693  0.00  0.00    +0.002 A 
ATOM     27  C   UNL     1      -0.701   4.850  24.644  0.00  0.00    +0.000 A 
ENDBRANCH   1  20
ENDBRANCH   6   1
ENDBRANCH  14   6
ENDBRANCH   8  14
BRANCH  10  15
ATOM     15  C   UNL     1       0.064   0.471  23.236  0.00  0.00    +0.128 C 
BRANCH  15  19
ATOM      3  O   UNL     1       1.417  -0.557  21.497  0.00  0.00    -0.251 OA
ATOM     19  C   UNL     1       1.339   0.100  22.526  0.00  0.00    +0.308 C 
BRANCH  19   2
ATOM      2  O   UNL     1       2.390   0.620  23.227  0.00  0.00    -0.465 OA
BRANCH   2  21
ATOM     21  C   UNL     1       3.606   0.775  22.490  0.00  0.00    +0.229 C 
ATOM     24  C   UNL     1       4.769   0.350  23.361  0.00  0.00    +0.048 C 
ENDBRANCH   2  21
ENDBRANCH  19   2
ENDBRANCH  15  19
ENDBRANCH  10  15
TORSDOF 9
ENDMDL
MODEL 3
REMARK VINA RESULT:      -4.1      2.623      5.833
REMARK  Name = 38029736
REMARK  13 active torsions:
REMARK  status: ('A' for Active; 'I' for Inactive)
REMARK    1  A    between atoms: S_1  and  N_6
REMARK    2  A    between atoms: S_1  and  C_20
REMARK    3  A    between atoms: O_2  and  C_19
REMARK    4  A    between atoms: O_2  and  C_21
REMARK    5  A    between atoms: N_6  and  C_14
REMARK    6  A    between atoms: C_7  and  C_11
REMARK    7  A    between atoms: C_8  and  C_14
REMARK    8  A    between atoms: C_10  and  C_15
REMARK    9  A    between atoms: C_11  and  C_16
REMARK   10  A    between atoms: C_11  and  C_17
REMARK   11  A    between atoms: C_12  and  C_18
REMARK   12  A    between atoms: C_15  and  C_19
REMARK   13  A    between atoms: C_21  and  C_24
REMARK                            x       y       z     vdW  Elec       q    Type
REMARK                         _______ _______ _______ _____ _____    ______ ____
ROOT
ATOM      7  C   UNL     1      -2.858  -1.006  24.798  0.00  0.00    +0.000 C 
ATOM      8  C   UNL     1      -1.698  -0.350  24.008  0.00  0.00    +0.030 C 
ATOM      9  C   UNL     1      -4.205  -0.704  24.124  0.00  0.00    +0.012 C 
ATOM     10  C   UNL     1      -4.479   0.809  24.023  0.00  0.00    +0.025 C 
ATOM     12  C   UNL     1      -3.275   1.565  23.500  0.00  0.00    -0.073 C 
ATOM     13  C   UNL     1      -2.043   1.027  23.488  0.00  0.00    -0.023 C 
ATOM     18  C   UNL     1      -3.527   2.940  22.946  0.00  0.00    +0.039 C 
ENDROOT
BRANCH   7  11
ATOM     11  C   UNL     1      -2.672  -2.521  24.927  0.00  0.00    -0.013 C 
ATOM     16  C   UNL     1      -1.373  -2.956  24.255  0.00  0.00    +0.007 C 
ATOM     17  C   UNL     1      -3.864  -3.258  24.326  0.00  0.00    +0.007 C 
ENDBRANCH   7  11
BRANCH   8  14
ATOM     14  C   UNL     1      -0.425  -0.271  24.858  0.00  0.00    +0.113 C 
BRANCH  14   6
ATOM      6  N   UNL     1      -0.555   0.838  25.817  0.00  0.00    -0.189 NA
ATOM     28  H   UNL     1      -1.487   0.978  26.226  0.00  0.00    +0.148 HD
BRANCH   6   1
ATOM      1  S   UNL     1       0.454   2.205  25.687  0.00  0.00    +0.058 S 
ATOM      4  O   UNL     1       1.184   2.142  24.435  0.00  0.00    -0.153 OA
ATOM      5  O   UNL     1       1.164   2.391  26.937  0.00  0.00    -0.153 OA
BRANCH   1  20
ATOM     20  C   UNL     1      -0.728   3.513  25.564  0.00  0.00    +0.105 A 
ATOM     22  C   UNL     1      -1.927   3.439  26.273  0.00  0.00    +0.028 A 
ATOM     23  C   UNL     1      -0.464   4.619  24.756  0.00  0.00    +0.028 A 
ATOM     25  C   UNL     1      -2.862   4.470  26.173  0.00  0.00    +0.002 A 
ATOM     26  C   UNL     1      -1.399   5.649  24.656  0.00  0.00    +0.002 A 
ATOM     27  C   UNL     1      -2.597   5.574  25.364  0.00  0.00    +0.000 A 
ENDBRANCH   1  20
ENDBRANCH   6   1
ENDBRANCH  14   6
ENDBRANCH   8  14
BRANCH  10  15
ATOM     15  C   UNL     1      -4.941   1.377  25.369  0.00  0.00    +0.128 C 
BRANCH  15  19
ATOM      3  O   UNL     1      -7.224   1.597  24.561  0.00  0.00    -0.251 OA
ATOM     19  C   UNL     1      -6.310   1.998  25.269  0.00  0.00    +0.308 C 
BRANCH  19   2
ATOM      2  O   UNL     1      -6.354   3.081  26.099  0.00  0.00    -0.465 OA
BRANCH   2  21
ATOM     21  C   UNL     1      -5.513   4.178  25.727  0.00  0.00    +0.229 C 
ATOM     24  C   UNL     1      -6.382   5.353  25.332  0.00  0.00    +0.048 C 
ENDBRANCH   2  21
ENDBRANCH  19   2
ENDBRANCH  15  19
ENDBRANCH  10  15
TORSDOF 9
ENDMDL
MODEL 4
REMARK VINA RESULT:      -4.0      2.370      6.755
REMARK  Name = 38029736
REMARK  13 active torsions:
REMARK  status: ('A' for Active; 'I' for Inactive)
REMARK    1  A    between atoms: S_1  and  N_6
REMARK    2  A    between atoms: S_1  and  C_20
REMARK    3  A    between atoms: O_2  and  C_19
REMARK    4  A    between atoms: O_2  and  C_21
REMARK    5  A    between atoms: N_6  and  C_14
REMARK    6  A    between atoms: C_7  and  C_11
REMARK    7  A    between atoms: C_8  and  C_14
REMARK    8  A    between atoms: C_10  and  C_15
REMARK    9  A    between atoms: C_11  and  C_16
REMARK   10  A    between atoms: C_11  and  C_17
REMARK   11  A    between atoms: C_12  and  C_18
REMARK   12  A    between atoms: C_15  and  C_19
REMARK   13  A    between atoms: C_21  and  C_24
REMARK                            x       y       z     vdW  Elec       q    Type
REMARK                         _______ _______ _______ _____ _____    ______ ____
ROOT
ATOM      7  C   UNL     1      -2.747   0.092  25.077  0.00  0.00    +0.000 C 
ATOM      8  C   UNL     1      -1.764   0.773  24.092  0.00  0.00    +0.030 C 
ATOM      9  C   UNL     1      -4.164   0.057  24.483  0.00  0.00    +0.012 C 
ATOM     10  C   UNL     1      -4.695   1.466  24.161  0.00  0.00    +0.025 C 
ATOM     12  C   UNL     1      -3.670   2.298  23.418  0.00  0.00    -0.073 C 
ATOM     13  C   UNL     1      -2.367   1.966  23.386  0.00  0.00    -0.023 C 
ATOM     18  C   UNL     1      -4.184   3.498  22.671  0.00  0.00    +0.039 C 
ENDROOT
BRANCH   7  11
ATOM     11  C   UNL     1      -2.299  -1.329  25.435  0.00  0.00    -0.013 C 
ATOM     16  C   UNL     1      -2.628  -2.292  24.299  0.00  0.00    +0.007 C 
ATOM     17  C   UNL     1      -2.955  -1.782  26.735  0.00  0.00    +0.007 C 
ENDBRANCH   7  11
BRANCH   8  14
ATOM     14  C   UNL     1      -0.475   1.198  24.803  0.00  0.00    +0.113 C 
BRANCH  14   6
ATOM      6  N   UNL     1       0.635   1.187  23.836  0.00  0.00    -0.189 NA
ATOM     28  H   UNL     1       0.791   2.059  23.315  0.00  0.00    +0.148 HD
BRANCH   6   1
ATOM      1  S   UNL     1       1.099  -0.268  23.081  0.00  0.00    +0.058 S 
ATOM      4  O   UNL     1       0.783  -0.194  21.667  0.00  0.00    -0.153 OA
ATOM      5  O   UNL     1       0.631  -1.386  23.877  0.00  0.00    -0.153 OA
BRANCH   1  20
ATOM     20  C   UNL     1       2.858  -0.215  23.250  0.00  0.00    +0.105 A 
ATOM     22  C   UNL     1       3.546  -1.326  23.738  0.00  0.00    +0.028 A 
ATOM     23  C   UNL     1       3.558   0.939  22.898  0.00  0.00    +0.028 A 
ATOM     25  C   UNL     1       4.933  -1.283  23.874  0.00  0.00    +0.002 A 
ATOM     26  C   UNL     1       4.946   0.982  23.034  0.00  0.00    +0.002 A 
ATOM     27  C   UNL     1       5.633  -0.128  23.522  0.00  0.00    +0.000 A 
ENDBRANCH   1  20
ENDBRANCH   6   1
ENDBRANCH  14   6
ENDBRANCH   8  14
BRANCH  10  15
ATOM     15  C   UNL     1      -5.166   2.183  25.431  0.00  0.00    +0.128 C 
BRANCH  15  19
ATOM      3  O   UNL     1      -5.134   4.610  25.291  0.00  0.00    -0.251 OA
ATOM     19  C   UNL     1      -4.564   3.558  25.548  0.00  0.00    +0.308 C 
BRANCH  19   2
ATOM      2  O   UNL     1      -3.276   3.430  25.985  0.00  0.00    -0.465 OA
BRANCH   2  21
ATOM     21  C   UNL     1      -2.584   4.657  26.232  0.00  0.00    +0.229 C 
ATOM     24  C   UNL     1      -1.512   4.840  25.179  0.00  0.00    +0.048 C 
ENDBRANCH   2  21
ENDBRANCH  19   2
ENDBRANCH  15  19
ENDBRANCH  10  15
TORSDOF 9
ENDMDL
MODEL 5
REMARK VINA RESULT:      -3.7      1.504      4.582
REMARK  Name = 38029736
REMARK  13 active torsions:
REMARK  status: ('A' for Active; 'I' for Inactive)
REMARK    1  A    between atoms: S_1  and  N_6
REMARK    2  A    between atoms: S_1  and  C_20
REMARK    3  A    between atoms: O_2  and  C_19
REMARK    4  A    between atoms: O_2  and  C_21
REMARK    5  A    between atoms: N_6  and  C_14
REMARK    6  A    between atoms: C_7  and  C_11
REMARK    7  A    between atoms: C_8  and  C_14
REMARK    8  A    between atoms: C_10  and  C_15
REMARK    9  A    between atoms: C_11  and  C_16
REMARK   10  A    between atoms: C_11  and  C_17
REMARK   11  A    between atoms: C_12  and  C_18
REMARK   12  A    between atoms: C_15  and  C_19
REMARK   13  A    between atoms: C_21  and  C_24
REMARK                            x       y       z     vdW  Elec       q    Type
REMARK                         _______ _______ _______ _____ _____    ______ ____
ROOT
ATOM      7  C   UNL     1      -2.142   3.403  24.965  0.00  0.00    +0.000 C 
ATOM      8  C   UNL     1      -3.292   3.734  23.981  0.00  0.00    +0.030 C 
ATOM      9  C   UNL     1      -0.874   3.003  24.196  0.00  0.00    +0.012 C 
ATOM     10  C   UNL     1      -1.106   1.781  23.288  0.00  0.00    +0.025 C 
ATOM     12  C   UNL     1      -2.377   1.915  22.475  0.00  0.00    -0.073 C 
ATOM     13  C   UNL     1      -3.337   2.802  22.791  0.00  0.00    -0.023 C 
ATOM     18  C   UNL     1      -2.501   1.036  21.261  0.00  0.00    +0.039 C 
ENDROOT
BRANCH   7  11
ATOM     11  C   UNL     1      -1.835   4.581  25.895  0.00  0.00    -0.013 C 
ATOM     16  C   UNL     1      -2.964   4.771  26.903  0.00  0.00    +0.007 C 
ATOM     17  C   UNL     1      -1.612   5.855  25.086  0.00  0.00    +0.007 C 
ENDBRANCH   7  11
BRANCH   8  14
ATOM     14  C   UNL     1      -4.650   3.721  24.692  0.00  0.00    +0.113 C 
BRANCH  14   6
ATOM      6  N   UNL     1      -4.660   2.640  25.690  0.00  0.00    -0.189 NA
ATOM     28  H   UNL     1      -3.757   2.414  26.124  0.00  0.00    +0.148 HD
BRANCH   6   1
ATOM      1  S   UNL     1      -5.809   1.386  25.583  0.00  0.00    +0.058 S 
ATOM      4  O   UNL     1      -6.658   1.613  24.429  0.00  0.00    -0.153 OA
ATOM      5  O   UNL     1      -6.398   1.169  26.890  0.00  0.00    -0.153 OA
BRANCH   1  20
ATOM     20  C   UNL     1      -4.784  -0.013  25.240  0.00  0.00    +0.105 A 
ATOM     22  C   UNL     1      -3.916  -0.498  26.218  0.00  0.00    +0.028 A 
ATOM     23  C   UNL     1      -4.840  -0.629  23.990  0.00  0.00    +0.028 A 
ATOM     25  C   UNL     1      -3.105  -1.600  25.947  0.00  0.00    +0.002 A 
ATOM     26  C   UNL     1      -4.029  -1.731  23.718  0.00  0.00    +0.002 A 
ATOM     27  C   UNL     1      -3.161  -2.215  24.696  0.00  0.00    +0.000 A 
ENDBRANCH   1  20
ENDBRANCH   6   1
ENDBRANCH  14   6
ENDBRANCH   8  14
BRANCH  10  15
ATOM     15  C   UNL     1      -1.110   0.482  24.102  0.00  0.00    +0.128 C 
BRANCH  15  19
ATOM      3  O   UNL     1       0.409  -1.395  24.393  0.00  0.00    -0.251 OA
ATOM     19  C   UNL     1       0.125  -0.340  23.841  0.00  0.00    +0.308 C 
BRANCH  19   2
ATOM      2  O   UNL     1       0.871   0.293  22.889  0.00  0.00    -0.465 OA
BRANCH   2  21
ATOM     21  C   UNL     1       2.160  -0.276  22.637  0.00  0.00    +0.229 C 
ATOM     24  C   UNL     1       3.209   0.809  22.751  0.00  0.00    +0.048 C 
ENDBRANCH   2  21
ENDBRANCH  19   2
ENDBRANCH  15  19
ENDBRANCH  10  15
TORSDOF 9
ENDMDL
MODEL 6
REMARK VINA RESULT:      -3.0      2.507      7.639
REMARK  Name = 38029736
REMARK  13 active torsions:
REMARK  status: ('A' for Active; 'I' for Inactive)
REMARK    1  A    between atoms: S_1  and  N_6
REMARK    2  A    between atoms: S_1  and  C_20
REMARK    3  A    between atoms: O_2  and  C_19
REMARK    4  A    between atoms: O_2  and  C_21
REMARK    5  A    between atoms: N_6  and  C_14
REMARK    6  A    between atoms: C_7  and  C_11
REMARK    7  A    between atoms: C_8  and  C_14
REMARK    8  A    between atoms: C_10  and  C_15
REMARK    9  A    between atoms: C_11  and  C_16
REMARK   10  A    between atoms: C_11  and  C_17
REMARK   11  A    between atoms: C_12  and  C_18
REMARK   12  A    between atoms: C_15  and  C_19
REMARK   13  A    between atoms: C_21  and  C_24
REMARK                            x       y       z     vdW  Elec       q    Type
REMARK                         _______ _______ _______ _____ _____    ______ ____
ROOT
ATOM      7  C   UNL     1      -1.421   0.783  24.699  0.00  0.00    +0.000 C 
ATOM      8  C   UNL     1      -0.753  -0.594  24.456  0.00  0.00    +0.030 C 
ATOM      9  C   UNL     1      -2.506   0.670  25.780  0.00  0.00    +0.012 C 
ATOM     10  C   UNL     1      -3.602  -0.344  25.402  0.00  0.00    +0.025 C 
ATOM     12  C   UNL     1      -3.015  -1.645  24.893  0.00  0.00    -0.073 C 
ATOM     13  C   UNL     1      -1.736  -1.741  24.488  0.00  0.00    -0.023 C 
ATOM     18  C   UNL     1      -3.919  -2.846  24.905  0.00  0.00    +0.039 C 
ENDROOT
BRANCH   7  11
ATOM     11  C   UNL     1      -0.396   1.849  25.100  0.00  0.00    -0.013 C 
ATOM     16  C   UNL     1      -0.494   2.143  26.594  0.00  0.00    +0.007 C 
ATOM     17  C   UNL     1      -0.602   3.120  24.284  0.00  0.00    +0.007 C 
ENDBRANCH   7  11
BRANCH   8  14
ATOM     14  C   UNL     1       0.010  -0.611  23.126  0.00  0.00    +0.113 C 
BRANCH  14   6
ATOM      6  N   UNL     1       1.455  -0.672  23.401  0.00  0.00    -0.189 NA
ATOM     28  H   UNL     1       1.725  -0.987  24.340  0.00  0.00    +0.148 HD
BRANCH   6   1
ATOM      1  S   UNL     1       2.526   0.377  22.591  0.00  0.00    +0.058 S 
ATOM      4  O   UNL     1       2.285   1.738  23.030  0.00  0.00    -0.153 OA
ATOM      5  O   UNL     1       2.526   0.056  21.177  0.00  0.00    -0.153 OA
BRANCH   1  20
ATOM     20  C   UNL     1       4.089  -0.136  23.237  0.00  0.00    +0.105 A 
ATOM     22  C   UNL     1       4.259  -1.443  23.695  0.00  0.00    +0.028 A 
ATOM     23  C   UNL     1       5.151   0.766  23.293  0.00  0.00    +0.028 A 
ATOM     25  C   UNL     1       5.492  -1.847  24.208  0.00  0.00    +0.002 A 
ATOM     26  C   UNL     1       6.383   0.361  23.806  0.00  0.00    +0.002 A 
ATOM     27  C   UNL     1       6.553  -0.944  24.264  0.00  0.00    +0.000 A 
ENDBRANCH   1  20
ENDBRANCH   6   1
ENDBRANCH  14   6
ENDBRANCH   8  14
BRANCH  10  15
ATOM     15  C   UNL     1      -4.578   0.253  24.382  0.00  0.00    +0.128 C 
BRANCH  15  19
ATOM      3  O   UNL     1      -6.208   1.576  25.609  0.00  0.00    -0.251 OA
ATOM     19  C   UNL     1      -5.214   1.517  24.897  0.00  0.00    +0.308 C 
BRANCH  19   2
ATOM      2  O   UNL     1      -4.496   2.582  24.432  0.00  0.00    -0.465 OA
BRANCH   2  21
ATOM     21  C   UNL     1      -4.692   3.812  25.136  0.00  0.00    +0.229 C 
ATOM     24  C   UNL     1      -3.498   4.063  26.033  0.00  0.00    +0.048 C 
ENDBRANCH   2  21
ENDBRANCH  19   2
ENDBRANCH  15  19
ENDBRANCH  10  15
TORSDOF 9
ENDMDL
MODEL 7
REMARK VINA RESULT:      -3.0      2.814      6.146
REMARK  Name = 38029736
REMARK  13 active torsions:
REMARK  status: ('A' for Active; 'I' for Inactive)
REMARK    1  A    between atoms: S_1  and  N_6
REMARK    2  A    between atoms: S_1  and  C_20
REMARK    3  A    between atoms: O_2  and  C_19
REMARK    4  A    between atoms: O_2  and  C_21
REMARK    5  A    between atoms: N_6  and  C_14
REMARK    6  A    between atoms: C_7  and  C_11
REMARK    7  A    between atoms: C_8  and  C_14
REMARK    8  A    between atoms: C_10  and  C_15
REMARK    9  A    between atoms: C_11  and  C_16
REMARK   10  A    between atoms: C_11  and  C_17
REMARK   11  A    between atoms: C_12  and  C_18
REMARK   12  A    between atoms: C_15  and  C_19
REMARK   13  A    between atoms: C_21  and  C_24
REMARK                            x       y       z     vdW  Elec       q    Type
REMARK                         _______ _______ _______ _____ _____    ______ ____
ROOT
ATOM      7  C   UNL     1      -3.624   2.674  23.965  0.00  0.00    +0.000 C 
ATOM      8  C   UNL     1      -3.959   3.769  25.008  0.00  0.00    +0.030 C 
ATOM      9  C   UNL     1      -4.879   1.859  23.618  0.00  0.00    +0.012 C 
ATOM     10  C   UNL     1      -5.492   1.180  24.858  0.00  0.00    +0.025 C 
ATOM     12  C   UNL     1      -5.607   2.138  26.026  0.00  0.00    -0.073 C 
ATOM     13  C   UNL     1      -4.925   3.296  26.070  0.00  0.00    -0.023 C 
ATOM     18  C   UNL     1      -6.561   1.755  27.124  0.00  0.00    +0.039 C 
ENDROOT
BRANCH   7  11
ATOM     11  C   UNL     1      -3.024   3.271  22.687  0.00  0.00    -0.013 C 
ATOM     16  C   UNL     1      -4.104   3.975  21.872  0.00  0.00    +0.007 C 
ATOM     17  C   UNL     1      -2.343   2.186  21.860  0.00  0.00    +0.007 C 
ENDBRANCH   7  11
BRANCH   8  14
ATOM     14  C   UNL     1      -2.688   4.305  25.676  0.00  0.00    +0.113 C 
BRANCH  14   6
ATOM      6  N   UNL     1      -1.865   3.170  26.125  0.00  0.00    -0.189 NA
ATOM     28  H   UNL     1      -2.060   2.812  27.068  0.00  0.00    +0.148 HD
BRANCH   6   1
ATOM      1  S   UNL     1      -0.283   2.969  25.526  0.00  0.00    +0.058 S 
ATOM      4  O   UNL     1       0.661   3.092  26.621  0.00  0.00    -0.153 OA
ATOM      5  O   UNL     1      -0.122   3.773  24.331  0.00  0.00    -0.153 OA
BRANCH   1  20
ATOM     20  C   UNL     1      -0.304   1.278  25.013  0.00  0.00    +0.105 A 
ATOM     22  C   UNL     1      -0.920   0.315  25.811  0.00  0.00    +0.028 A 
ATOM     23  C   UNL     1       0.298   0.906  23.811  0.00  0.00    +0.028 A 
ATOM     25  C   UNL     1      -0.934  -1.021  25.408  0.00  0.00    +0.002 A 
ATOM     26  C   UNL     1       0.284  -0.430  23.408  0.00  0.00    +0.002 A 
ATOM     27  C   UNL     1      -0.331  -1.392  24.206  0.00  0.00    +0.000 A 
ENDBRANCH   1  20
ENDBRANCH   6   1
ENDBRANCH  14   6
ENDBRANCH   8  14
BRANCH  10  15
ATOM     15  C   UNL     1      -4.698  -0.071  25.251  0.00  0.00    +0.128 C 
BRANCH  15  19
ATOM      3  O   UNL     1      -3.345  -0.360  23.251  0.00  0.00    -0.251 OA
ATOM     19  C   UNL     1      -4.171  -0.797  24.041  0.00  0.00    +0.308 C 
BRANCH  19   2
ATOM      2  O   UNL     1      -4.773  -2.021  23.976  0.00  0.00    -0.465 OA
BRANCH   2  21
ATOM     21  C   UNL     1      -3.888  -3.145  23.993  0.00  0.00    +0.229 C 
ATOM     24  C   UNL     1      -3.232  -3.235  25.355  0.00  0.00    +0.048 C 
ENDBRANCH   2  21
ENDBRANCH  19   2
ENDBRANCH  15  19
ENDBRANCH  10  15
TORSDOF 9
ENDMDL
MODEL 8
REMARK VINA RESULT:      -2.9      2.651      7.631
REMARK  Name = 38029736
REMARK  13 active torsions:
REMARK  status: ('A' for Active; 'I' for Inactive)
REMARK    1  A    between atoms: S_1  and  N_6
REMARK    2  A    between atoms: S_1  and  C_20
REMARK    3  A    between atoms: O_2  and  C_19
REMARK    4  A    between atoms: O_2  and  C_21
REMARK    5  A    between atoms: N_6  and  C_14
REMARK    6  A    between atoms: C_7  and  C_11
REMARK    7  A    between atoms: C_8  and  C_14
REMARK    8  A    between atoms: C_10  and  C_15
REMARK    9  A    between atoms: C_11  and  C_16
REMARK   10  A    between atoms: C_11  and  C_17
REMARK   11  A    between atoms: C_12  and  C_18
REMARK   12  A    between atoms: C_15  and  C_19
REMARK   13  A    between atoms: C_21  and  C_24
REMARK                            x       y       z     vdW  Elec       q    Type
REMARK                         _______ _______ _______ _____ _____    ______ ____
ROOT
ATOM      7  C   UNL     1      -2.259   1.917  24.102  0.00  0.00    +0.000 C 
ATOM      8  C   UNL     1      -0.879   2.602  23.942  0.00  0.00    +0.030 C 
ATOM      9  C   UNL     1      -3.390   2.906  23.785  0.00  0.00    +0.012 C 
ATOM     10  C   UNL     1      -3.352   4.146  24.699  0.00  0.00    +0.025 C 
ATOM     12  C   UNL     1      -1.957   4.725  24.806  0.00  0.00    -0.073 C 
ATOM     13  C   UNL     1      -0.864   4.026  24.450  0.00  0.00    -0.023 C 
ATOM     18  C   UNL     1      -1.847   6.144  25.288  0.00  0.00    +0.039 C 
ENDROOT
BRANCH   7  11
ATOM     11  C   UNL     1      -2.386   0.680  23.207  0.00  0.00    -0.013 C 
ATOM     16  C   UNL     1      -2.515   1.093  21.744  0.00  0.00    +0.007 C 
ATOM     17  C   UNL     1      -3.578  -0.169  23.636  0.00  0.00    +0.007 C 
ENDBRANCH   7  11
BRANCH   8  14
ATOM     14  C   UNL     1       0.223   1.799  24.642  0.00  0.00    +0.113 C 
BRANCH  14   6
ATOM      6  N   UNL     1       1.304   1.526  23.681  0.00  0.00    -0.189 NA
ATOM     28  H   UNL     1       1.574   2.304  23.068  0.00  0.00    +0.148 HD
BRANCH   6   1
ATOM      1  S   UNL     1       1.546  -0.054  23.089  0.00  0.00    +0.058 S 
ATOM      4  O   UNL     1       1.296  -0.071  21.660  0.00  0.00    -0.153 OA
ATOM      5  O   UNL     1       0.870  -0.996  23.959  0.00  0.00    -0.153 OA
BRANCH   1  20
ATOM     20  C   UNL     1       3.282  -0.270  23.341  0.00  0.00    +0.105 A 
ATOM     22  C   UNL     1       3.774  -1.498  23.786  0.00  0.00    +0.028 A 
ATOM     23  C   UNL     1       4.159   0.786  23.100  0.00  0.00    +0.028 A 
ATOM     25  C   UNL     1       5.143  -1.668  23.988  0.00  0.00    +0.002 A 
ATOM     26  C   UNL     1       5.529   0.616  23.303  0.00  0.00    +0.002 A 
ATOM     27  C   UNL     1       6.020  -0.610  23.747  0.00  0.00    +0.000 A 
ENDBRANCH   1  20
ENDBRANCH   6   1
ENDBRANCH  14   6
ENDBRANCH   8  14
BRANCH  10  15
ATOM     15  C   UNL     1      -3.921   3.826  26.086  0.00  0.00    +0.128 C 
BRANCH  15  19
ATOM      3  O   UNL     1      -6.152   4.660  25.596  0.00  0.00    -0.251 OA
ATOM     19  C   UNL     1      -5.427   3.799  26.076  0.00  0.00    +0.308 C 
BRANCH  19   2
ATOM      2  O   UNL     1      -5.842   2.654  26.694  0.00  0.00    -0.465 OA
BRANCH   2  21
ATOM     21  C   UNL     1      -5.797   1.470  25.893  0.00  0.00    +0.229 C 
ATOM     24  C   UNL     1      -6.621   1.688  24.642  0.00  0.00    +0.048 C 
ENDBRANCH   2  21
ENDBRANCH  19   2
ENDBRANCH  15  19
ENDBRANCH  10  15
TORSDOF 9
ENDMDL
MODEL 9
REMARK VINA RESULT:      -2.5      2.857      4.929
REMARK  Name = 38029736
REMARK  13 active torsions:
REMARK  status: ('A' for Active; 'I' for Inactive)
REMARK    1  A    between atoms: S_1  and  N_6
REMARK    2  A    between atoms: S_1  and  C_20
REMARK    3  A    between atoms: O_2  and  C_19
REMARK    4  A    between atoms: O_2  and  C_21
REMARK    5  A    between atoms: N_6  and  C_14
REMARK    6  A    between atoms: C_7  and  C_11
REMARK    7  A    between atoms: C_8  and  C_14
REMARK    8  A    between atoms: C_10  and  C_15
REMARK    9  A    between atoms: C_11  and  C_16
REMARK   10  A    between atoms: C_11  and  C_17
REMARK   11  A    between atoms: C_12  and  C_18
REMARK   12  A    between atoms: C_15  and  C_19
REMARK   13  A    between atoms: C_21  and  C_24
REMARK                            x       y       z     vdW  Elec       q    Type
REMARK                         _______ _______ _______ _____ _____    ______ ____
ROOT
ATOM      7  C   UNL     1       0.491   0.245  23.439  0.00  0.00    +0.000 C 
ATOM      8  C   UNL     1       0.034  -0.607  24.649  0.00  0.00    +0.030 C 
ATOM      9  C   UNL     1       1.162   1.542  23.917  0.00  0.00    +0.012 C 
ATOM     10  C   UNL     1       0.221   2.396  24.788  0.00  0.00    +0.025 C 
ATOM     12  C   UNL     1      -0.478   1.566  25.844  0.00  0.00    -0.073 C 
ATOM     13  C   UNL     1      -0.540   0.224  25.773  0.00  0.00    -0.023 C 
ATOM     18  C   UNL     1      -1.066   2.310  27.011  0.00  0.00    +0.039 C 
ENDROOT
BRANCH   7  11
ATOM     11  C   UNL     1       1.449  -0.529  22.528  0.00  0.00    -0.013 C 
ATOM     16  C   UNL     1       2.820   0.140  22.507  0.00  0.00    +0.007 C 
ATOM     17  C   UNL     1       0.877  -0.634  21.118  0.00  0.00    +0.007 C 
ENDBRANCH   7  11
BRANCH   8  14
ATOM     14  C   UNL     1      -0.988  -1.668  24.225  0.00  0.00    +0.113 C 
BRANCH  14   6
ATOM      6  N   UNL     1      -2.223  -0.998  23.785  0.00  0.00    -0.189 NA
ATOM     28  H   UNL     1      -2.106  -0.087  23.325  0.00  0.00    +0.148 HD
BRANCH   6   1
ATOM      1  S   UNL     1      -3.687  -1.271  24.613  0.00  0.00    +0.058 S 
ATOM      4  O   UNL     1      -3.396  -1.691  25.971  0.00  0.00    -0.153 OA
ATOM      5  O   UNL     1      -4.564  -2.066  23.776  0.00  0.00    -0.153 OA
BRANCH   1  20
ATOM     20  C   UNL     1      -4.371   0.357  24.680  0.00  0.00    +0.105 A 
ATOM     22  C   UNL     1      -3.886   1.353  23.833  0.00  0.00    +0.028 A 
ATOM     23  C   UNL     1      -5.395   0.647  25.582  0.00  0.00    +0.028 A 
ATOM     25  C   UNL     1      -4.423   2.639  23.888  0.00  0.00    +0.002 A 
ATOM     26  C   UNL     1      -5.932   1.933  25.638  0.00  0.00    +0.002 A 
ATOM     27  C   UNL     1      -5.446   2.929  24.792  0.00  0.00    +0.000 A 
ENDBRANCH   1  20
ENDBRANCH   6   1
ENDBRANCH  14   6
ENDBRANCH   8  14
BRANCH  10  15
ATOM     15  C   UNL     1      -0.794   3.154  23.924  0.00  0.00    +0.128 C 
BRANCH  15  19
ATOM      3  O   UNL     1      -0.243   5.385  24.718  0.00  0.00    -0.251 OA
ATOM     19  C   UNL     1      -1.079   4.525  24.478  0.00  0.00    +0.308 C 
BRANCH  19   2
ATOM      2  O   UNL     1      -2.427   4.642  24.667  0.00  0.00    -0.465 OA
BRANCH   2  21
ATOM     21  C   UNL     1      -2.825   5.308  25.869  0.00  0.00    +0.229 C 
ATOM     24  C   UNL     1      -3.342   4.281  26.854  0.00  0.00    +0.048 C 
ENDBRANCH   2  21
ENDBRANCH  19   2
ENDBRANCH  15  19
ENDBRANCH  10  15
TORSDOF 9
ENDMDL
MODEL 10
REMARK VINA RESULT:      -2.5      2.221      3.753
REMARK  Name = 38029736
REMARK  13 active torsions:
REMARK  status: ('A' for Active; 'I' for Inactive)
REMARK    1  A    between atoms: S_1  and  N_6
REMARK    2  A    between atoms: S_1  and  C_20
REMARK    3  A    between atoms: O_2  and  C_19
REMARK    4  A    between atoms: O_2  and  C_21
REMARK    5  A    between atoms: N_6  and  C_14
REMARK    6  A    between atoms: C_7  and  C_11
REMARK    7  A    between atoms: C_8  and  C_14
REMARK    8  A    between atoms: C_10  and  C_15
REMARK    9  A    between atoms: C_11  and  C_16
REMARK   10  A    between atoms: C_11  and  C_17
REMARK   11  A    between atoms: C_12  and  C_18
REMARK   12  A    between atoms: C_15  and  C_19
REMARK   13  A    between atoms: C_21  and  C_24
REMARK                            x       y       z     vdW  Elec       q    Type
REMARK                         _______ _______ _______ _____ _____    ______ ____
ROOT
ATOM      7  C   UNL     1       0.259   1.420  25.040  0.00  0.00    +0.000 C 
ATOM      8  C   UNL     1      -0.692   0.370  24.414  0.00  0.00    +0.030 C 
ATOM      9  C   UNL     1       1.011   2.187  23.942  0.00  0.00    +0.012 C 
ATOM     10  C   UNL     1       1.842   1.252  23.043  0.00  0.00    +0.025 C 
ATOM     12  C   UNL     1       1.045   0.042  22.600  0.00  0.00    -0.073 C 
ATOM     13  C   UNL     1      -0.092  -0.329  23.216  0.00  0.00    -0.023 C 
ATOM     18  C   UNL     1       1.560  -0.707  21.402  0.00  0.00    +0.039 C 
ENDROOT
BRANCH   7  11
ATOM     11  C   UNL     1      -0.496   2.406  25.938  0.00  0.00    -0.013 C 
ATOM     16  C   UNL     1      -0.767   3.707  25.188  0.00  0.00    +0.007 C 
ATOM     17  C   UNL     1       0.292   2.674  27.216  0.00  0.00    +0.007 C 
ENDBRANCH   7  11
BRANCH   8  14
ATOM     14  C   UNL     1      -1.124  -0.673  25.451  0.00  0.00    +0.113 C 
BRANCH  14   6
ATOM      6  N   UNL     1      -2.104  -1.584  24.838  0.00  0.00    -0.189 NA
ATOM     28  H   UNL     1      -1.787  -2.102  24.009  0.00  0.00    +0.148 HD
BRANCH   6   1
ATOM      1  S   UNL     1      -3.772  -1.256  24.961  0.00  0.00    +0.058 S 
ATOM      4  O   UNL     1      -4.176  -1.354  26.351  0.00  0.00    -0.153 OA
ATOM      5  O   UNL     1      -4.480  -2.005  23.942  0.00  0.00    -0.153 OA
BRANCH   1  20
ATOM     20  C   UNL     1      -3.840   0.447  24.493  0.00  0.00    +0.105 A 
ATOM     22  C   UNL     1      -4.411   1.385  25.353  0.00  0.00    +0.028 A 
ATOM     23  C   UNL     1      -3.326   0.853  23.261  0.00  0.00    +0.028 A 
ATOM     25  C   UNL     1      -4.468   2.728  24.982  0.00  0.00    +0.002 A 
ATOM     26  C   UNL     1      -3.383   2.196  22.890  0.00  0.00    +0.002 A 
ATOM     27  C   UNL     1      -3.954   3.133  23.750  0.00  0.00    +0.000 A 
ENDBRANCH   1  20
ENDBRANCH   6   1
ENDBRANCH  14   6
ENDBRANCH   8  14
BRANCH  10  15
ATOM     15  C   UNL     1       3.140   0.828  23.739  0.00  0.00    +0.128 C 
BRANCH  15  19
ATOM      3  O   UNL     1       4.206   0.817  21.553  0.00  0.00    -0.251 OA
ATOM     19  C   UNL     1       4.295   0.774  22.773  0.00  0.00    +0.308 C 
BRANCH  19   2
ATOM      2  O   UNL     1       5.452   0.668  23.489  0.00  0.00    -0.465 OA
BRANCH   2  21
ATOM     21  C   UNL     1       5.512  -0.430  24.405  0.00  0.00    +0.229 C 
ATOM     24  C   UNL     1       4.755  -1.603  23.819  0.00  0.00    +0.048 C 
ENDBRANCH   2  21
ENDBRANCH  19   2
ENDBRANCH  15  19
ENDBRANCH  10  15
TORSDOF 9
ENDMDL
