MODEL 1
REMARK VINA RESULT:      -0.9      0.000      0.000
REMARK  Name = 11865919
REMARK  3 active torsions:
REMARK  status: ('A' for Active; 'I' for Inactive)
REMARK    1  A    between atoms: N_9  and  C_14
REMARK    2  A    between atoms: C_20  and  C_22
REMARK    3  A    between atoms: C_21  and  C_23
REMARK                            x       y       z     vdW  Elec       q    Type
REMARK                         _______ _______ _______ _____ _____    ______ ____
ROOT
ATOM      2  O   UNL     1      -1.605   2.742  22.702  0.00  0.00    -0.273 OA
ATOM      3  O   UNL     1      -3.274  -1.540  26.115  0.00  0.00    -0.274 OA
ATOM      4  O   UNL     1      -0.463   4.574  24.809  0.00  0.00    -0.276 OA
ATOM      6  N   UNL     1      -1.696   0.616  23.627  0.00  0.00    -0.287 N 
ATOM      7  N   UNL     1      -2.686   3.945  24.950  0.00  0.00    -0.288 N 
ATOM      8  N   UNL     1      -3.872   0.608  25.747  0.00  0.00    -0.309 N 
ATOM     10  C   UNL     1      -2.451   2.503  24.950  0.00  0.00    +0.182 C 
ATOM     11  C   UNL     1      -3.847   1.882  25.060  0.00  0.00    +0.104 C 
ATOM     12  C   UNL     1      -1.713  -0.264  24.801  0.00  0.00    +0.164 C 
ATOM     13  C   UNL     1      -1.195  -1.611  24.257  0.00  0.00    +0.055 C 
ATOM     14  C   UNL     1      -0.365  -1.233  23.034  0.00  0.00    +0.093 C 
ATOM     15  C   UNL     1      -1.151  -0.065  22.458  0.00  0.00    +0.131 C 
ATOM     16  C   UNL     1      -4.655   2.966  25.768  0.00  0.00    +0.043 C 
ATOM     17  C   UNL     1      -1.861   1.997  23.646  0.00  0.00    +0.239 C 
ATOM     18  C   UNL     1      -4.100   4.243  25.155  0.00  0.00    +0.110 C 
ATOM     19  C   UNL     1      -3.041  -0.469  25.541  0.00  0.00    +0.234 C 
ATOM     20  C   UNL     1      -1.647   4.864  24.988  0.00  0.00    +0.213 C 
ATOM     22  C   UNL     1      -2.046   6.291  25.264  0.00  0.00    +0.109 C 
ATOM     27  H   UNL     1      -4.705   0.415  26.294  0.00  0.00    +0.149 HD
ENDROOT
BRANCH  14   9
ATOM      5  O   UNL     1       1.735  -0.413  21.256  0.00  0.00    -0.270 OA
ATOM      9  N   UNL     1       0.974  -0.841  23.405  0.00  0.00    -0.306 N 
ATOM     21  C   UNL     1       1.924  -0.458  22.469  0.00  0.00    +0.251 C 
ATOM     28  H   UNL     1       1.236  -0.894  24.384  0.00  0.00    +0.149 HD
BRANCH  21  23
ATOM      1  S   UNL     1       4.120  -1.322  23.802  0.00  0.00    -0.092 S 
ATOM     23  C   UNL     1       3.263  -0.108  23.009  0.00  0.00    +0.074 A 
ATOM     24  C   UNL     1       3.875   1.084  22.935  0.00  0.00    +0.021 A 
ATOM     25  C   UNL     1       5.149   1.021  23.571  0.00  0.00    +0.008 A 
ATOM     26  C   UNL     1       5.409  -0.230  24.085  0.00  0.00    +0.046 A 
ENDBRANCH  21  23
ENDBRANCH  14   9
TORSDOF 2
ENDMDL
