MODEL 1
REMARK VINA RESULT:      -0.4      0.000      0.000
REMARK  Name = 40780655
REMARK  12 active torsions:
REMARK  status: ('A' for Active; 'I' for Inactive)
REMARK    1  A    between atoms: O_3  and  C_10
REMARK    2  A    between atoms: O_4  and  C_11
REMARK    3  A    between atoms: N_7  and  C_15
REMARK    4  A    between atoms: N_8  and  C_18
REMARK    5  A    between atoms: N_9  and  C_23
REMARK    6  A    between atoms: N_9  and  C_31
REMARK    7  A    between atoms: N_9  and  C_32
REMARK    8  A    between atoms: C_12  and  C_14
REMARK    9  A    between atoms: C_13  and  C_15
REMARK   10  A    between atoms: C_14  and  C_16
REMARK   11  A    between atoms: C_17  and  C_19
REMARK   12  A    between atoms: C_18  and  C_20
REMARK                            x       y       z     vdW  Elec       q    Type
REMARK                         _______ _______ _______ _____ _____    ______ ____
ROOT
ATOM      2  O   UNL     1      -4.742   4.185  24.349  0.00  0.00    -0.366 OA
ATOM     10  C   UNL     1      -3.319   3.507  26.102  0.00  0.00    +0.175 C 
ATOM     11  C   UNL     1      -2.475   4.222  25.068  0.00  0.00    +0.176 C 
ATOM     12  C   UNL     1      -4.707   4.035  25.778  0.00  0.00    +0.158 C 
ATOM     13  C   UNL     1      -3.387   4.202  23.846  0.00  0.00    +0.167 C 
ENDROOT
BRANCH  10   3
ATOM      3  O   UNL     1      -2.940   3.796  27.431  0.00  0.00    -0.387 OA
ATOM     33  H   UNL     1      -3.704   4.210  27.868  0.00  0.00    +0.210 HD
ENDBRANCH  10   3
BRANCH  11   4
ATOM      4  O   UNL     1      -2.272   5.582  25.448  0.00  0.00    -0.387 OA
ATOM     34  H   UNL     1      -1.395   5.848  25.121  0.00  0.00    +0.210 HD
ENDBRANCH  11   4
BRANCH  12  14
ATOM     14  C   UNL     1      -5.823   3.104  26.221  0.00  0.00    +0.130 C 
BRANCH  14  16
ATOM      5  O   UNL     1      -6.881   1.639  24.614  0.00  0.00    -0.276 OA
ATOM      8  N   UNL     1      -4.823   1.040  25.509  0.00  0.00    -0.311 N 
ATOM     16  C   UNL     1      -5.926   1.864  25.353  0.00  0.00    +0.216 C 
ATOM     36  H   UNL     1      -4.080   1.330  26.141  0.00  0.00    +0.149 HD
BRANCH   8  18
ATOM     18  C   UNL     1      -4.663  -0.210  24.802  0.00  0.00    +0.139 C 
BRANCH  18  20
ATOM      1  F   UNL     1       0.458  -2.426  25.581  0.00  0.00    -0.205 F 
ATOM     20  C   UNL     1      -3.295  -0.802  25.010  0.00  0.00    -0.030 A 
ATOM     26  C   UNL     1      -2.350  -0.122  25.777  0.00  0.00    +0.008 A 
ATOM     27  C   UNL     1      -2.972  -2.032  24.435  0.00  0.00    +0.008 A 
ATOM     28  C   UNL     1      -1.082  -0.670  25.970  0.00  0.00    +0.038 A 
ATOM     29  C   UNL     1      -1.704  -2.580  24.628  0.00  0.00    +0.038 A 
ATOM     30  C   UNL     1      -0.759  -1.899  25.395  0.00  0.00    +0.123 A 
ENDBRANCH  18  20
ENDBRANCH   8  18
ENDBRANCH  14  16
ENDBRANCH  12  14
BRANCH  13  15
ATOM     15  C   UNL     1      -3.195   2.965  22.980  0.00  0.00    +0.138 C 
BRANCH  15   7
ATOM      6  O   UNL     1      -2.281   0.332  22.289  0.00  0.00    -0.270 OA
ATOM      7  N   UNL     1      -1.851   2.476  23.066  0.00  0.00    -0.309 N 
ATOM     17  C   UNL     1      -1.495   1.178  22.709  0.00  0.00    +0.244 C 
ATOM     35  H   UNL     1      -1.161   3.109  23.459  0.00  0.00    +0.149 HD
BRANCH  17  19
ATOM     19  C   UNL     1      -0.065   0.817  22.882  0.00  0.00    +0.037 A 
ATOM     21  C   UNL     1       0.756   1.591  23.701  0.00  0.00    +0.015 A 
ATOM     22  C   UNL     1       0.459  -0.296  22.224  0.00  0.00    +0.015 A 
ATOM     23  C   UNL     1       2.622   0.140  23.205  0.00  0.00    +0.029 A 
ATOM     24  C   UNL     1       2.099   1.253  23.864  0.00  0.00    +0.024 A 
ATOM     25  C   UNL     1       1.802  -0.636  22.386  0.00  0.00    +0.024 A 
BRANCH  23   9
ATOM      9  N   UNL     1       3.981  -0.204  23.369  0.00  0.00    -0.336 N 
ATOM     31  C   UNL     1       4.355  -1.536  23.800  0.00  0.00    +0.129 C 
ATOM     32  C   UNL     1       5.020   0.770  23.103  0.00  0.00    +0.129 C 
ENDBRANCH  23   9
ENDBRANCH  17  19
ENDBRANCH  15   7
ENDBRANCH  13  15
TORSDOF 10
ENDMDL
MODEL 2
REMARK VINA RESULT:       0.2      1.442      2.201
REMARK  Name = 40780655
REMARK  12 active torsions:
REMARK  status: ('A' for Active; 'I' for Inactive)
REMARK    1  A    between atoms: O_3  and  C_10
REMARK    2  A    between atoms: O_4  and  C_11
REMARK    3  A    between atoms: N_7  and  C_15
REMARK    4  A    between atoms: N_8  and  C_18
REMARK    5  A    between atoms: N_9  and  C_23
REMARK    6  A    between atoms: N_9  and  C_31
REMARK    7  A    between atoms: N_9  and  C_32
REMARK    8  A    between atoms: C_12  and  C_14
REMARK    9  A    between atoms: C_13  and  C_15
REMARK   10  A    between atoms: C_14  and  C_16
REMARK   11  A    between atoms: C_17  and  C_19
REMARK   12  A    between atoms: C_18  and  C_20
REMARK                            x       y       z     vdW  Elec       q    Type
REMARK                         _______ _______ _______ _____ _____    ______ ____
ROOT
ATOM      2  O   UNL     1      -2.749   3.243  23.375  0.00  0.00    -0.366 OA
ATOM     10  C   UNL     1      -2.982   3.474  25.709  0.00  0.00    +0.175 C 
ATOM     11  C   UNL     1      -1.517   3.652  25.368  0.00  0.00    +0.176 C 
ATOM     12  C   UNL     1      -3.643   3.765  24.372  0.00  0.00    +0.158 C 
ATOM     13  C   UNL     1      -1.443   3.056  23.966  0.00  0.00    +0.167 C 
ENDROOT
BRANCH  10   3
ATOM      3  O   UNL     1      -3.431   4.347  26.723  0.00  0.00    -0.387 OA
ATOM     33  H   UNL     1      -4.098   4.934  26.327  0.00  0.00    +0.210 HD
ENDBRANCH  10   3
BRANCH  11   4
ATOM      4  O   UNL     1      -1.196   5.039  25.277  0.00  0.00    -0.387 OA
ATOM     34  H   UNL     1      -1.693   5.404  24.524  0.00  0.00    +0.210 HD
ENDBRANCH  11   4
BRANCH  12  14
ATOM     14  C   UNL     1      -5.009   3.118  24.223  0.00  0.00    +0.130 C 
BRANCH  14  16
ATOM      5  O   UNL     1      -5.614   1.765  26.134  0.00  0.00    -0.276 OA
ATOM      8  N   UNL     1      -4.629   0.747  24.292  0.00  0.00    -0.311 N 
ATOM     16  C   UNL     1      -5.130   1.824  25.007  0.00  0.00    +0.216 C 
ATOM     36  H   UNL     1      -4.262   0.908  23.357  0.00  0.00    +0.149 HD
BRANCH   8  18
ATOM     18  C   UNL     1      -4.617  -0.603  24.804  0.00  0.00    +0.139 C 
BRANCH  18  20
ATOM      1  F   UNL     1       0.624  -2.458  25.725  0.00  0.00    -0.205 F 
ATOM     20  C   UNL     1      -3.217  -1.099  25.050  0.00  0.00    -0.030 A 
ATOM     26  C   UNL     1      -2.717  -2.172  24.313  0.00  0.00    +0.008 A 
ATOM     27  C   UNL     1      -2.419  -0.485  26.016  0.00  0.00    +0.008 A 
ATOM     28  C   UNL     1      -1.420  -2.631  24.541  0.00  0.00    +0.038 A 
ATOM     29  C   UNL     1      -1.122  -0.945  26.244  0.00  0.00    +0.038 A 
ATOM     30  C   UNL     1      -0.623  -2.017  25.506  0.00  0.00    +0.123 A 
ENDBRANCH  18  20
ENDBRANCH   8  18
ENDBRANCH  14  16
ENDBRANCH  12  14
BRANCH  13  15
ATOM     15  C   UNL     1      -1.143   1.564  23.969  0.00  0.00    +0.138 C 
BRANCH  15   7
ATOM      6  O   UNL     1       0.151  -0.485  22.428  0.00  0.00    -0.270 OA
ATOM      7  N   UNL     1       0.267   1.320  23.882  0.00  0.00    -0.309 N 
ATOM     17  C   UNL     1       0.810   0.299  23.106  0.00  0.00    +0.244 C 
ATOM     35  H   UNL     1       0.865   1.898  24.464  0.00  0.00    +0.149 HD
BRANCH  17  19
ATOM     19  C   UNL     1       2.288   0.160  23.144  0.00  0.00    +0.037 A 
ATOM     21  C   UNL     1       2.866  -1.049  23.528  0.00  0.00    +0.015 A 
ATOM     22  C   UNL     1       3.100   1.240  22.796  0.00  0.00    +0.015 A 
ATOM     23  C   UNL     1       5.065  -0.099  23.216  0.00  0.00    +0.029 A 
ATOM     24  C   UNL     1       4.254  -1.180  23.564  0.00  0.00    +0.024 A 
ATOM     25  C   UNL     1       4.488   1.111  22.831  0.00  0.00    +0.024 A 
BRANCH  23   9
ATOM      9  N   UNL     1       6.469  -0.230  23.252  0.00  0.00    -0.336 N 
ATOM     31  C   UNL     1       7.126  -1.301  22.529  0.00  0.00    +0.129 C 
ATOM     32  C   UNL     1       7.274   0.708  24.007  0.00  0.00    +0.129 C 
ENDBRANCH  23   9
ENDBRANCH  17  19
ENDBRANCH  15   7
ENDBRANCH  13  15
TORSDOF 10
ENDMDL
MODEL 3
REMARK VINA RESULT:       1.0      1.681      3.086
REMARK  Name = 40780655
REMARK  12 active torsions:
REMARK  status: ('A' for Active; 'I' for Inactive)
REMARK    1  A    between atoms: O_3  and  C_10
REMARK    2  A    between atoms: O_4  and  C_11
REMARK    3  A    between atoms: N_7  and  C_15
REMARK    4  A    between atoms: N_8  and  C_18
REMARK    5  A    between atoms: N_9  and  C_23
REMARK    6  A    between atoms: N_9  and  C_31
REMARK    7  A    between atoms: N_9  and  C_32
REMARK    8  A    between atoms: C_12  and  C_14
REMARK    9  A    between atoms: C_13  and  C_15
REMARK   10  A    between atoms: C_14  and  C_16
REMARK   11  A    between atoms: C_17  and  C_19
REMARK   12  A    between atoms: C_18  and  C_20
REMARK                            x       y       z     vdW  Elec       q    Type
REMARK                         _______ _______ _______ _____ _____    ______ ____
ROOT
ATOM      2  O   UNL     1      -3.003   2.522  25.871  0.00  0.00    -0.366 OA
ATOM     10  C   UNL     1      -2.935   4.464  24.537  0.00  0.00    +0.175 C 
ATOM     11  C   UNL     1      -4.350   3.926  24.503  0.00  0.00    +0.176 C 
ATOM     12  C   UNL     1      -2.396   3.823  25.805  0.00  0.00    +0.158 C 
ATOM     13  C   UNL     1      -4.158   2.498  25.002  0.00  0.00    +0.167 C 
ENDROOT
BRANCH  10   3
ATOM      3  O   UNL     1      -2.872   5.873  24.588  0.00  0.00    -0.387 OA
ATOM     33  H   UNL     1      -1.955   6.131  24.393  0.00  0.00    +0.210 HD
ENDBRANCH  10   3
BRANCH  11   4
ATOM      4  O   UNL     1      -5.166   4.620  25.447  0.00  0.00    -0.387 OA
ATOM     34  H   UNL     1      -5.549   3.954  26.044  0.00  0.00    +0.210 HD
ENDBRANCH  11   4
BRANCH  12  14
ATOM     14  C   UNL     1      -0.884   3.683  25.813  0.00  0.00    +0.130 C 
BRANCH  14  16
ATOM      5  O   UNL     1       0.381   2.432  27.451  0.00  0.00    -0.276 OA
ATOM      8  N   UNL     1      -1.008   1.290  25.980  0.00  0.00    -0.311 N 
ATOM     16  C   UNL     1      -0.419   2.423  26.520  0.00  0.00    +0.216 C 
ATOM     36  H   UNL     1      -1.671   1.400  25.216  0.00  0.00    +0.149 HD
BRANCH   8  18
ATOM     18  C   UNL     1      -0.741  -0.045  26.463  0.00  0.00    +0.139 C 
BRANCH  18  20
ATOM      1  F   UNL     1      -4.016  -3.881  23.951  0.00  0.00    -0.205 F 
ATOM     20  C   UNL     1      -1.617  -1.070  25.792  0.00  0.00    -0.030 A 
ATOM     26  C   UNL     1      -1.065  -1.966  24.877  0.00  0.00    +0.008 A 
ATOM     27  C   UNL     1      -2.980  -1.123  26.085  0.00  0.00    +0.008 A 
ATOM     28  C   UNL     1      -1.875  -2.915  24.255  0.00  0.00    +0.038 A 
ATOM     29  C   UNL     1      -3.790  -2.072  25.462  0.00  0.00    +0.038 A 
ATOM     30  C   UNL     1      -3.238  -2.968  24.548  0.00  0.00    +0.123 A 
ENDBRANCH  18  20
ENDBRANCH   8  18
ENDBRANCH  14  16
ENDBRANCH  12  14
BRANCH  13  15
ATOM     15  C   UNL     1      -3.878   1.508  23.881  0.00  0.00    +0.138 C 
BRANCH  15   7
ATOM      6  O   UNL     1      -2.040   2.082  21.750  0.00  0.00    -0.270 OA
ATOM      7  N   UNL     1      -2.488   1.161  23.833  0.00  0.00    -0.309 N 
ATOM     17  C   UNL     1      -1.667   1.480  22.754  0.00  0.00    +0.244 C 
ATOM     35  H   UNL     1      -2.129   0.612  24.608  0.00  0.00    +0.149 HD
BRANCH  17  19
ATOM     19  C   UNL     1      -0.256   1.026  22.846  0.00  0.00    +0.037 A 
ATOM     21  C   UNL     1       0.146  -0.139  22.193  0.00  0.00    +0.015 A 
ATOM     22  C   UNL     1       0.669   1.765  23.585  0.00  0.00    +0.015 A 
ATOM     23  C   UNL     1       2.395   0.173  23.019  0.00  0.00    +0.029 A 
ATOM     24  C   UNL     1       1.471  -0.566  22.279  0.00  0.00    +0.024 A 
ATOM     25  C   UNL     1       1.994   1.339  23.672  0.00  0.00    +0.024 A 
BRANCH  23   9
ATOM      9  N   UNL     1       3.735  -0.258  23.106  0.00  0.00    -0.336 N 
ATOM     31  C   UNL     1       4.808   0.568  22.587  0.00  0.00    +0.129 C 
ATOM     32  C   UNL     1       4.058  -1.529  23.721  0.00  0.00    +0.129 C 
ENDBRANCH  23   9
ENDBRANCH  17  19
ENDBRANCH  15   7
ENDBRANCH  13  15
TORSDOF 10
ENDMDL
MODEL 4
REMARK VINA RESULT:       1.3      1.540      2.019
REMARK  Name = 40780655
REMARK  12 active torsions:
REMARK  status: ('A' for Active; 'I' for Inactive)
REMARK    1  A    between atoms: O_3  and  C_10
REMARK    2  A    between atoms: O_4  and  C_11
REMARK    3  A    between atoms: N_7  and  C_15
REMARK    4  A    between atoms: N_8  and  C_18
REMARK    5  A    between atoms: N_9  and  C_23
REMARK    6  A    between atoms: N_9  and  C_31
REMARK    7  A    between atoms: N_9  and  C_32
REMARK    8  A    between atoms: C_12  and  C_14
REMARK    9  A    between atoms: C_13  and  C_15
REMARK   10  A    between atoms: C_14  and  C_16
REMARK   11  A    between atoms: C_17  and  C_19
REMARK   12  A    between atoms: C_18  and  C_20
REMARK                            x       y       z     vdW  Elec       q    Type
REMARK                         _______ _______ _______ _____ _____    ______ ____
ROOT
ATOM      2  O   UNL     1      -2.815   3.499  23.450  0.00  0.00    -0.366 OA
ATOM     10  C   UNL     1      -2.896   3.880  25.774  0.00  0.00    +0.175 C 
ATOM     11  C   UNL     1      -1.450   3.984  25.336  0.00  0.00    +0.176 C 
ATOM     12  C   UNL     1      -3.628   4.113  24.463  0.00  0.00    +0.158 C 
ATOM     13  C   UNL     1      -1.482   3.300  23.973  0.00  0.00    +0.167 C 
ENDROOT
BRANCH  10   3
ATOM      3  O   UNL     1      -3.253   4.829  26.756  0.00  0.00    -0.387 OA
ATOM     33  H   UNL     1      -3.127   4.411  27.625  0.00  0.00    +0.210 HD
ENDBRANCH  10   3
BRANCH  11   4
ATOM      4  O   UNL     1      -1.089   5.350  25.139  0.00  0.00    -0.387 OA
ATOM     34  H   UNL     1      -1.570   5.667  24.355  0.00  0.00    +0.210 HD
ENDBRANCH  11   4
BRANCH  12  14
ATOM     14  C   UNL     1      -5.021   3.509  24.436  0.00  0.00    +0.130 C 
BRANCH  14  16
ATOM      5  O   UNL     1      -5.828   2.500  26.481  0.00  0.00    -0.276 OA
ATOM      8  N   UNL     1      -4.530   1.233  25.029  0.00  0.00    -0.311 N 
ATOM     16  C   UNL     1      -5.187   2.382  25.440  0.00  0.00    +0.216 C 
ATOM     36  H   UNL     1      -4.039   1.242  24.138  0.00  0.00    +0.149 HD
BRANCH   8  18
ATOM     18  C   UNL     1      -4.522   0.010  25.798  0.00  0.00    +0.139 C 
BRANCH  18  20
ATOM      1  F   UNL     1      -1.207  -3.910  23.474  0.00  0.00    -0.205 F 
ATOM     20  C   UNL     1      -3.637  -1.037  25.177  0.00  0.00    -0.030 A 
ATOM     26  C   UNL     1      -2.271  -1.052  25.459  0.00  0.00    +0.008 A 
ATOM     27  C   UNL     1      -4.182  -1.993  24.318  0.00  0.00    +0.008 A 
ATOM     28  C   UNL     1      -1.450  -2.022  24.883  0.00  0.00    +0.038 A 
ATOM     29  C   UNL     1      -3.361  -2.963  23.743  0.00  0.00    +0.038 A 
ATOM     30  C   UNL     1      -1.996  -2.977  24.026  0.00  0.00    +0.123 A 
ENDBRANCH  18  20
ENDBRANCH   8  18
ENDBRANCH  14  16
ENDBRANCH  12  14
BRANCH  13  15
ATOM     15  C   UNL     1      -1.231   1.801  24.053  0.00  0.00    +0.138 C 
BRANCH  15   7
ATOM      6  O   UNL     1      -0.027  -0.258  22.454  0.00  0.00    -0.270 OA
ATOM      7  N   UNL     1       0.168   1.505  23.950  0.00  0.00    -0.309 N 
ATOM     17  C   UNL     1       0.666   0.483  23.147  0.00  0.00    +0.244 C 
ATOM     35  H   UNL     1       0.791   2.045  24.541  0.00  0.00    +0.149 HD
BRANCH  17  19
ATOM     19  C   UNL     1       2.138   0.286  23.171  0.00  0.00    +0.037 A 
ATOM     21  C   UNL     1       2.988   1.333  22.816  0.00  0.00    +0.015 A 
ATOM     22  C   UNL     1       2.672  -0.947  23.546  0.00  0.00    +0.015 A 
ATOM     23  C   UNL     1       4.903  -0.085  23.213  0.00  0.00    +0.029 A 
ATOM     24  C   UNL     1       4.370   1.149  22.838  0.00  0.00    +0.024 A 
ATOM     25  C   UNL     1       4.054  -1.133  23.568  0.00  0.00    +0.024 A 
BRANCH  23   9
ATOM      9  N   UNL     1       6.301  -0.272  23.236  0.00  0.00    -0.336 N 
ATOM     31  C   UNL     1       6.910  -1.353  22.487  0.00  0.00    +0.129 C 
ATOM     32  C   UNL     1       7.147   0.618  24.004  0.00  0.00    +0.129 C 
ENDBRANCH  23   9
ENDBRANCH  17  19
ENDBRANCH  15   7
ENDBRANCH  13  15
TORSDOF 10
ENDMDL
MODEL 5
REMARK VINA RESULT:       1.9      2.886      4.219
REMARK  Name = 40780655
REMARK  12 active torsions:
REMARK  status: ('A' for Active; 'I' for Inactive)
REMARK    1  A    between atoms: O_3  and  C_10
REMARK    2  A    between atoms: O_4  and  C_11
REMARK    3  A    between atoms: N_7  and  C_15
REMARK    4  A    between atoms: N_8  and  C_18
REMARK    5  A    between atoms: N_9  and  C_23
REMARK    6  A    between atoms: N_9  and  C_31
REMARK    7  A    between atoms: N_9  and  C_32
REMARK    8  A    between atoms: C_12  and  C_14
REMARK    9  A    between atoms: C_13  and  C_15
REMARK   10  A    between atoms: C_14  and  C_16
REMARK   11  A    between atoms: C_17  and  C_19
REMARK   12  A    between atoms: C_18  and  C_20
REMARK                            x       y       z     vdW  Elec       q    Type
REMARK                         _______ _______ _______ _____ _____    ______ ____
ROOT
ATOM      2  O   UNL     1      -3.738   2.159  25.868  0.00  0.00    -0.366 OA
ATOM     10  C   UNL     1      -5.550   3.536  25.253  0.00  0.00    +0.175 C 
ATOM     11  C   UNL     1      -6.104   2.174  25.620  0.00  0.00    +0.176 C 
ATOM     12  C   UNL     1      -4.204   3.517  25.957  0.00  0.00    +0.158 C 
ATOM     13  C   UNL     1      -4.857   1.298  25.557  0.00  0.00    +0.167 C 
ENDROOT
BRANCH  10   3
ATOM      3  O   UNL     1      -6.361   4.606  25.689  0.00  0.00    -0.387 OA
ATOM     33  H   UNL     1      -5.824   5.415  25.642  0.00  0.00    +0.210 HD
ENDBRANCH  10   3
BRANCH  11   4
ATOM      4  O   UNL     1      -6.576   2.179  26.966  0.00  0.00    -0.387 OA
ATOM     34  H   UNL     1      -7.165   2.947  27.065  0.00  0.00    +0.210 HD
ENDBRANCH  11   4
BRANCH  12  14
ATOM     14  C   UNL     1      -3.183   4.450  25.330  0.00  0.00    +0.130 C 
BRANCH  14  16
ATOM      5  O   UNL     1      -1.642   3.361  23.816  0.00  0.00    -0.276 OA
ATOM      8  N   UNL     1      -1.067   3.575  26.057  0.00  0.00    -0.311 N 
ATOM     16  C   UNL     1      -1.895   3.738  24.957  0.00  0.00    +0.216 C 
ATOM     36  H   UNL     1      -1.371   3.939  26.957  0.00  0.00    +0.149 HD
BRANCH   8  18
ATOM     18  C   UNL     1       0.222   2.926  25.986  0.00  0.00    +0.139 C 
BRANCH  18  20
ATOM      1  F   UNL     1       2.418   2.055  31.102  0.00  0.00    -0.205 F 
ATOM     20  C   UNL     1       0.809   2.694  27.353  0.00  0.00    -0.030 A 
ATOM     26  C   UNL     1       0.001   2.221  28.388  0.00  0.00    +0.008 A 
ATOM     27  C   UNL     1       2.160   2.951  27.586  0.00  0.00    +0.008 A 
ATOM     28  C   UNL     1       0.545   2.006  29.654  0.00  0.00    +0.038 A 
ATOM     29  C   UNL     1       2.704   2.736  28.852  0.00  0.00    +0.038 A 
ATOM     30  C   UNL     1       1.896   2.263  29.886  0.00  0.00    +0.123 A 
ENDBRANCH  18  20
ENDBRANCH   8  18
ENDBRANCH  14  16
ENDBRANCH  12  14
BRANCH  13  15
ATOM     15  C   UNL     1      -4.617   0.701  24.178  0.00  0.00    +0.138 C 
BRANCH  15   7
ATOM      6  O   UNL     1      -2.784  -1.092  25.470  0.00  0.00    -0.270 OA
ATOM      7  N   UNL     1      -3.215   0.570  23.908  0.00  0.00    -0.309 N 
ATOM     17  C   UNL     1      -2.397  -0.331  24.587  0.00  0.00    +0.244 C 
ATOM     35  H   UNL     1      -2.821   1.210  23.228  0.00  0.00    +0.149 HD
BRANCH  17  19
ATOM     19  C   UNL     1      -0.961  -0.327  24.210  0.00  0.00    +0.037 A 
ATOM     21  C   UNL     1      -0.452   0.696  23.411  0.00  0.00    +0.015 A 
ATOM     22  C   UNL     1      -0.120  -1.348  24.654  0.00  0.00    +0.015 A 
ATOM     23  C   UNL     1       1.737  -0.322  23.500  0.00  0.00    +0.029 A 
ATOM     24  C   UNL     1       0.897   0.699  23.056  0.00  0.00    +0.024 A 
ATOM     25  C   UNL     1       1.229  -1.346  24.299  0.00  0.00    +0.024 A 
BRANCH  23   9
ATOM      9  N   UNL     1       3.102  -0.319  23.142  0.00  0.00    -0.336 N 
ATOM     31  C   UNL     1       3.994  -1.348  23.637  0.00  0.00    +0.129 C 
ATOM     32  C   UNL     1       3.628   0.710  22.268  0.00  0.00    +0.129 C 
ENDBRANCH  23   9
ENDBRANCH  17  19
ENDBRANCH  15   7
ENDBRANCH  13  15
TORSDOF 10
ENDMDL
MODEL 6
REMARK VINA RESULT:       1.9      2.370      4.738
REMARK  Name = 40780655
REMARK  12 active torsions:
REMARK  status: ('A' for Active; 'I' for Inactive)
REMARK    1  A    between atoms: O_3  and  C_10
REMARK    2  A    between atoms: O_4  and  C_11
REMARK    3  A    between atoms: N_7  and  C_15
REMARK    4  A    between atoms: N_8  and  C_18
REMARK    5  A    between atoms: N_9  and  C_23
REMARK    6  A    between atoms: N_9  and  C_31
REMARK    7  A    between atoms: N_9  and  C_32
REMARK    8  A    between atoms: C_12  and  C_14
REMARK    9  A    between atoms: C_13  and  C_15
REMARK   10  A    between atoms: C_14  and  C_16
REMARK   11  A    between atoms: C_17  and  C_19
REMARK   12  A    between atoms: C_18  and  C_20
REMARK                            x       y       z     vdW  Elec       q    Type
REMARK                         _______ _______ _______ _____ _____    ______ ____
ROOT
ATOM      2  O   UNL     1      -2.911  -0.121  25.766  0.00  0.00    -0.366 OA
ATOM     10  C   UNL     1      -3.126  -1.769  24.094  0.00  0.00    +0.175 C 
ATOM     11  C   UNL     1      -1.713  -1.837  24.635  0.00  0.00    +0.176 C 
ATOM     12  C   UNL     1      -3.853  -1.065  25.228  0.00  0.00    +0.158 C 
ATOM     13  C   UNL     1      -1.580  -0.492  25.342  0.00  0.00    +0.167 C 
ENDROOT
BRANCH  10   3
ATOM      3  O   UNL     1      -3.680  -3.037  23.816  0.00  0.00    -0.387 OA
ATOM     33  H   UNL     1      -2.943  -3.665  23.732  0.00  0.00    +0.210 HD
ENDBRANCH  10   3
BRANCH  11   4
ATOM      4  O   UNL     1      -1.608  -2.866  25.617  0.00  0.00    -0.387 OA
ATOM     34  H   UNL     1      -2.173  -3.604  25.327  0.00  0.00    +0.210 HD
ENDBRANCH  11   4
BRANCH  12  14
ATOM     14  C   UNL     1      -5.107  -0.336  24.778  0.00  0.00    +0.130 C 
BRANCH  14  16
ATOM      5  O   UNL     1      -4.278   1.649  23.672  0.00  0.00    -0.276 OA
ATOM      8  N   UNL     1      -5.456   1.870  25.663  0.00  0.00    -0.311 N 
ATOM     16  C   UNL     1      -4.888   1.157  24.618  0.00  0.00    +0.216 C 
ATOM     36  H   UNL     1      -5.952   1.360  26.390  0.00  0.00    +0.149 HD
BRANCH   8  18
ATOM     18  C   UNL     1      -5.394   3.310  25.762  0.00  0.00    +0.139 C 
BRANCH  18  20
ATOM      1  F   UNL     1      -0.186   5.257  24.846  0.00  0.00    -0.205 F 
ATOM     20  C   UNL     1      -4.003   3.830  25.517  0.00  0.00    -0.030 A 
ATOM     26  C   UNL     1      -2.961   3.462  26.368  0.00  0.00    +0.008 A 
ATOM     27  C   UNL     1      -3.755   4.681  24.440  0.00  0.00    +0.008 A 
ATOM     28  C   UNL     1      -1.672   3.944  26.142  0.00  0.00    +0.038 A 
ATOM     29  C   UNL     1      -2.466   5.163  24.213  0.00  0.00    +0.038 A 
ATOM     30  C   UNL     1      -1.425   4.794  25.064  0.00  0.00    +0.123 A 
ENDBRANCH  18  20
ENDBRANCH   8  18
ENDBRANCH  14  16
ENDBRANCH  12  14
BRANCH  13  15
ATOM     15  C   UNL     1      -1.055   0.610  24.433  0.00  0.00    +0.138 C 
BRANCH  15   7
ATOM      6  O   UNL     1       0.388  -0.410  22.170  0.00  0.00    -0.270 OA
ATOM      7  N   UNL     1       0.369   0.530  24.292  0.00  0.00    -0.309 N 
ATOM     17  C   UNL     1       0.987   0.018  23.154  0.00  0.00    +0.244 C 
ATOM     35  H   UNL     1       0.922   0.816  25.093  0.00  0.00    +0.149 HD
BRANCH  17  19
ATOM     19  C   UNL     1       2.471  -0.021  23.174  0.00  0.00    +0.037 A 
ATOM     21  C   UNL     1       3.134  -1.162  23.627  0.00  0.00    +0.015 A 
ATOM     22  C   UNL     1       3.205   1.084  22.740  0.00  0.00    +0.015 A 
ATOM     23  C   UNL     1       5.260  -0.093  23.213  0.00  0.00    +0.029 A 
ATOM     24  C   UNL     1       4.527  -1.199  23.646  0.00  0.00    +0.024 A 
ATOM     25  C   UNL     1       4.599   1.048  22.759  0.00  0.00    +0.024 A 
BRANCH  23   9
ATOM      9  N   UNL     1       6.671  -0.130  23.232  0.00  0.00    -0.336 N 
ATOM     31  C   UNL     1       7.423   0.889  23.935  0.00  0.00    +0.129 C 
ATOM     32  C   UNL     1       7.385  -1.193  22.553  0.00  0.00    +0.129 C 
ENDBRANCH  23   9
ENDBRANCH  17  19
ENDBRANCH  15   7
ENDBRANCH  13  15
TORSDOF 10
ENDMDL
MODEL 7
REMARK VINA RESULT:       1.9      2.202      5.664
REMARK  Name = 40780655
REMARK  12 active torsions:
REMARK  status: ('A' for Active; 'I' for Inactive)
REMARK    1  A    between atoms: O_3  and  C_10
REMARK    2  A    between atoms: O_4  and  C_11
REMARK    3  A    between atoms: N_7  and  C_15
REMARK    4  A    between atoms: N_8  and  C_18
REMARK    5  A    between atoms: N_9  and  C_23
REMARK    6  A    between atoms: N_9  and  C_31
REMARK    7  A    between atoms: N_9  and  C_32
REMARK    8  A    between atoms: C_12  and  C_14
REMARK    9  A    between atoms: C_13  and  C_15
REMARK   10  A    between atoms: C_14  and  C_16
REMARK   11  A    between atoms: C_17  and  C_19
REMARK   12  A    between atoms: C_18  and  C_20
REMARK                            x       y       z     vdW  Elec       q    Type
REMARK                         _______ _______ _______ _____ _____    ______ ____
ROOT
ATOM      2  O   UNL     1      -2.289   3.862  26.582  0.00  0.00    -0.366 OA
ATOM     10  C   UNL     1      -1.241   3.982  24.474  0.00  0.00    +0.175 C 
ATOM     11  C   UNL     1      -2.117   5.208  24.629  0.00  0.00    +0.176 C 
ATOM     12  C   UNL     1      -1.048   3.562  25.922  0.00  0.00    +0.158 C 
ATOM     13  C   UNL     1      -3.037   4.797  25.773  0.00  0.00    +0.167 C 
ENDROOT
BRANCH  10   3
ATOM      3  O   UNL     1      -0.013   4.248  23.832  0.00  0.00    -0.387 OA
ATOM     33  H   UNL     1      -0.082   5.130  23.427  0.00  0.00    +0.210 HD
ENDBRANCH  10   3
BRANCH  11   4
ATOM      4  O   UNL     1      -1.338   6.321  25.063  0.00  0.00    -0.387 OA
ATOM     34  H   UNL     1      -1.207   6.228  26.023  0.00  0.00    +0.210 HD
ENDBRANCH  11   4
BRANCH  12  14
ATOM     14  C   UNL     1      -0.727   2.086  26.083  0.00  0.00    +0.130 C 
BRANCH  14  16
ATOM      5  O   UNL     1      -1.540   1.049  24.054  0.00  0.00    -0.276 OA
ATOM      8  N   UNL     1       0.749   1.141  24.439  0.00  0.00    -0.311 N 
ATOM     16  C   UNL     1      -0.582   1.373  24.750  0.00  0.00    +0.216 C 
ATOM     36  H   UNL     1       1.466   1.465  25.084  0.00  0.00    +0.149 HD
BRANCH   8  18
ATOM     18  C   UNL     1       1.173   0.476  23.229  0.00  0.00    +0.139 C 
BRANCH  18  20
ATOM      1  F   UNL     1       6.731  -0.450  23.176  0.00  0.00    -0.205 F 
ATOM     20  C   UNL     1       2.658   0.228  23.215  0.00  0.00    -0.030 A 
ATOM     26  C   UNL     1       3.527   1.228  22.779  0.00  0.00    +0.008 A 
ATOM     27  C   UNL     1       3.165  -1.001  23.637  0.00  0.00    +0.008 A 
ATOM     28  C   UNL     1       4.903   0.999  22.766  0.00  0.00    +0.038 A 
ATOM     29  C   UNL     1       4.540  -1.230  23.623  0.00  0.00    +0.038 A 
ATOM     30  C   UNL     1       5.409  -0.230  23.188  0.00  0.00    +0.123 A 
ENDBRANCH  18  20
ENDBRANCH   8  18
ENDBRANCH  14  16
ENDBRANCH  12  14
BRANCH  13  15
ATOM     15  C   UNL     1      -4.302   4.095  25.299  0.00  0.00    +0.138 C 
BRANCH  15   7
ATOM      6  O   UNL     1      -5.804   1.816  26.187  0.00  0.00    -0.270 OA
ATOM      7  N   UNL     1      -4.042   2.722  24.980  0.00  0.00    -0.309 N 
ATOM     17  C   UNL     1      -4.826   1.675  25.457  0.00  0.00    +0.244 C 
ATOM     35  H   UNL     1      -3.214   2.533  24.425  0.00  0.00    +0.149 HD
BRANCH  17  19
ATOM     19  C   UNL     1      -4.410   0.307  25.057  0.00  0.00    +0.037 A 
ATOM     21  C   UNL     1      -4.740  -0.182  23.794  0.00  0.00    +0.015 A 
ATOM     22  C   UNL     1      -3.689  -0.491  25.946  0.00  0.00    +0.015 A 
ATOM     23  C   UNL     1      -3.629  -2.265  24.308  0.00  0.00    +0.029 A 
ATOM     24  C   UNL     1      -4.350  -1.467  23.418  0.00  0.00    +0.024 A 
ATOM     25  C   UNL     1      -3.298  -1.777  25.572  0.00  0.00    +0.024 A 
BRANCH  23   9
ATOM      9  N   UNL     1      -3.233  -3.565  23.929  0.00  0.00    -0.336 N 
ATOM     31  C   UNL     1      -4.208  -4.633  23.839  0.00  0.00    +0.129 C 
ATOM     32  C   UNL     1      -1.847  -3.847  23.618  0.00  0.00    +0.129 C 
ENDBRANCH  23   9
ENDBRANCH  17  19
ENDBRANCH  15   7
ENDBRANCH  13  15
TORSDOF 10
ENDMDL
MODEL 8
REMARK VINA RESULT:       2.2      1.357      2.792
REMARK  Name = 40780655
REMARK  12 active torsions:
REMARK  status: ('A' for Active; 'I' for Inactive)
REMARK    1  A    between atoms: O_3  and  C_10
REMARK    2  A    between atoms: O_4  and  C_11
REMARK    3  A    between atoms: N_7  and  C_15
REMARK    4  A    between atoms: N_8  and  C_18
REMARK    5  A    between atoms: N_9  and  C_23
REMARK    6  A    between atoms: N_9  and  C_31
REMARK    7  A    between atoms: N_9  and  C_32
REMARK    8  A    between atoms: C_12  and  C_14
REMARK    9  A    between atoms: C_13  and  C_15
REMARK   10  A    between atoms: C_14  and  C_16
REMARK   11  A    between atoms: C_17  and  C_19
REMARK   12  A    between atoms: C_18  and  C_20
REMARK                            x       y       z     vdW  Elec       q    Type
REMARK                         _______ _______ _______ _____ _____    ______ ____
ROOT
ATOM      2  O   UNL     1      -3.828   4.278  24.543  0.00  0.00    -0.366 OA
ATOM     10  C   UNL     1      -5.417   2.620  25.074  0.00  0.00    +0.175 C 
ATOM     11  C   UNL     1      -5.522   3.715  26.114  0.00  0.00    +0.176 C 
ATOM     12  C   UNL     1      -4.741   3.353  23.927  0.00  0.00    +0.158 C 
ATOM     13  C   UNL     1      -4.203   4.458  25.927  0.00  0.00    +0.167 C 
ENDROOT
BRANCH  10   3
ATOM      3  O   UNL     1      -6.667   2.085  24.695  0.00  0.00    -0.387 OA
ATOM     33  H   UNL     1      -6.528   1.565  23.886  0.00  0.00    +0.210 HD
ENDBRANCH  10   3
BRANCH  11   4
ATOM      4  O   UNL     1      -6.585   4.609  25.786  0.00  0.00    -0.387 OA
ATOM     34  H   UNL     1      -7.362   4.340  26.306  0.00  0.00    +0.210 HD
ENDBRANCH  11   4
BRANCH  12  14
ATOM     14  C   UNL     1      -3.981   2.432  22.989  0.00  0.00    +0.130 C 
BRANCH  14  16
ATOM      5  O   UNL     1      -3.685   0.041  22.771  0.00  0.00    -0.276 OA
ATOM      8  N   UNL     1      -4.161   0.938  24.861  0.00  0.00    -0.311 N 
ATOM     16  C   UNL     1      -3.919   1.003  23.498  0.00  0.00    +0.216 C 
ATOM     36  H   UNL     1      -4.331   1.802  25.370  0.00  0.00    +0.149 HD
BRANCH   8  18
ATOM     18  C   UNL     1      -4.165  -0.301  25.604  0.00  0.00    +0.139 C 
BRANCH  18  20
ATOM      1  F   UNL     1       0.869  -2.832  25.492  0.00  0.00    -0.205 F 
ATOM     20  C   UNL     1      -2.820  -0.977  25.574  0.00  0.00    -0.030 A 
ATOM     26  C   UNL     1      -1.746  -0.426  26.273  0.00  0.00    +0.008 A 
ATOM     27  C   UNL     1      -2.647  -2.156  24.847  0.00  0.00    +0.008 A 
ATOM     28  C   UNL     1      -0.500  -1.052  26.245  0.00  0.00    +0.038 A 
ATOM     29  C   UNL     1      -1.401  -2.782  24.819  0.00  0.00    +0.038 A 
ATOM     30  C   UNL     1      -0.328  -2.229  25.518  0.00  0.00    +0.123 A 
ENDBRANCH  18  20
ENDBRANCH   8  18
ENDBRANCH  14  16
ENDBRANCH  12  14
BRANCH  13  15
ATOM     15  C   UNL     1      -3.080   3.903  26.791  0.00  0.00    +0.138 C 
BRANCH  15   7
ATOM      6  O   UNL     1      -0.823   4.755  25.233  0.00  0.00    -0.270 OA
ATOM      7  N   UNL     1      -2.204   3.066  26.025  0.00  0.00    -0.309 N 
ATOM     17  C   UNL     1      -1.128   3.566  25.296  0.00  0.00    +0.244 C 
ATOM     35  H   UNL     1      -2.434   2.079  25.990  0.00  0.00    +0.149 HD
BRANCH  17  19
ATOM     19  C   UNL     1      -0.332   2.572  24.533  0.00  0.00    +0.037 A 
ATOM     21  C   UNL     1      -0.975   1.623  23.739  0.00  0.00    +0.015 A 
ATOM     22  C   UNL     1       1.061   2.585  24.610  0.00  0.00    +0.015 A 
ATOM     23  C   UNL     1       1.165   0.702  23.102  0.00  0.00    +0.029 A 
ATOM     24  C   UNL     1      -0.228   0.688  23.024  0.00  0.00    +0.024 A 
ATOM     25  C   UNL     1       1.810   1.651  23.895  0.00  0.00    +0.024 A 
BRANCH  23   9
ATOM      9  N   UNL     1       1.922  -0.243  22.378  0.00  0.00    -0.336 N 
ATOM     31  C   UNL     1       3.284  -0.547  22.767  0.00  0.00    +0.129 C 
ATOM     32  C   UNL     1       1.344  -0.926  21.238  0.00  0.00    +0.129 C 
ENDBRANCH  23   9
ENDBRANCH  17  19
ENDBRANCH  15   7
ENDBRANCH  13  15
TORSDOF 10
ENDMDL
