MODEL 1
REMARK VINA RESULT:      21.0      0.000      0.000
REMARK  Name = 24066823
REMARK  7 active torsions:
REMARK  status: ('A' for Active; 'I' for Inactive)
REMARK    1  A    between atoms: O_3  and  C_12
REMARK    2  A    between atoms: C_10  and  C_18
REMARK    3  A    between atoms: C_13  and  C_19
REMARK    4  A    between atoms: C_15  and  C_22
REMARK    5  A    between atoms: C_19  and  C_23
REMARK    6  A    between atoms: C_19  and  C_24
REMARK    7  A    between atoms: C_30  and  C_31
REMARK                            x       y       z     vdW  Elec       q    Type
REMARK                         _______ _______ _______ _____ _____    ______ ____
ROOT
ATOM      1  S   UNL     1       2.065  -2.151  24.204  0.00  0.00    -0.057 S 
ATOM      5  O   UNL     1       4.709   1.493  23.023  0.00  0.00    -0.270 OA
ATOM      6  N   UNL     1       2.054   0.387  23.714  0.00  0.00    -0.229 NA
ATOM      8  N   UNL     1       4.177  -0.743  23.547  0.00  0.00    -0.261 N 
ATOM     10  C   UNL     1      -1.722  -0.888  25.194  0.00  0.00    -0.022 C 
ATOM     11  C   UNL     1      -1.768   0.310  24.165  0.00  0.00    +0.033 C 
ATOM     12  C   UNL     1      -2.937   1.285  24.482  0.00  0.00    +0.123 C 
ATOM     13  C   UNL     1      -4.294   0.563  24.626  0.00  0.00    +0.029 C 
ATOM     14  C   UNL     1      -3.108  -1.569  25.261  0.00  0.00    +0.008 C 
ATOM     15  C   UNL     1      -0.363   1.031  24.034  0.00  0.00    +0.042 C 
ATOM     16  C   UNL     1      -4.233  -0.605  25.610  0.00  0.00    +0.007 C 
ATOM     17  C   UNL     1      -0.697  -1.961  24.709  0.00  0.00    +0.051 C 
ATOM     18  C   UNL     1      -1.322  -0.418  26.617  0.00  0.00    +0.012 C 
ATOM     20  C   UNL     1       0.754   0.015  24.005  0.00  0.00    +0.057 A 
ATOM     21  C   UNL     1       0.586  -1.317  24.320  0.00  0.00    +0.015 A 
ATOM     22  C   UNL     1      -0.266   1.951  22.808  0.00  0.00    +0.014 C 
ATOM     25  C   UNL     1       2.829  -0.674  23.778  0.00  0.00    +0.165 A 
ATOM     30  C   UNL     1       5.024   0.320  23.191  0.00  0.00    +0.250 C 
ATOM     37  H   UNL     1       4.568  -1.667  23.698  0.00  0.00    +0.157 HD
ENDROOT
BRANCH  30  31
ATOM      9  N   UNL     1       9.158  -0.703  22.739  0.00  0.00    -0.263 NA
ATOM     31  C   UNL     1       6.459  -0.036  23.034  0.00  0.00    +0.040 A 
ATOM     32  C   UNL     1       7.443   0.758  23.615  0.00  0.00    +0.033 A 
ATOM     33  C   UNL     1       6.824  -1.163  22.307  0.00  0.00    +0.033 A 
ATOM     34  C   UNL     1       8.765   0.384  23.439  0.00  0.00    +0.111 A 
ATOM     35  C   UNL     1       8.174  -1.451  22.190  0.00  0.00    +0.111 A 
ENDBRANCH  30  31
BRANCH  12   3
ATOM      3  O   UNL     1      -3.070   2.226  23.417  0.00  0.00    -0.391 OA
ATOM     36  H   UNL     1      -2.179   2.436  23.087  0.00  0.00    +0.210 HD
ENDBRANCH  12   3
BRANCH  13  19
ATOM     19  C   UNL     1      -5.411   1.527  25.043  0.00  0.00    +0.078 C 
ATOM     23  C   UNL     1      -6.776   0.978  24.669  0.00  0.00    +0.017 C 
BRANCH  19  24
ATOM      2  S   UNL     1      -1.636   5.111  25.565  0.00  0.00    -0.158 S 
ATOM      4  O   UNL     1      -5.641   3.038  23.233  0.00  0.00    -0.275 OA
ATOM      7  N   UNL     1      -4.449   3.803  25.075  0.00  0.00    -0.300 N 
ATOM     24  C   UNL     1      -5.182   2.854  24.363  0.00  0.00    +0.219 C 
ATOM     26  C   UNL     1      -4.184   5.114  24.480  0.00  0.00    +0.118 C 
ATOM     27  C   UNL     1      -3.792   3.571  26.368  0.00  0.00    +0.118 C 
ATOM     28  C   UNL     1      -2.715   5.265  24.105  0.00  0.00    +0.088 C 
ATOM     29  C   UNL     1      -2.276   3.534  26.215  0.00  0.00    +0.088 C 
ENDBRANCH  19  24
ENDBRANCH  13  19
TORSDOF 4
ENDMDL
MODEL 2
REMARK VINA RESULT:      24.6      1.532      1.848
REMARK  Name = 24066823
REMARK  7 active torsions:
REMARK  status: ('A' for Active; 'I' for Inactive)
REMARK    1  A    between atoms: O_3  and  C_12
REMARK    2  A    between atoms: C_10  and  C_18
REMARK    3  A    between atoms: C_13  and  C_19
REMARK    4  A    between atoms: C_15  and  C_22
REMARK    5  A    between atoms: C_19  and  C_23
REMARK    6  A    between atoms: C_19  and  C_24
REMARK    7  A    between atoms: C_30  and  C_31
REMARK                            x       y       z     vdW  Elec       q    Type
REMARK                         _______ _______ _______ _____ _____    ______ ____
ROOT
ATOM      1  S   UNL     1       2.288  -0.349  21.767  0.00  0.00    -0.057 S 
ATOM      5  O   UNL     1       5.447   0.824  24.979  0.00  0.00    -0.270 OA
ATOM      6  N   UNL     1       2.617   0.611  24.145  0.00  0.00    -0.229 NA
ATOM      8  N   UNL     1       4.611   0.025  22.924  0.00  0.00    -0.261 N 
ATOM     10  C   UNL     1      -1.498  -0.106  23.355  0.00  0.00    -0.022 C 
ATOM     11  C   UNL     1      -1.196   1.114  24.311  0.00  0.00    +0.033 C 
ATOM     12  C   UNL     1      -2.316   1.291  25.376  0.00  0.00    +0.123 C 
ATOM     13  C   UNL     1      -3.727   1.351  24.752  0.00  0.00    +0.029 C 
ATOM     14  C   UNL     1      -2.917   0.041  22.757  0.00  0.00    +0.008 C 
ATOM     15  C   UNL     1       0.258   1.031  24.935  0.00  0.00    +0.042 C 
ATOM     16  C   UNL     1      -4.002   0.175  23.815  0.00  0.00    +0.007 C 
ATOM     17  C   UNL     1      -0.488  -0.107  22.165  0.00  0.00    +0.051 C 
ATOM     18  C   UNL     1      -1.403  -1.465  24.097  0.00  0.00    +0.012 C 
ATOM     20  C   UNL     1       1.257   0.585  23.893  0.00  0.00    +0.057 A 
ATOM     21  C   UNL     1       0.903   0.069  22.664  0.00  0.00    +0.015 A 
ATOM     22  C   UNL     1       0.721   2.348  25.573  0.00  0.00    +0.014 C 
ATOM     25  C   UNL     1       3.258   0.153  23.092  0.00  0.00    +0.165 A 
ATOM     30  C   UNL     1       5.608   0.359  23.856  0.00  0.00    +0.250 C 
ATOM     37  H   UNL     1       4.872  -0.394  22.037  0.00  0.00    +0.157 HD
ENDROOT
BRANCH  30  31
ATOM      9  N   UNL     1       9.625  -0.431  22.599  0.00  0.00    -0.263 NA
ATOM     31  C   UNL     1       7.003   0.084  23.419  0.00  0.00    +0.040 A 
ATOM     32  C   UNL     1       8.033   0.939  23.797  0.00  0.00    +0.033 A 
ATOM     33  C   UNL     1       7.283  -1.028  22.634  0.00  0.00    +0.033 A 
ATOM     34  C   UNL     1       9.316   0.639  23.364  0.00  0.00    +0.111 A 
ATOM     35  C   UNL     1       8.598  -1.240  22.253  0.00  0.00    +0.111 A 
ENDBRANCH  30  31
BRANCH  12   3
ATOM      3  O   UNL     1      -2.112   2.517  26.077  0.00  0.00    -0.391 OA
ATOM     36  H   UNL     1      -2.659   2.500  26.880  0.00  0.00    +0.210 HD
ENDBRANCH  12   3
BRANCH  13  19
ATOM     19  C   UNL     1      -4.821   1.418  25.825  0.00  0.00    +0.078 C 
ATOM     23  C   UNL     1      -5.664   0.156  25.828  0.00  0.00    +0.017 C 
BRANCH  19  24
ATOM      2  S   UNL     1      -3.743   6.117  23.793  0.00  0.00    -0.158 S 
ATOM      4  O   UNL     1      -6.897   2.460  25.358  0.00  0.00    -0.275 OA
ATOM      7  N   UNL     1      -5.054   3.863  25.543  0.00  0.00    -0.300 N 
ATOM     24  C   UNL     1      -5.690   2.621  25.554  0.00  0.00    +0.219 C 
ATOM     26  C   UNL     1      -5.831   5.075  25.285  0.00  0.00    +0.118 C 
ATOM     27  C   UNL     1      -3.605   4.073  25.656  0.00  0.00    +0.118 C 
ATOM     28  C   UNL     1      -5.503   5.663  23.917  0.00  0.00    +0.088 C 
ATOM     29  C   UNL     1      -3.012   4.536  24.330  0.00  0.00    +0.088 C 
ENDBRANCH  19  24
ENDBRANCH  13  19
TORSDOF 4
ENDMDL
