MODEL 1
REMARK VINA RESULT:       5.4      0.000      0.000
REMARK  Name = 7143826
REMARK  7 active torsions:
REMARK  status: ('A' for Active; 'I' for Inactive)
REMARK    1  A    between atoms: S_1  and  C_27
REMARK    2  A    between atoms: S_1  and  C_28
REMARK    3  A    between atoms: C_13  and  C_15
REMARK    4  A    between atoms: C_15  and  C_19
REMARK    5  A    between atoms: C_15  and  C_20
REMARK    6  A    between atoms: C_15  and  C_21
REMARK    7  A    between atoms: C_17  and  C_22
REMARK                            x       y       z     vdW  Elec       q    Type
REMARK                         _______ _______ _______ _____ _____    ______ ____
ROOT
ATOM      2  O   UNL     1      -3.169  -1.024  26.842  0.00  0.00    -0.275 OA
ATOM      3  O   UNL     1       0.985   1.932  25.230  0.00  0.00    -0.267 OA
ATOM      4  N   UNL     1      -3.707   0.170  24.923  0.00  0.00    -0.300 N 
ATOM      5  N   UNL     1      -1.033   1.703  24.084  0.00  0.00    -0.311 N 
ATOM      6  C   UNL     1      -3.244   2.623  24.991  0.00  0.00    +0.027 C 
ATOM      7  C   UNL     1      -3.207   1.435  22.839  0.00  0.00    +0.054 C 
ATOM      8  C   UNL     1      -3.642   2.729  23.524  0.00  0.00    +0.018 C 
ATOM      9  C   UNL     1      -3.935   1.419  25.653  0.00  0.00    +0.113 C 
ATOM     10  C   UNL     1      -3.947   0.241  23.474  0.00  0.00    +0.117 C 
ATOM     11  C   UNL     1      -1.717   2.535  25.085  0.00  0.00    +0.130 C 
ATOM     12  C   UNL     1      -1.708   1.231  22.956  0.00  0.00    +0.027 A 
ATOM     13  C   UNL     1      -3.367  -0.986  25.625  0.00  0.00    +0.221 C 
ATOM     14  C   UNL     1      -1.038   0.576  21.996  0.00  0.00    +0.022 A 
ATOM     16  C   UNL     1       0.349   1.502  24.266  0.00  0.00    +0.259 A 
ATOM     17  C   UNL     1       1.067   0.732  23.191  0.00  0.00    +0.047 A 
ATOM     18  C   UNL     1       0.369   0.320  22.121  0.00  0.00    +0.015 A 
ENDROOT
BRANCH  17  22
ATOM     22  C   UNL     1       2.502   0.424  23.301  0.00  0.00    -0.013 A 
ATOM     23  C   UNL     1       2.916  -0.851  23.687  0.00  0.00    +0.010 A 
ATOM     24  C   UNL     1       3.451   1.409  23.020  0.00  0.00    +0.010 A 
ATOM     25  C   UNL     1       4.277  -1.142  23.792  0.00  0.00    +0.015 A 
ATOM     26  C   UNL     1       4.811   1.117  23.125  0.00  0.00    +0.015 A 
ATOM     27  C   UNL     1       5.224  -0.158  23.511  0.00  0.00    +0.008 A 
BRANCH  27   1
ATOM      1  S   UNL     1       6.961  -0.529  23.645  0.00  0.00    -0.129 S 
ATOM     28  C   UNL     1       7.254  -1.486  22.132  0.00  0.00    +0.090 C 
ENDBRANCH  27   1
ENDBRANCH  17  22
BRANCH  13  15
ATOM     15  C   UNL     1      -3.233  -2.252  24.817  0.00  0.00    +0.039 C 
ATOM     19  C   UNL     1      -3.379  -3.437  25.772  0.00  0.00    +0.020 C 
ATOM     20  C   UNL     1      -1.857  -2.268  24.150  0.00  0.00    +0.020 C 
ATOM     21  C   UNL     1      -4.337  -2.280  23.758  0.00  0.00    +0.020 C 
ENDBRANCH  13  15
TORSDOF 3
ENDMDL
