MODEL 1
REMARK VINA RESULT:      -0.5      0.000      0.000
REMARK  Name = 45783870
REMARK  12 active torsions:
REMARK  status: ('A' for Active; 'I' for Inactive)
REMARK    1  A    between atoms: S_1  and  N_7
REMARK    2  A    between atoms: S_1  and  C_26
REMARK    3  A    between atoms: N_7  and  C_17
REMARK    4  A    between atoms: N_8  and  C_31
REMARK    5  A    between atoms: C_9  and  C_13
REMARK    6  A    between atoms: C_10  and  C_17
REMARK    7  A    between atoms: C_12  and  C_16
REMARK    8  A    between atoms: C_13  and  C_18
REMARK    9  A    between atoms: C_13  and  C_19
REMARK   10  A    between atoms: C_14  and  C_20
REMARK   11  A    between atoms: C_16  and  C_21
REMARK   12  A    between atoms: C_32  and  C_33
REMARK                            x       y       z     vdW  Elec       q    Type
REMARK                         _______ _______ _______ _____ _____    ______ ____
ROOT
ATOM      9  C   UNL     1      -4.145   2.819  25.832  0.00  0.00    +0.000 C 
ATOM     10  C   UNL     1      -4.130   2.608  24.297  0.00  0.00    +0.030 C 
ATOM     11  C   UNL     1      -3.147   3.917  26.231  0.00  0.00    +0.012 C 
ATOM     12  C   UNL     1      -1.707   3.580  25.800  0.00  0.00    +0.023 C 
ATOM     14  C   UNL     1      -1.647   3.103  24.363  0.00  0.00    -0.073 C 
ATOM     15  C   UNL     1      -2.743   2.685  23.703  0.00  0.00    -0.023 C 
ATOM     20  C   UNL     1      -0.307   3.159  23.686  0.00  0.00    +0.039 C 
ENDROOT
BRANCH   9  13
ATOM     13  C   UNL     1      -5.544   3.179  26.342  0.00  0.00    -0.013 C 
ATOM     18  C   UNL     1      -6.451   1.953  26.316  0.00  0.00    +0.007 C 
ATOM     19  C   UNL     1      -6.139   4.310  25.509  0.00  0.00    +0.007 C 
ENDBRANCH   9  13
BRANCH  12  16
ATOM     16  C   UNL     1      -1.071   2.555  26.745  0.00  0.00    +0.103 C 
BRANCH  16  21
ATOM      2  O   UNL     1       1.013   2.761  25.612  0.00  0.00    -0.276 OA
ATOM      6  N   UNL     1       1.072   2.661  27.919  0.00  0.00    -0.301 N 
ATOM     21  C   UNL     1       0.430   2.671  26.694  0.00  0.00    +0.216 C 
ATOM     22  C   UNL     1       0.444   2.561  29.232  0.00  0.00    +0.108 C 
ATOM     23  C   UNL     1       2.519   2.756  28.039  0.00  0.00    +0.108 C 
ATOM     24  C   UNL     1       1.601   2.315  30.189  0.00  0.00    +0.020 C 
ATOM     25  C   UNL     1       2.762   3.035  29.515  0.00  0.00    +0.020 C 
ENDBRANCH  16  21
ENDBRANCH  12  16
BRANCH  10  17
ATOM     17  C   UNL     1      -4.775   1.271  23.916  0.00  0.00    +0.113 C 
BRANCH  17   7
ATOM      7  N   UNL     1      -4.550   0.302  25.000  0.00  0.00    -0.189 NA
ATOM     34  H   UNL     1      -4.383   0.696  25.933  0.00  0.00    +0.148 HD
BRANCH   7   1
ATOM      1  S   UNL     1      -3.863  -1.220  24.660  0.00  0.00    +0.058 S 
ATOM      3  O   UNL     1      -4.439  -1.744  23.437  0.00  0.00    -0.153 OA
ATOM      4  O   UNL     1      -3.865  -2.022  25.869  0.00  0.00    -0.153 OA
BRANCH   1  26
ATOM     26  C   UNL     1      -2.181  -0.789  24.330  0.00  0.00    +0.105 A 
ATOM     27  C   UNL     1      -1.211  -0.961  25.317  0.00  0.00    +0.030 A 
ATOM     28  C   UNL     1      -1.824  -0.275  23.083  0.00  0.00    +0.030 A 
ATOM     29  C   UNL     1       0.116  -0.621  25.058  0.00  0.00    +0.025 A 
ATOM     30  C   UNL     1      -0.496   0.065  22.823  0.00  0.00    +0.025 A 
ATOM     31  C   UNL     1       0.474  -0.108  23.811  0.00  0.00    +0.033 A 
BRANCH  31   8
ATOM      5  O   UNL     1       2.074  -0.283  21.267  0.00  0.00    -0.276 OA
ATOM      8  N   UNL     1       1.802   0.232  23.551  0.00  0.00    -0.286 N 
ATOM     32  C   UNL     1       2.501   0.128  22.340  0.00  0.00    +0.214 C 
ATOM     33  C   UNL     1       3.926   0.601  22.475  0.00  0.00    +0.109 C 
ATOM     35  H   UNL     1       2.320   0.601  24.346  0.00  0.00    +0.155 HD
ENDBRANCH  31   8
ENDBRANCH   1  26
ENDBRANCH   7   1
ENDBRANCH  17   7
ENDBRANCH  10  17
TORSDOF 8
ENDMDL
MODEL 2
REMARK VINA RESULT:       0.2      1.823      2.641
REMARK  Name = 45783870
REMARK  12 active torsions:
REMARK  status: ('A' for Active; 'I' for Inactive)
REMARK    1  A    between atoms: S_1  and  N_7
REMARK    2  A    between atoms: S_1  and  C_26
REMARK    3  A    between atoms: N_7  and  C_17
REMARK    4  A    between atoms: N_8  and  C_31
REMARK    5  A    between atoms: C_9  and  C_13
REMARK    6  A    between atoms: C_10  and  C_17
REMARK    7  A    between atoms: C_12  and  C_16
REMARK    8  A    between atoms: C_13  and  C_18
REMARK    9  A    between atoms: C_13  and  C_19
REMARK   10  A    between atoms: C_14  and  C_20
REMARK   11  A    between atoms: C_16  and  C_21
REMARK   12  A    between atoms: C_32  and  C_33
REMARK                            x       y       z     vdW  Elec       q    Type
REMARK                         _______ _______ _______ _____ _____    ______ ____
ROOT
ATOM      9  C   UNL     1      -4.585   2.595  25.299  0.00  0.00    +0.000 C 
ATOM     10  C   UNL     1      -4.263   1.197  24.713  0.00  0.00    +0.030 C 
ATOM     11  C   UNL     1      -4.958   3.574  24.176  0.00  0.00    +0.012 C 
ATOM     12  C   UNL     1      -3.829   3.729  23.139  0.00  0.00    +0.023 C 
ATOM     14  C   UNL     1      -3.274   2.386  22.708  0.00  0.00    -0.073 C 
ATOM     15  C   UNL     1      -3.489   1.264  23.418  0.00  0.00    -0.023 C 
ATOM     20  C   UNL     1      -2.501   2.355  21.420  0.00  0.00    +0.039 C 
ENDROOT
BRANCH   9  13
ATOM     13  C   UNL     1      -5.716   2.533  26.330  0.00  0.00    -0.013 C 
ATOM     18  C   UNL     1      -6.626   1.341  26.049  0.00  0.00    +0.007 C 
ATOM     19  C   UNL     1      -6.512   3.834  26.326  0.00  0.00    +0.007 C 
ENDBRANCH   9  13
BRANCH  12  16
ATOM     16  C   UNL     1      -2.716   4.641  23.664  0.00  0.00    +0.103 C 
BRANCH  16  21
ATOM      2  O   UNL     1      -3.153   4.816  25.999  0.00  0.00    -0.276 OA
ATOM      6  N   UNL     1      -1.363   3.505  25.355  0.00  0.00    -0.301 N 
ATOM     21  C   UNL     1      -2.443   4.334  25.114  0.00  0.00    +0.216 C 
ATOM     22  C   UNL     1      -0.487   2.901  24.357  0.00  0.00    +0.108 C 
ATOM     23  C   UNL     1      -0.963   3.121  26.701  0.00  0.00    +0.108 C 
ATOM     24  C   UNL     1       0.672   2.332  25.163  0.00  0.00    +0.020 C 
ATOM     25  C   UNL     1       0.021   1.980  26.495  0.00  0.00    +0.020 C 
ENDBRANCH  16  21
ENDBRANCH  12  16
BRANCH  10  17
ATOM     17  C   UNL     1      -3.496   0.337  25.723  0.00  0.00    +0.113 C 
BRANCH  17   7
ATOM      7  N   UNL     1      -4.079  -1.014  25.745  0.00  0.00    -0.189 NA
ATOM     34  H   UNL     1      -4.471  -1.323  26.643  0.00  0.00    +0.148 HD
BRANCH   7   1
ATOM      1  S   UNL     1      -3.491  -2.218  24.693  0.00  0.00    +0.058 S 
ATOM      3  O   UNL     1      -4.237  -2.175  23.451  0.00  0.00    -0.153 OA
ATOM      4  O   UNL     1      -3.362  -3.465  25.423  0.00  0.00    -0.153 OA
BRANCH   1  26
ATOM     26  C   UNL     1      -1.852  -1.641  24.366  0.00  0.00    +0.105 A 
ATOM     27  C   UNL     1      -1.612  -0.815  23.269  0.00  0.00    +0.030 A 
ATOM     28  C   UNL     1      -0.802  -2.013  25.204  0.00  0.00    +0.030 A 
ATOM     29  C   UNL     1      -0.319  -0.359  23.010  0.00  0.00    +0.025 A 
ATOM     30  C   UNL     1       0.492  -1.558  24.945  0.00  0.00    +0.025 A 
ATOM     31  C   UNL     1       0.732  -0.731  23.848  0.00  0.00    +0.033 A 
BRANCH  31   8
ATOM      5  O   UNL     1       2.132  -0.199  21.236  0.00  0.00    -0.276 OA
ATOM      8  N   UNL     1       2.026  -0.274  23.589  0.00  0.00    -0.286 N 
ATOM     32  C   UNL     1       2.630  -0.044  22.346  0.00  0.00    +0.214 C 
ATOM     33  C   UNL     1       4.047   0.449  22.495  0.00  0.00    +0.109 C 
ATOM     35  H   UNL     1       2.594  -0.087  24.414  0.00  0.00    +0.155 HD
ENDBRANCH  31   8
ENDBRANCH   1  26
ENDBRANCH   7   1
ENDBRANCH  17   7
ENDBRANCH  10  17
TORSDOF 8
ENDMDL
MODEL 3
REMARK VINA RESULT:       1.4      2.931      4.568
REMARK  Name = 45783870
REMARK  12 active torsions:
REMARK  status: ('A' for Active; 'I' for Inactive)
REMARK    1  A    between atoms: S_1  and  N_7
REMARK    2  A    between atoms: S_1  and  C_26
REMARK    3  A    between atoms: N_7  and  C_17
REMARK    4  A    between atoms: N_8  and  C_31
REMARK    5  A    between atoms: C_9  and  C_13
REMARK    6  A    between atoms: C_10  and  C_17
REMARK    7  A    between atoms: C_12  and  C_16
REMARK    8  A    between atoms: C_13  and  C_18
REMARK    9  A    between atoms: C_13  and  C_19
REMARK   10  A    between atoms: C_14  and  C_20
REMARK   11  A    between atoms: C_16  and  C_21
REMARK   12  A    between atoms: C_32  and  C_33
REMARK                            x       y       z     vdW  Elec       q    Type
REMARK                         _______ _______ _______ _____ _____    ______ ____
ROOT
ATOM      9  C   UNL     1      -1.772   3.679  24.939  0.00  0.00    +0.000 C 
ATOM     10  C   UNL     1      -3.169   3.689  24.268  0.00  0.00    +0.030 C 
ATOM     11  C   UNL     1      -0.676   3.447  23.889  0.00  0.00    +0.012 C 
ATOM     12  C   UNL     1      -0.863   2.116  23.135  0.00  0.00    +0.023 C 
ATOM     14  C   UNL     1      -2.294   1.930  22.671  0.00  0.00    -0.073 C 
ATOM     15  C   UNL     1      -3.309   2.651  23.179  0.00  0.00    -0.023 C 
ATOM     20  C   UNL     1      -2.525   0.926  21.576  0.00  0.00    +0.039 C 
ENDROOT
BRANCH   9  13
ATOM     13  C   UNL     1      -1.497   4.981  25.697  0.00  0.00    -0.013 C 
ATOM     18  C   UNL     1      -2.808   5.653  26.092  0.00  0.00    +0.007 C 
ATOM     19  C   UNL     1      -0.643   5.919  24.851  0.00  0.00    +0.007 C 
ENDBRANCH   9  13
BRANCH  12  16
ATOM     16  C   UNL     1      -0.402   0.929  23.986  0.00  0.00    +0.103 C 
BRANCH  16  21
ATOM      2  O   UNL     1      -0.202  -1.068  22.703  0.00  0.00    -0.276 OA
ATOM      6  N   UNL     1       1.676   0.265  22.880  0.00  0.00    -0.301 N 
ATOM     21  C   UNL     1       0.354  -0.054  23.129  0.00  0.00    +0.216 C 
ATOM     22  C   UNL     1       2.391   1.447  23.349  0.00  0.00    +0.108 C 
ATOM     23  C   UNL     1       2.543  -0.585  22.077  0.00  0.00    +0.108 C 
ATOM     24  C   UNL     1       3.851   1.159  23.031  0.00  0.00    +0.020 C 
ATOM     25  C   UNL     1       3.763   0.277  21.792  0.00  0.00    +0.020 C 
ENDBRANCH  16  21
ENDBRANCH  12  16
BRANCH  10  17
ATOM     17  C   UNL     1      -4.282   3.495  25.304  0.00  0.00    +0.113 C 
BRANCH  17   7
ATOM      7  N   UNL     1      -5.488   2.994  24.627  0.00  0.00    -0.189 NA
ATOM     34  H   UNL     1      -6.068   3.698  24.156  0.00  0.00    +0.148 HD
BRANCH   7   1
ATOM      1  S   UNL     1      -6.270   1.591  25.196  0.00  0.00    +0.058 S 
ATOM      3  O   UNL     1      -7.306   1.206  24.257  0.00  0.00    -0.153 OA
ATOM      4  O   UNL     1      -6.587   1.761  26.601  0.00  0.00    -0.153 OA
BRANCH   1  26
ATOM     26  C   UNL     1      -4.974   0.393  25.100  0.00  0.00    +0.105 A 
ATOM     27  C   UNL     1      -4.007   0.333  26.103  0.00  0.00    +0.030 A 
ATOM     28  C   UNL     1      -4.919  -0.490  24.022  0.00  0.00    +0.030 A 
ATOM     29  C   UNL     1      -2.983  -0.612  26.028  0.00  0.00    +0.025 A 
ATOM     30  C   UNL     1      -3.894  -1.435  23.947  0.00  0.00    +0.025 A 
ATOM     31  C   UNL     1      -2.927  -1.496  24.950  0.00  0.00    +0.033 A 
BRANCH  31   8
ATOM      5  O   UNL     1      -0.183  -1.508  26.189  0.00  0.00    -0.276 OA
ATOM      8  N   UNL     1      -1.903  -2.442  24.876  0.00  0.00    -0.286 N 
ATOM     32  C   UNL     1      -0.638  -2.396  25.475  0.00  0.00    +0.214 C 
ATOM     33  C   UNL     1       0.180  -3.620  25.149  0.00  0.00    +0.109 C 
ATOM     35  H   UNL     1      -2.113  -3.265  24.314  0.00  0.00    +0.155 HD
ENDBRANCH  31   8
ENDBRANCH   1  26
ENDBRANCH   7   1
ENDBRANCH  17   7
ENDBRANCH  10  17
TORSDOF 8
ENDMDL
MODEL 4
REMARK VINA RESULT:       1.5      2.821      5.549
REMARK  Name = 45783870
REMARK  12 active torsions:
REMARK  status: ('A' for Active; 'I' for Inactive)
REMARK    1  A    between atoms: S_1  and  N_7
REMARK    2  A    between atoms: S_1  and  C_26
REMARK    3  A    between atoms: N_7  and  C_17
REMARK    4  A    between atoms: N_8  and  C_31
REMARK    5  A    between atoms: C_9  and  C_13
REMARK    6  A    between atoms: C_10  and  C_17
REMARK    7  A    between atoms: C_12  and  C_16
REMARK    8  A    between atoms: C_13  and  C_18
REMARK    9  A    between atoms: C_13  and  C_19
REMARK   10  A    between atoms: C_14  and  C_20
REMARK   11  A    between atoms: C_16  and  C_21
REMARK   12  A    between atoms: C_32  and  C_33
REMARK                            x       y       z     vdW  Elec       q    Type
REMARK                         _______ _______ _______ _____ _____    ______ ____
ROOT
ATOM      9  C   UNL     1      -2.573   2.155  23.784  0.00  0.00    +0.000 C 
ATOM     10  C   UNL     1      -1.308   2.801  24.404  0.00  0.00    +0.030 C 
ATOM     11  C   UNL     1      -3.769   3.114  23.886  0.00  0.00    +0.012 C 
ATOM     12  C   UNL     1      -4.084   3.499  25.345  0.00  0.00    +0.023 C 
ATOM     14  C   UNL     1      -2.833   3.894  26.104  0.00  0.00    -0.073 C 
ATOM     15  C   UNL     1      -1.601   3.586  25.661  0.00  0.00    -0.023 C 
ATOM     20  C   UNL     1      -3.029   4.693  27.362  0.00  0.00    +0.039 C 
ENDROOT
BRANCH   9  13
ATOM     13  C   UNL     1      -2.349   1.759  22.321  0.00  0.00    -0.013 C 
ATOM     18  C   UNL     1      -3.060   2.737  21.391  0.00  0.00    +0.007 C 
ATOM     19  C   UNL     1      -2.832   0.333  22.076  0.00  0.00    +0.007 C 
ENDBRANCH   9  13
BRANCH  12  16
ATOM     16  C   UNL     1      -4.831   2.372  26.065  0.00  0.00    +0.103 C 
BRANCH  16  21
ATOM      2  O   UNL     1      -6.247   1.596  24.315  0.00  0.00    -0.276 OA
ATOM      6  N   UNL     1      -4.613   0.148  25.072  0.00  0.00    -0.301 N 
ATOM     21  C   UNL     1      -5.302   1.347  25.066  0.00  0.00    +0.216 C 
ATOM     22  C   UNL     1      -3.488  -0.208  25.929  0.00  0.00    +0.108 C 
ATOM     23  C   UNL     1      -4.951  -0.946  24.173  0.00  0.00    +0.108 C 
ATOM     24  C   UNL     1      -3.307  -1.704  25.717  0.00  0.00    +0.020 C 
ATOM     25  C   UNL     1      -3.775  -1.905  24.281  0.00  0.00    +0.020 C 
ENDBRANCH  16  21
ENDBRANCH  12  16
BRANCH  10  17
ATOM     17  C   UNL     1      -0.236   1.747  24.698  0.00  0.00    +0.113 C 
BRANCH  17   7
ATOM      7  N   UNL     1       0.517   1.468  23.465  0.00  0.00    -0.189 NA
ATOM     34  H   UNL     1       0.356   2.111  22.680  0.00  0.00    +0.148 HD
BRANCH   7   1
ATOM      1  S   UNL     1       0.980  -0.127  23.085  0.00  0.00    +0.058 S 
ATOM      3  O   UNL     1       0.662  -0.400  21.697  0.00  0.00    -0.153 OA
ATOM      4  O   UNL     1       0.512  -1.019  24.129  0.00  0.00    -0.153 OA
BRANCH   1  26
ATOM     26  C   UNL     1       2.739  -0.036  23.235  0.00  0.00    +0.105 A 
ATOM     27  C   UNL     1       3.413   1.119  22.838  0.00  0.00    +0.030 A 
ATOM     28  C   UNL     1       3.452  -1.119  23.749  0.00  0.00    +0.030 A 
ATOM     29  C   UNL     1       4.800   1.191  22.955  0.00  0.00    +0.025 A 
ATOM     30  C   UNL     1       4.841  -1.047  23.866  0.00  0.00    +0.025 A 
ATOM     31  C   UNL     1       5.514   0.108  23.470  0.00  0.00    +0.033 A 
BRANCH  31   8
ATOM      5  O   UNL     1       7.684  -1.327  21.954  0.00  0.00    -0.276 OA
ATOM      8  N   UNL     1       6.903   0.181  23.588  0.00  0.00    -0.286 N 
ATOM     32  C   UNL     1       7.872  -0.515  22.853  0.00  0.00    +0.214 C 
ATOM     33  C   UNL     1       9.270  -0.154  23.288  0.00  0.00    +0.109 C 
ATOM     35  H   UNL     1       7.245   0.823  24.301  0.00  0.00    +0.155 HD
ENDBRANCH  31   8
ENDBRANCH   1  26
ENDBRANCH   7   1
ENDBRANCH  17   7
ENDBRANCH  10  17
TORSDOF 8
ENDMDL
MODEL 5
REMARK VINA RESULT:       1.9      2.251      5.836
REMARK  Name = 45783870
REMARK  12 active torsions:
REMARK  status: ('A' for Active; 'I' for Inactive)
REMARK    1  A    between atoms: S_1  and  N_7
REMARK    2  A    between atoms: S_1  and  C_26
REMARK    3  A    between atoms: N_7  and  C_17
REMARK    4  A    between atoms: N_8  and  C_31
REMARK    5  A    between atoms: C_9  and  C_13
REMARK    6  A    between atoms: C_10  and  C_17
REMARK    7  A    between atoms: C_12  and  C_16
REMARK    8  A    between atoms: C_13  and  C_18
REMARK    9  A    between atoms: C_13  and  C_19
REMARK   10  A    between atoms: C_14  and  C_20
REMARK   11  A    between atoms: C_16  and  C_21
REMARK   12  A    between atoms: C_32  and  C_33
REMARK                            x       y       z     vdW  Elec       q    Type
REMARK                         _______ _______ _______ _____ _____    ______ ____
ROOT
ATOM      9  C   UNL     1       0.004   1.338  25.128  0.00  0.00    +0.000 C 
ATOM     10  C   UNL     1      -0.754   0.092  24.604  0.00  0.00    +0.030 C 
ATOM     11  C   UNL     1       0.539   2.172  23.955  0.00  0.00    +0.012 C 
ATOM     12  C   UNL     1       1.492   1.366  23.052  0.00  0.00    +0.023 C 
ATOM     14  C   UNL     1       0.923   0.004  22.709  0.00  0.00    -0.073 C 
ATOM     15  C   UNL     1      -0.090  -0.543  23.405  0.00  0.00    -0.023 C 
ATOM     20  C   UNL     1       1.515  -0.697  21.519  0.00  0.00    +0.039 C 
ENDROOT
BRANCH   9  13
ATOM     13  C   UNL     1      -0.883   2.209  26.022  0.00  0.00    -0.013 C 
ATOM     18  C   UNL     1      -1.456   3.377  25.227  0.00  0.00    +0.007 C 
ATOM     19  C   UNL     1      -0.095   2.711  27.228  0.00  0.00    +0.007 C 
ENDBRANCH   9  13
BRANCH  12  16
ATOM     16  C   UNL     1       2.880   1.237  23.689  0.00  0.00    +0.103 C 
BRANCH  16  21
ATOM      2  O   UNL     1       3.702   1.117  21.457  0.00  0.00    -0.276 OA
ATOM      6  N   UNL     1       4.995   0.153  23.112  0.00  0.00    -0.301 N 
ATOM     21  C   UNL     1       3.889   0.839  22.643  0.00  0.00    +0.216 C 
ATOM     22  C   UNL     1       5.278  -0.203  24.498  0.00  0.00    +0.108 C 
ATOM     23  C   UNL     1       6.056  -0.307  22.228  0.00  0.00    +0.108 C 
ATOM     24  C   UNL     1       6.450  -1.170  24.410  0.00  0.00    +0.020 C 
ATOM     25  C   UNL     1       7.189  -0.698  23.165  0.00  0.00    +0.020 C 
ENDBRANCH  16  21
ENDBRANCH  12  16
BRANCH  10  17
ATOM     17  C   UNL     1      -0.926  -0.956  25.708  0.00  0.00    +0.113 C 
BRANCH  17   7
ATOM      7  N   UNL     1      -1.277  -2.247  25.096  0.00  0.00    -0.189 NA
ATOM     34  H   UNL     1      -0.550  -2.687  24.519  0.00  0.00    +0.148 HD
BRANCH   7   1
ATOM      1  S   UNL     1      -2.899  -2.603  24.716  0.00  0.00    +0.058 S 
ATOM      3  O   UNL     1      -3.489  -3.365  25.799  0.00  0.00    -0.153 OA
ATOM      4  O   UNL     1      -2.970  -3.098  23.354  0.00  0.00    -0.153 OA
BRANCH   1  26
ATOM     26  C   UNL     1      -3.630  -0.993  24.718  0.00  0.00    +0.105 A 
ATOM     27  C   UNL     1      -4.286  -0.529  25.857  0.00  0.00    +0.030 A 
ATOM     28  C   UNL     1      -3.551  -0.190  23.581  0.00  0.00    +0.030 A 
ATOM     29  C   UNL     1      -4.863   0.741  25.860  0.00  0.00    +0.025 A 
ATOM     30  C   UNL     1      -4.129   1.080  23.583  0.00  0.00    +0.025 A 
ATOM     31  C   UNL     1      -4.784   1.545  24.723  0.00  0.00    +0.033 A 
BRANCH  31   8
ATOM      5  O   UNL     1      -4.451   3.839  26.644  0.00  0.00    -0.276 OA
ATOM      8  N   UNL     1      -5.361   2.816  24.726  0.00  0.00    -0.286 N 
ATOM     32  C   UNL     1      -5.170   3.851  25.651  0.00  0.00    +0.214 C 
ATOM     33  C   UNL     1      -5.980   5.073  25.299  0.00  0.00    +0.109 C 
ATOM     35  H   UNL     1      -5.999   3.006  23.955  0.00  0.00    +0.155 HD
ENDBRANCH  31   8
ENDBRANCH   1  26
ENDBRANCH   7   1
ENDBRANCH  17   7
ENDBRANCH  10  17
TORSDOF 8
ENDMDL
MODEL 6
REMARK VINA RESULT:       1.9      2.703      5.795
REMARK  Name = 45783870
REMARK  12 active torsions:
REMARK  status: ('A' for Active; 'I' for Inactive)
REMARK    1  A    between atoms: S_1  and  N_7
REMARK    2  A    between atoms: S_1  and  C_26
REMARK    3  A    between atoms: N_7  and  C_17
REMARK    4  A    between atoms: N_8  and  C_31
REMARK    5  A    between atoms: C_9  and  C_13
REMARK    6  A    between atoms: C_10  and  C_17
REMARK    7  A    between atoms: C_12  and  C_16
REMARK    8  A    between atoms: C_13  and  C_18
REMARK    9  A    between atoms: C_13  and  C_19
REMARK   10  A    between atoms: C_14  and  C_20
REMARK   11  A    between atoms: C_16  and  C_21
REMARK   12  A    between atoms: C_32  and  C_33
REMARK                            x       y       z     vdW  Elec       q    Type
REMARK                         _______ _______ _______ _____ _____    ______ ____
ROOT
ATOM      9  C   UNL     1      -1.776  -0.672  25.222  0.00  0.00    +0.000 C 
ATOM     10  C   UNL     1      -1.617  -2.118  24.688  0.00  0.00    +0.030 C 
ATOM     11  C   UNL     1      -3.152  -0.493  25.880  0.00  0.00    +0.012 C 
ATOM     12  C   UNL     1      -4.307  -0.780  24.902  0.00  0.00    +0.023 C 
ATOM     14  C   UNL     1      -4.088  -2.069  24.136  0.00  0.00    -0.073 C 
ATOM     15  C   UNL     1      -2.881  -2.660  24.063  0.00  0.00    -0.023 C 
ATOM     20  C   UNL     1      -5.296  -2.689  23.492  0.00  0.00    +0.039 C 
ENDROOT
BRANCH   9  13
ATOM     13  C   UNL     1      -0.672  -0.311  26.221  0.00  0.00    -0.013 C 
ATOM     18  C   UNL     1      -0.949  -0.955  27.575  0.00  0.00    +0.007 C 
ATOM     19  C   UNL     1      -0.552   1.203  26.357  0.00  0.00    +0.007 C 
ENDBRANCH   9  13
BRANCH  12  16
ATOM     16  C   UNL     1      -4.529   0.396  23.946  0.00  0.00    +0.103 C 
BRANCH  16  21
ATOM      2  O   UNL     1      -6.182   1.652  25.112  0.00  0.00    -0.276 OA
ATOM      6  N   UNL     1      -4.083   2.596  24.916  0.00  0.00    -0.301 N 
ATOM     21  C   UNL     1      -5.017   1.597  24.714  0.00  0.00    +0.216 C 
ATOM     22  C   UNL     1      -2.692   2.592  24.475  0.00  0.00    +0.108 C 
ATOM     23  C   UNL     1      -4.400   3.823  25.632  0.00  0.00    +0.108 C 
ATOM     24  C   UNL     1      -2.216   4.019  24.708  0.00  0.00    +0.020 C 
ATOM     25  C   UNL     1      -3.048   4.466  25.904  0.00  0.00    +0.020 C 
ENDBRANCH  16  21
ENDBRANCH  12  16
BRANCH  10  17
ATOM     17  C   UNL     1      -0.467  -2.212  23.679  0.00  0.00    +0.113 C 
BRANCH  17   7
ATOM      7  N   UNL     1       0.537  -1.185  23.996  0.00  0.00    -0.189 NA
ATOM     34  H   UNL     1       0.582  -0.882  24.977  0.00  0.00    +0.148 HD
BRANCH   7   1
ATOM      1  S   UNL     1       1.017  -0.061  22.809  0.00  0.00    +0.058 S 
ATOM      3  O   UNL     1       0.460   1.239  23.127  0.00  0.00    -0.153 OA
ATOM      4  O   UNL     1       0.812  -0.641  21.495  0.00  0.00    -0.153 OA
BRANCH   1  26
ATOM     26  C   UNL     1       2.764   0.015  23.072  0.00  0.00    +0.105 A 
ATOM     27  C   UNL     1       3.434  -1.079  23.618  0.00  0.00    +0.030 A 
ATOM     28  C   UNL     1       3.470   1.169  22.734  0.00  0.00    +0.030 A 
ATOM     29  C   UNL     1       4.812  -1.019  23.826  0.00  0.00    +0.025 A 
ATOM     30  C   UNL     1       4.849   1.229  22.942  0.00  0.00    +0.025 A 
ATOM     31  C   UNL     1       5.519   0.134  23.488  0.00  0.00    +0.033 A 
BRANCH  31   8
ATOM      5  O   UNL     1       7.778  -1.190  22.002  0.00  0.00    -0.276 OA
ATOM      8  N   UNL     1       6.898   0.194  23.695  0.00  0.00    -0.286 N 
ATOM     32  C   UNL     1       7.910  -0.448  22.970  0.00  0.00    +0.214 C 
ATOM     33  C   UNL     1       9.279  -0.125  23.514  0.00  0.00    +0.109 C 
ATOM     35  H   UNL     1       7.196   0.779  24.474  0.00  0.00    +0.155 HD
ENDBRANCH  31   8
ENDBRANCH   1  26
ENDBRANCH   7   1
ENDBRANCH  17   7
ENDBRANCH  10  17
TORSDOF 8
ENDMDL
MODEL 7
REMARK VINA RESULT:       2.2      2.701      5.472
REMARK  Name = 45783870
REMARK  12 active torsions:
REMARK  status: ('A' for Active; 'I' for Inactive)
REMARK    1  A    between atoms: S_1  and  N_7
REMARK    2  A    between atoms: S_1  and  C_26
REMARK    3  A    between atoms: N_7  and  C_17
REMARK    4  A    between atoms: N_8  and  C_31
REMARK    5  A    between atoms: C_9  and  C_13
REMARK    6  A    between atoms: C_10  and  C_17
REMARK    7  A    between atoms: C_12  and  C_16
REMARK    8  A    between atoms: C_13  and  C_18
REMARK    9  A    between atoms: C_13  and  C_19
REMARK   10  A    between atoms: C_14  and  C_20
REMARK   11  A    between atoms: C_16  and  C_21
REMARK   12  A    between atoms: C_32  and  C_33
REMARK                            x       y       z     vdW  Elec       q    Type
REMARK                         _______ _______ _______ _____ _____    ______ ____
ROOT
ATOM      9  C   UNL     1      -3.226   1.897  23.445  0.00  0.00    +0.000 C 
ATOM     10  C   UNL     1      -4.369   2.938  23.546  0.00  0.00    +0.030 C 
ATOM     11  C   UNL     1      -3.782   0.474  23.602  0.00  0.00    +0.012 C 
ATOM     12  C   UNL     1      -4.503   0.276  24.949  0.00  0.00    +0.023 C 
ATOM     14  C   UNL     1      -5.461   1.412  25.247  0.00  0.00    -0.073 C 
ATOM     15  C   UNL     1      -5.394   2.590  24.601  0.00  0.00    -0.023 C 
ATOM     20  C   UNL     1      -6.526   1.149  26.274  0.00  0.00    +0.039 C 
ENDROOT
BRANCH   9  13
ATOM     13  C   UNL     1      -2.467   2.014  22.120  0.00  0.00    -0.013 C 
ATOM     18  C   UNL     1      -3.261   2.855  21.125  0.00  0.00    +0.007 C 
ATOM     19  C   UNL     1      -2.178   0.630  21.548  0.00  0.00    +0.007 C 
ENDBRANCH   9  13
BRANCH  12  16
ATOM     16  C   UNL     1      -3.500   0.089  26.092  0.00  0.00    +0.103 C 
BRANCH  16  21
ATOM      2  O   UNL     1      -1.234  -0.642  26.018  0.00  0.00    -0.276 OA
ATOM      6  N   UNL     1      -2.786  -1.893  24.850  0.00  0.00    -0.301 N 
ATOM     21  C   UNL     1      -2.396  -0.842  25.660  0.00  0.00    +0.216 C 
ATOM     22  C   UNL     1      -4.140  -2.187  24.393  0.00  0.00    +0.108 C 
ATOM     23  C   UNL     1      -1.839  -2.875  24.342  0.00  0.00    +0.108 C 
ATOM     24  C   UNL     1      -3.957  -3.259  23.328  0.00  0.00    +0.020 C 
ATOM     25  C   UNL     1      -2.710  -3.997  23.797  0.00  0.00    +0.020 C 
ENDBRANCH  16  21
ENDBRANCH  12  16
BRANCH  10  17
ATOM     17  C   UNL     1      -3.817   4.342  23.815  0.00  0.00    +0.113 C 
BRANCH  17   7
ATOM      7  N   UNL     1      -4.018   4.675  25.235  0.00  0.00    -0.189 NA
ATOM     34  H   UNL     1      -4.900   5.145  25.469  0.00  0.00    +0.148 HD
BRANCH   7   1
ATOM      1  S   UNL     1      -2.678   4.982  26.241  0.00  0.00    +0.058 S 
ATOM      3  O   UNL     1      -2.942   4.455  27.565  0.00  0.00    -0.153 OA
ATOM      4  O   UNL     1      -2.265   6.363  26.075  0.00  0.00    -0.153 OA
BRANCH   1  26
ATOM     26  C   UNL     1      -1.430   3.977  25.493  0.00  0.00    +0.105 A 
ATOM     27  C   UNL     1      -1.065   2.767  26.081  0.00  0.00    +0.030 A 
ATOM     28  C   UNL     1      -0.810   4.397  24.315  0.00  0.00    +0.030 A 
ATOM     29  C   UNL     1      -0.080   1.975  25.492  0.00  0.00    +0.025 A 
ATOM     30  C   UNL     1       0.176   3.604  23.726  0.00  0.00    +0.025 A 
ATOM     31  C   UNL     1       0.540   2.393  24.314  0.00  0.00    +0.033 A 
BRANCH  31   8
ATOM      5  O   UNL     1       0.399  -0.411  23.226  0.00  0.00    -0.276 OA
ATOM      8  N   UNL     1       1.525   1.599  23.724  0.00  0.00    -0.286 N 
ATOM     32  C   UNL     1       1.404   0.292  23.233  0.00  0.00    +0.214 C 
ATOM     33  C   UNL     1       2.707  -0.217  22.670  0.00  0.00    +0.109 C 
ATOM     35  H   UNL     1       2.443   2.033  23.644  0.00  0.00    +0.155 HD
ENDBRANCH  31   8
ENDBRANCH   1  26
ENDBRANCH   7   1
ENDBRANCH  17   7
ENDBRANCH  10  17
TORSDOF 8
ENDMDL
MODEL 8
REMARK VINA RESULT:       2.4      3.049      5.227
REMARK  Name = 45783870
REMARK  12 active torsions:
REMARK  status: ('A' for Active; 'I' for Inactive)
REMARK    1  A    between atoms: S_1  and  N_7
REMARK    2  A    between atoms: S_1  and  C_26
REMARK    3  A    between atoms: N_7  and  C_17
REMARK    4  A    between atoms: N_8  and  C_31
REMARK    5  A    between atoms: C_9  and  C_13
REMARK    6  A    between atoms: C_10  and  C_17
REMARK    7  A    between atoms: C_12  and  C_16
REMARK    8  A    between atoms: C_13  and  C_18
REMARK    9  A    between atoms: C_13  and  C_19
REMARK   10  A    between atoms: C_14  and  C_20
REMARK   11  A    between atoms: C_16  and  C_21
REMARK   12  A    between atoms: C_32  and  C_33
REMARK                            x       y       z     vdW  Elec       q    Type
REMARK                         _______ _______ _______ _____ _____    ______ ____
ROOT
ATOM      9  C   UNL     1      -2.654   0.032  25.277  0.00  0.00    +0.000 C 
ATOM     10  C   UNL     1      -1.804   0.475  24.059  0.00  0.00    +0.030 C 
ATOM     11  C   UNL     1      -4.149   0.069  24.928  0.00  0.00    +0.012 C 
ATOM     12  C   UNL     1      -4.612   1.473  24.496  0.00  0.00    +0.023 C 
ATOM     14  C   UNL     1      -3.667   2.091  23.485  0.00  0.00    -0.073 C 
ATOM     15  C   UNL     1      -2.420   1.623  23.294  0.00  0.00    -0.023 C 
ATOM     20  C   UNL     1      -4.202   3.231  22.666  0.00  0.00    +0.039 C 
ENDROOT
BRANCH   9  13
ATOM     13  C   UNL     1      -2.268  -1.370  25.758  0.00  0.00    -0.013 C 
ATOM     18  C   UNL     1      -2.336  -2.366  24.606  0.00  0.00    +0.007 C 
ATOM     19  C   UNL     1      -3.175  -1.807  26.905  0.00  0.00    +0.007 C 
ENDBRANCH   9  13
BRANCH  12  16
ATOM     16  C   UNL     1      -4.797   2.392  25.708  0.00  0.00    +0.103 C 
BRANCH  16  21
ATOM      2  O   UNL     1      -5.528   4.546  25.004  0.00  0.00    -0.276 OA
ATOM      6  N   UNL     1      -3.256   4.245  25.291  0.00  0.00    -0.301 N 
ATOM     21  C   UNL     1      -4.574   3.827  25.304  0.00  0.00    +0.216 C 
ATOM     22  C   UNL     1      -2.084   3.447  25.637  0.00  0.00    +0.108 C 
ATOM     23  C   UNL     1      -2.874   5.598  24.916  0.00  0.00    +0.108 C 
ATOM     24  C   UNL     1      -0.902   4.294  25.187  0.00  0.00    +0.020 C 
ATOM     25  C   UNL     1      -1.420   5.718  25.349  0.00  0.00    +0.020 C 
ENDBRANCH  16  21
ENDBRANCH  12  16
BRANCH  10  17
ATOM     17  C   UNL     1      -0.381   0.851  24.485  0.00  0.00    +0.113 C 
BRANCH  17   7
ATOM      7  N   UNL     1       0.480   0.910  23.293  0.00  0.00    -0.189 NA
ATOM     34  H   UNL     1       0.300   1.685  22.643  0.00  0.00    +0.148 HD
BRANCH   7   1
ATOM      1  S   UNL     1       1.143  -0.518  22.643  0.00  0.00    +0.058 S 
ATOM      3  O   UNL     1       0.961  -0.519  21.205  0.00  0.00    -0.153 OA
ATOM      4  O   UNL     1       0.702  -1.650  23.435  0.00  0.00    -0.153 OA
BRANCH   1  26
ATOM     26  C   UNL     1       2.866  -0.297  22.975  0.00  0.00    +0.105 A 
ATOM     27  C   UNL     1       3.488   0.909  22.654  0.00  0.00    +0.030 A 
ATOM     28  C   UNL     1       3.602  -1.329  23.556  0.00  0.00    +0.030 A 
ATOM     29  C   UNL     1       4.846   1.084  22.915  0.00  0.00    +0.025 A 
ATOM     30  C   UNL     1       4.961  -1.155  23.817  0.00  0.00    +0.025 A 
ATOM     31  C   UNL     1       5.583   0.052  23.497  0.00  0.00    +0.033 A 
BRANCH  31   8
ATOM      5  O   UNL     1       8.003  -1.088  22.116  0.00  0.00    -0.276 OA
ATOM      8  N   UNL     1       6.943   0.227  23.759  0.00  0.00    -0.286 N 
ATOM     32  C   UNL     1       8.034  -0.332  23.080  0.00  0.00    +0.214 C 
ATOM     33  C   UNL     1       9.348   0.106  23.677  0.00  0.00    +0.109 C 
ATOM     35  H   UNL     1       7.159   0.840  24.543  0.00  0.00    +0.155 HD
ENDBRANCH  31   8
ENDBRANCH   1  26
ENDBRANCH   7   1
ENDBRANCH  17   7
ENDBRANCH  10  17
TORSDOF 8
ENDMDL
MODEL 9
REMARK VINA RESULT:       2.7      1.856      3.788
REMARK  Name = 45783870
REMARK  12 active torsions:
REMARK  status: ('A' for Active; 'I' for Inactive)
REMARK    1  A    between atoms: S_1  and  N_7
REMARK    2  A    between atoms: S_1  and  C_26
REMARK    3  A    between atoms: N_7  and  C_17
REMARK    4  A    between atoms: N_8  and  C_31
REMARK    5  A    between atoms: C_9  and  C_13
REMARK    6  A    between atoms: C_10  and  C_17
REMARK    7  A    between atoms: C_12  and  C_16
REMARK    8  A    between atoms: C_13  and  C_18
REMARK    9  A    between atoms: C_13  and  C_19
REMARK   10  A    between atoms: C_14  and  C_20
REMARK   11  A    between atoms: C_16  and  C_21
REMARK   12  A    between atoms: C_32  and  C_33
REMARK                            x       y       z     vdW  Elec       q    Type
REMARK                         _______ _______ _______ _____ _____    ______ ____
ROOT
ATOM      9  C   UNL     1      -2.533   2.386  23.894  0.00  0.00    +0.000 C 
ATOM     10  C   UNL     1      -2.380   1.095  24.736  0.00  0.00    +0.030 C 
ATOM     11  C   UNL     1      -1.163   3.044  23.667  0.00  0.00    +0.012 C 
ATOM     12  C   UNL     1      -0.465   3.406  24.992  0.00  0.00    +0.023 C 
ATOM     14  C   UNL     1      -0.509   2.260  25.982  0.00  0.00    -0.073 C 
ATOM     15  C   UNL     1      -1.363   1.229  25.844  0.00  0.00    -0.023 C 
ATOM     20  C   UNL     1       0.481   2.303  27.112  0.00  0.00    +0.039 C 
ENDROOT
BRANCH   9  13
ATOM     13  C   UNL     1      -3.205   2.109  22.545  0.00  0.00    -0.013 C 
ATOM     18  C   UNL     1      -2.155   1.826  21.476  0.00  0.00    +0.007 C 
ATOM     19  C   UNL     1      -4.087   3.285  22.138  0.00  0.00    +0.007 C 
ENDBRANCH   9  13
BRANCH  12  16
ATOM     16  C   UNL     1      -1.059   4.681  25.600  0.00  0.00    +0.103 C 
BRANCH  16  21
ATOM      2  O   UNL     1      -2.286   5.782  23.881  0.00  0.00    -0.276 OA
ATOM      6  N   UNL     1      -3.493   4.533  25.406  0.00  0.00    -0.301 N 
ATOM     21  C   UNL     1      -2.326   5.053  24.874  0.00  0.00    +0.216 C 
ATOM     22  C   UNL     1      -3.608   3.666  26.573  0.00  0.00    +0.108 C 
ATOM     23  C   UNL     1      -4.799   4.806  24.826  0.00  0.00    +0.108 C 
ATOM     24  C   UNL     1      -5.100   3.629  26.872  0.00  0.00    +0.020 C 
ATOM     25  C   UNL     1      -5.729   3.806  25.495  0.00  0.00    +0.020 C 
ENDBRANCH  16  21
ENDBRANCH  12  16
BRANCH  10  17
ATOM     17  C   UNL     1      -3.724   0.657  25.327  0.00  0.00    +0.113 C 
BRANCH  17   7
ATOM      7  N   UNL     1      -3.617  -0.736  25.789  0.00  0.00    -0.189 NA
ATOM     34  H   UNL     1      -3.328  -0.868  26.766  0.00  0.00    +0.148 HD
BRANCH   7   1
ATOM      1  S   UNL     1      -3.235  -1.978  24.687  0.00  0.00    +0.058 S 
ATOM      3  O   UNL     1      -4.027  -1.811  23.484  0.00  0.00    -0.153 OA
ATOM      4  O   UNL     1      -3.231  -3.249  25.386  0.00  0.00    -0.153 OA
BRANCH   1  26
ATOM     26  C   UNL     1      -1.554  -1.602  24.290  0.00  0.00    +0.105 A 
ATOM     27  C   UNL     1      -0.532  -1.978  25.161  0.00  0.00    +0.030 A 
ATOM     28  C   UNL     1      -1.251  -0.928  23.107  0.00  0.00    +0.030 A 
ATOM     29  C   UNL     1       0.794  -1.681  24.849  0.00  0.00    +0.025 A 
ATOM     30  C   UNL     1       0.076  -0.631  22.794  0.00  0.00    +0.025 A 
ATOM     31  C   UNL     1       1.099  -1.008  23.665  0.00  0.00    +0.033 A 
BRANCH  31   8
ATOM      5  O   UNL     1       2.456   1.640  23.209  0.00  0.00    -0.276 OA
ATOM      8  N   UNL     1       2.426  -0.712  23.352  0.00  0.00    -0.286 N 
ATOM     32  C   UNL     1       3.007   0.546  23.149  0.00  0.00    +0.214 C 
ATOM     33  C   UNL     1       4.477   0.439  22.827  0.00  0.00    +0.109 C 
ATOM     35  H   UNL     1       3.042  -1.519  23.263  0.00  0.00    +0.155 HD
ENDBRANCH  31   8
ENDBRANCH   1  26
ENDBRANCH   7   1
ENDBRANCH  17   7
ENDBRANCH  10  17
TORSDOF 8
ENDMDL
MODEL 10
REMARK VINA RESULT:       2.7      2.726      5.832
REMARK  Name = 45783870
REMARK  12 active torsions:
REMARK  status: ('A' for Active; 'I' for Inactive)
REMARK    1  A    between atoms: S_1  and  N_7
REMARK    2  A    between atoms: S_1  and  C_26
REMARK    3  A    between atoms: N_7  and  C_17
REMARK    4  A    between atoms: N_8  and  C_31
REMARK    5  A    between atoms: C_9  and  C_13
REMARK    6  A    between atoms: C_10  and  C_17
REMARK    7  A    between atoms: C_12  and  C_16
REMARK    8  A    between atoms: C_13  and  C_18
REMARK    9  A    between atoms: C_13  and  C_19
REMARK   10  A    between atoms: C_14  and  C_20
REMARK   11  A    between atoms: C_16  and  C_21
REMARK   12  A    between atoms: C_32  and  C_33
REMARK                            x       y       z     vdW  Elec       q    Type
REMARK                         _______ _______ _______ _____ _____    ______ ____
ROOT
ATOM      9  C   UNL     1      -2.267   1.568  25.175  0.00  0.00    +0.000 C 
ATOM     10  C   UNL     1      -1.352   0.622  24.356  0.00  0.00    +0.030 C 
ATOM     11  C   UNL     1      -3.141   0.760  26.146  0.00  0.00    +0.012 C 
ATOM     12  C   UNL     1      -4.029  -0.265  25.416  0.00  0.00    +0.023 C 
ATOM     14  C   UNL     1      -3.245  -1.060  24.392  0.00  0.00    -0.073 C 
ATOM     15  C   UNL     1      -2.044  -0.655  23.940  0.00  0.00    -0.023 C 
ATOM     20  C   UNL     1      -3.851  -2.356  23.931  0.00  0.00    +0.039 C 
ENDROOT
BRANCH   9  13
ATOM     13  C   UNL     1      -1.457   2.611  25.950  0.00  0.00    -0.013 C 
ATOM     18  C   UNL     1      -1.220   3.848  25.090  0.00  0.00    +0.007 C 
ATOM     19  C   UNL     1      -0.132   2.016  26.417  0.00  0.00    +0.007 C 
ENDBRANCH   9  13
BRANCH  12  16
ATOM     16  C   UNL     1      -5.243   0.413  24.772  0.00  0.00    +0.103 C 
BRANCH  16  21
ATOM      2  O   UNL     1      -6.235   1.668  26.536  0.00  0.00    -0.276 OA
ATOM      6  N   UNL     1      -5.065   2.847  24.930  0.00  0.00    -0.301 N 
ATOM     21  C   UNL     1      -5.564   1.691  25.503  0.00  0.00    +0.216 C 
ATOM     22  C   UNL     1      -4.263   2.943  23.715  0.00  0.00    +0.108 C 
ATOM     23  C   UNL     1      -5.294   4.163  25.510  0.00  0.00    +0.108 C 
ATOM     24  C   UNL     1      -4.232   4.431  23.398  0.00  0.00    +0.020 C 
ATOM     25  C   UNL     1      -4.325   5.077  24.775  0.00  0.00    +0.020 C 
ENDBRANCH  16  21
ENDBRANCH  12  16
BRANCH  10  17
ATOM     17  C   UNL     1      -0.794   1.328  23.116  0.00  0.00    +0.113 C 
BRANCH  17   7
ATOM      7  N   UNL     1       0.657   1.096  23.042  0.00  0.00    -0.189 NA
ATOM     34  H   UNL     1       1.230   1.898  22.753  0.00  0.00    +0.148 HD
BRANCH   7   1
ATOM      1  S   UNL     1       1.260  -0.459  22.696  0.00  0.00    +0.058 S 
ATOM      3  O   UNL     1       1.093  -0.734  21.282  0.00  0.00    -0.153 OA
ATOM      4  O   UNL     1       0.758  -1.394  23.685  0.00  0.00    -0.153 OA
BRANCH   1  26
ATOM     26  C   UNL     1       2.987  -0.253  23.011  0.00  0.00    +0.105 A 
ATOM     27  C   UNL     1       3.624   0.934  22.652  0.00  0.00    +0.030 A 
ATOM     28  C   UNL     1       3.713  -1.278  23.618  0.00  0.00    +0.030 A 
ATOM     29  C   UNL     1       4.987   1.097  22.900  0.00  0.00    +0.025 A 
ATOM     30  C   UNL     1       5.076  -1.115  23.866  0.00  0.00    +0.025 A 
ATOM     31  C   UNL     1       5.713   0.073  23.507  0.00  0.00    +0.033 A 
BRANCH  31   8
ATOM      5  O   UNL     1       8.109  -1.103  22.114  0.00  0.00    -0.276 OA
ATOM      8  N   UNL     1       7.076   0.236  23.756  0.00  0.00    -0.286 N 
ATOM     32  C   UNL     1       8.156  -0.339  23.073  0.00  0.00    +0.214 C 
ATOM     33  C   UNL     1       9.479   0.091  23.654  0.00  0.00    +0.109 C 
ATOM     35  H   UNL     1       7.305   0.854  24.533  0.00  0.00    +0.155 HD
ENDBRANCH  31   8
ENDBRANCH   1  26
ENDBRANCH   7   1
ENDBRANCH  17   7
ENDBRANCH  10  17
TORSDOF 8
ENDMDL
