MODEL 1
REMARK VINA RESULT:      -4.4      0.000      0.000
REMARK  Name = 7675200
REMARK  6 active torsions:
REMARK  status: ('A' for Active; 'I' for Inactive)
REMARK    1  A    between atoms: O_4  and  C_22
REMARK    2  A    between atoms: N_8  and  C_15
REMARK    3  A    between atoms: C_15  and  C_18
REMARK    4  A    between atoms: C_16  and  C_17
REMARK    5  A    between atoms: C_17  and  C_19
REMARK    6  A    between atoms: C_19  and  C_22
REMARK                            x       y       z     vdW  Elec       q    Type
REMARK                         _______ _______ _______ _____ _____    ______ ____
ROOT
ATOM      1  O   UNL     1      10.651  -6.330  32.873  0.00  0.00    -0.273 OA
ATOM      2  O   UNL     1      12.293 -10.256  31.105  0.00  0.00    -0.252 OA
ATOM      3  O   UNL     1      16.727  -5.016  30.414  0.00  0.00    -0.276 OA
ATOM      6  N   UNL     1      12.939  -8.016  30.887  0.00  0.00    -0.271 N 
ATOM      7  N   UNL     1      14.871  -6.063  31.335  0.00  0.00    -0.298 N 
ATOM      8  N   UNL     1      11.154  -8.487  32.127  0.00  0.00    -0.220 N 
ATOM      9  C   UNL     1      12.504  -6.719  31.358  0.00  0.00    +0.181 C 
ATOM     10  C   UNL     1      13.623  -6.029  32.123  0.00  0.00    +0.139 C 
ATOM     11  C   UNL     1      14.176  -8.112  30.135  0.00  0.00    +0.129 C 
ATOM     12  C   UNL     1      15.293  -7.405  30.903  0.00  0.00    +0.127 C 
ATOM     13  C   UNL     1      11.322  -7.120  32.222  0.00  0.00    +0.245 C 
ATOM     14  C   UNL     1      12.138  -9.065  31.339  0.00  0.00    +0.312 C 
ATOM     16  C   UNL     1      15.663  -4.957  31.035  0.00  0.00    +0.216 C 
ENDROOT
BRANCH   8  15
ATOM     15  C   UNL     1      10.114  -9.224  32.817  0.00  0.00    +0.153 C 
BRANCH  15  18
ATOM     18  C   UNL     1       8.892  -9.405  31.964  0.00  0.00    -0.030 A 
ATOM     20  C   UNL     1       8.683 -10.613  31.310  0.00  0.00    +0.005 A 
ATOM     21  C   UNL     1       7.981  -8.362  31.838  0.00  0.00    +0.005 A 
ATOM     23  C   UNL     1       7.548 -10.781  30.517  0.00  0.00    +0.000 A 
ATOM     24  C   UNL     1       6.846  -8.530  31.046  0.00  0.00    +0.000 A 
ATOM     25  C   UNL     1       6.629  -9.740  30.385  0.00  0.00    +0.000 A 
ENDBRANCH  15  18
ENDBRANCH   8  15
BRANCH  16  17
ATOM     17  C   UNL     1      15.159  -3.617  31.510  0.00  0.00    +0.107 C 
BRANCH  17  19
ATOM     19  C   UNL     1      16.297  -2.827  32.124  0.00  0.00    +0.129 C 
BRANCH  19  22
ATOM      5  O   UNL     1      16.941  -0.527  31.764  0.00  0.00    -0.251 OA
ATOM     22  C   UNL     1      16.629  -1.613  31.294  0.00  0.00    +0.305 C 
BRANCH  22   4
ATOM      4  O   UNL     1      16.524  -1.847  29.962  0.00  0.00    -0.481 OA
ATOM     26  H   UNL     1      17.126  -1.273  29.441  0.00  0.00    +0.295 HD
ENDBRANCH  22   4
ENDBRANCH  19  22
ENDBRANCH  17  19
ENDBRANCH  16  17
TORSDOF 6
ENDMDL
MODEL 2
REMARK VINA RESULT:      -4.3     25.346     27.679
REMARK  Name = 7675200
REMARK  6 active torsions:
REMARK  status: ('A' for Active; 'I' for Inactive)
REMARK    1  A    between atoms: O_4  and  C_22
REMARK    2  A    between atoms: N_8  and  C_15
REMARK    3  A    between atoms: C_15  and  C_18
REMARK    4  A    between atoms: C_16  and  C_17
REMARK    5  A    between atoms: C_17  and  C_19
REMARK    6  A    between atoms: C_19  and  C_22
REMARK                            x       y       z     vdW  Elec       q    Type
REMARK                         _______ _______ _______ _____ _____    ______ ____
ROOT
ATOM      1  O   UNL     1      -7.132 -10.721  14.270  0.00  0.00    -0.273 OA
ATOM      2  O   UNL     1     -10.602  -9.450  11.517  0.00  0.00    -0.252 OA
ATOM      3  O   UNL     1      -4.616  -9.951   8.124  0.00  0.00    -0.276 OA
ATOM      6  N   UNL     1      -8.274  -9.409  11.271  0.00  0.00    -0.271 N 
ATOM      7  N   UNL     1      -6.028 -10.350   9.924  0.00  0.00    -0.298 N 
ATOM      8  N   UNL     1      -9.122 -10.134  13.194  0.00  0.00    -0.220 N 
ATOM      9  C   UNL     1      -7.103  -9.748  12.049  0.00  0.00    +0.181 C 
ATOM     10  C   UNL     1      -6.259 -10.781  11.317  0.00  0.00    +0.139 C 
ATOM     11  C   UNL     1      -8.106  -9.010   9.885  0.00  0.00    +0.129 C 
ATOM     12  C   UNL     1      -7.248 -10.045   9.159  0.00  0.00    +0.127 C 
ATOM     13  C   UNL     1      -7.754 -10.270  13.317  0.00  0.00    +0.245 C 
ATOM     14  C   UNL     1      -9.472  -9.635  11.949  0.00  0.00    +0.312 C 
ATOM     16  C   UNL     1      -4.782 -10.270   9.304  0.00  0.00    +0.216 C 
ENDROOT
BRANCH   8  15
ATOM     15  C   UNL     1     -10.069 -10.526  14.220  0.00  0.00    +0.153 C 
BRANCH  15  18
ATOM     18  C   UNL     1     -10.084  -9.560  15.369  0.00  0.00    -0.030 A 
ATOM     20  C   UNL     1     -10.383  -8.222  15.139  0.00  0.00    +0.005 A 
ATOM     21  C   UNL     1      -9.801 -10.014  16.652  0.00  0.00    +0.005 A 
ATOM     23  C   UNL     1     -10.398  -7.326  16.206  0.00  0.00    +0.000 A 
ATOM     24  C   UNL     1      -9.815  -9.117  17.720  0.00  0.00    +0.000 A 
ATOM     25  C   UNL     1     -10.114  -7.772  17.497  0.00  0.00    +0.000 A 
ENDBRANCH  15  18
ENDBRANCH   8  15
BRANCH  16  17
ATOM     17  C   UNL     1      -3.582 -10.594  10.156  0.00  0.00    +0.107 C 
BRANCH  17  19
ATOM     19  C   UNL     1      -2.852  -9.318  10.527  0.00  0.00    +0.129 C 
BRANCH  19  22
ATOM      5  O   UNL     1      -1.747 -10.358  12.406  0.00  0.00    -0.251 OA
ATOM     22  C   UNL     1      -1.692  -9.600  11.447  0.00  0.00    +0.305 C 
BRANCH  22   4
ATOM      4  O   UNL     1      -0.577  -8.904  11.110  0.00  0.00    -0.481 OA
ATOM     26  H   UNL     1       0.196  -9.493  10.980  0.00  0.00    +0.295 HD
ENDBRANCH  22   4
ENDBRANCH  19  22
ENDBRANCH  17  19
ENDBRANCH  16  17
TORSDOF 6
ENDMDL
MODEL 3
REMARK VINA RESULT:      -3.1     23.640     25.234
REMARK  Name = 7675200
REMARK  6 active torsions:
REMARK  status: ('A' for Active; 'I' for Inactive)
REMARK    1  A    between atoms: O_4  and  C_22
REMARK    2  A    between atoms: N_8  and  C_15
REMARK    3  A    between atoms: C_15  and  C_18
REMARK    4  A    between atoms: C_16  and  C_17
REMARK    5  A    between atoms: C_17  and  C_19
REMARK    6  A    between atoms: C_19  and  C_22
REMARK                            x       y       z     vdW  Elec       q    Type
REMARK                         _______ _______ _______ _____ _____    ______ ____
ROOT
ATOM      1  O   UNL     1      -4.365  -9.730  16.508  0.00  0.00    -0.273 OA
ATOM      2  O   UNL     1      -8.360 -10.779  14.465  0.00  0.00    -0.252 OA
ATOM      3  O   UNL     1      -3.222 -10.001   9.926  0.00  0.00    -0.276 OA
ATOM      6  N   UNL     1      -6.328  -9.940  13.658  0.00  0.00    -0.271 N 
ATOM      7  N   UNL     1      -4.085 -10.328  12.058  0.00  0.00    -0.298 N 
ATOM      8  N   UNL     1      -6.531 -10.301  15.843  0.00  0.00    -0.220 N 
ATOM      9  C   UNL     1      -5.038  -9.553  14.185  0.00  0.00    +0.181 C 
ATOM     10  C   UNL     1      -3.931 -10.362  13.525  0.00  0.00    +0.139 C 
ATOM     11  C   UNL     1      -6.525  -9.955  12.220  0.00  0.00    +0.129 C 
ATOM     12  C   UNL     1      -5.402 -10.758  11.563  0.00  0.00    +0.127 C 
ATOM     13  C   UNL     1      -5.235  -9.864  15.657  0.00  0.00    +0.245 C 
ATOM     14  C   UNL     1      -7.216 -10.380  14.640  0.00  0.00    +0.312 C 
ATOM     16  C   UNL     1      -3.085  -9.978  11.152  0.00  0.00    +0.216 C 
ENDROOT
BRANCH   8  15
ATOM     15  C   UNL     1      -7.079 -10.684  17.129  0.00  0.00    +0.153 C 
BRANCH  15  18
ATOM     18  C   UNL     1      -8.356  -9.956  17.436  0.00  0.00    -0.030 A 
ATOM     20  C   UNL     1      -8.459  -8.600  17.152  0.00  0.00    +0.005 A 
ATOM     21  C   UNL     1      -9.422 -10.647  18.000  0.00  0.00    +0.005 A 
ATOM     23  C   UNL     1      -9.645  -7.924  17.437  0.00  0.00    +0.000 A 
ATOM     24  C   UNL     1     -10.608  -9.971  18.286  0.00  0.00    +0.000 A 
ATOM     25  C   UNL     1     -10.720  -8.609  18.004  0.00  0.00    +0.000 A 
ENDBRANCH  15  18
ENDBRANCH   8  15
BRANCH  16  17
ATOM     17  C   UNL     1      -1.765  -9.545  11.738  0.00  0.00    +0.107 C 
BRANCH  17  19
ATOM     19  C   UNL     1      -1.070  -8.585  10.793  0.00  0.00    +0.129 C 
BRANCH  19  22
ATOM      5  O   UNL     1       0.693  -7.572  12.097  0.00  0.00    -0.251 OA
ATOM     22  C   UNL     1       0.359  -8.347  11.210  0.00  0.00    +0.305 C 
BRANCH  22   4
ATOM      4  O   UNL     1       1.244  -9.069  10.479  0.00  0.00    -0.481 OA
ATOM     26  H   UNL     1       1.443  -8.641   9.619  0.00  0.00    +0.295 HD
ENDBRANCH  22   4
ENDBRANCH  19  22
ENDBRANCH  17  19
ENDBRANCH  16  17
TORSDOF 6
ENDMDL
MODEL 4
REMARK VINA RESULT:      -2.8      2.848      3.337
REMARK  Name = 7675200
REMARK  6 active torsions:
REMARK  status: ('A' for Active; 'I' for Inactive)
REMARK    1  A    between atoms: O_4  and  C_22
REMARK    2  A    between atoms: N_8  and  C_15
REMARK    3  A    between atoms: C_15  and  C_18
REMARK    4  A    between atoms: C_16  and  C_17
REMARK    5  A    between atoms: C_17  and  C_19
REMARK    6  A    between atoms: C_19  and  C_22
REMARK                            x       y       z     vdW  Elec       q    Type
REMARK                         _______ _______ _______ _____ _____    ______ ____
ROOT
ATOM      1  O   UNL     1      11.395  -6.167  31.014  0.00  0.00    -0.273 OA
ATOM      2  O   UNL     1      12.042 -10.502  32.439  0.00  0.00    -0.252 OA
ATOM      3  O   UNL     1      17.350  -8.150  28.713  0.00  0.00    -0.276 OA
ATOM      6  N   UNL     1      13.100  -9.179  30.822  0.00  0.00    -0.271 N 
ATOM      7  N   UNL     1      15.417  -7.893  29.974  0.00  0.00    -0.298 N 
ATOM      8  N   UNL     1      11.382  -8.314  31.938  0.00  0.00    -0.220 N 
ATOM      9  C   UNL     1      12.980  -7.847  30.274  0.00  0.00    +0.181 C 
ATOM     10  C   UNL     1      14.282  -7.080  30.452  0.00  0.00    +0.139 C 
ATOM     11  C   UNL     1      14.216 -10.011  30.410  0.00  0.00    +0.129 C 
ATOM     12  C   UNL     1      15.519  -9.231  30.579  0.00  0.00    +0.127 C 
ATOM     13  C   UNL     1      11.829  -7.308  31.104  0.00  0.00    +0.245 C 
ATOM     14  C   UNL     1      12.152  -9.460  31.806  0.00  0.00    +0.312 C 
ATOM     16  C   UNL     1      16.383  -7.469  29.063  0.00  0.00    +0.216 C 
ENDROOT
BRANCH   8  15
ATOM     15  C   UNL     1      10.285  -8.162  32.873  0.00  0.00    +0.153 C 
BRANCH  15  18
ATOM     18  C   UNL     1       8.965  -8.526  32.257  0.00  0.00    -0.030 A 
ATOM     20  C   UNL     1       7.879  -7.672  32.407  0.00  0.00    +0.005 A 
ATOM     21  C   UNL     1       8.844  -9.712  31.542  0.00  0.00    +0.005 A 
ATOM     23  C   UNL     1       6.653  -8.010  31.835  0.00  0.00    +0.000 A 
ATOM     24  C   UNL     1       7.618 -10.049  30.969  0.00  0.00    +0.000 A 
ATOM     25  C   UNL     1       6.522  -9.198  31.116  0.00  0.00    +0.000 A 
ENDBRANCH  15  18
ENDBRANCH   8  15
BRANCH  16  17
ATOM     17  C   UNL     1      16.205  -6.088  28.486  0.00  0.00    +0.107 C 
BRANCH  17  19
ATOM     19  C   UNL     1      17.404  -5.728  27.631  0.00  0.00    +0.129 C 
BRANCH  19  22
ATOM      5  O   UNL     1      16.807  -4.914  25.436  0.00  0.00    -0.251 OA
ATOM     22  C   UNL     1      17.087  -5.858  26.163  0.00  0.00    +0.305 C 
BRANCH  22   4
ATOM      4  O   UNL     1      17.123  -7.144  25.733  0.00  0.00    -0.481 OA
ATOM     26  H   UNL     1      17.395  -7.208  24.793  0.00  0.00    +0.295 HD
ENDBRANCH  22   4
ENDBRANCH  19  22
ENDBRANCH  17  19
ENDBRANCH  16  17
TORSDOF 6
ENDMDL
MODEL 5
REMARK VINA RESULT:      -2.7     15.199     17.878
REMARK  Name = 7675200
REMARK  6 active torsions:
REMARK  status: ('A' for Active; 'I' for Inactive)
REMARK    1  A    between atoms: O_4  and  C_22
REMARK    2  A    between atoms: N_8  and  C_15
REMARK    3  A    between atoms: C_15  and  C_18
REMARK    4  A    between atoms: C_16  and  C_17
REMARK    5  A    between atoms: C_17  and  C_19
REMARK    6  A    between atoms: C_19  and  C_22
REMARK                            x       y       z     vdW  Elec       q    Type
REMARK                         _______ _______ _______ _____ _____    ______ ____
ROOT
ATOM      1  O   UNL     1       0.685   2.096  23.119  0.00  0.00    -0.273 OA
ATOM      2  O   UNL     1      -0.542  -2.303  23.736  0.00  0.00    -0.252 OA
ATOM      3  O   UNL     1      -5.321   2.099  26.055  0.00  0.00    -0.276 OA
ATOM      6  N   UNL     1      -1.345  -0.285  24.611  0.00  0.00    -0.271 N 
ATOM      7  N   UNL     1      -3.445   1.530  24.810  0.00  0.00    -0.298 N 
ATOM      8  N   UNL     1       0.395  -0.221  23.229  0.00  0.00    -0.220 N 
ATOM      9  C   UNL     1      -1.040   1.126  24.520  0.00  0.00    +0.181 C 
ATOM     10  C   UNL     1      -2.252   1.900  24.024  0.00  0.00    +0.139 C 
ATOM     11  C   UNL     1      -2.526  -0.703  25.345  0.00  0.00    +0.129 C 
ATOM     12  C   UNL     1      -3.737   0.088  24.851  0.00  0.00    +0.127 C 
ATOM     13  C   UNL     1       0.117   1.096  23.538  0.00  0.00    +0.245 C 
ATOM     14  C   UNL     1      -0.494  -1.085  23.850  0.00  0.00    +0.312 C 
ATOM     16  C   UNL     1      -4.303   2.429  25.442  0.00  0.00    +0.216 C 
ENDROOT
BRANCH   8  15
ATOM     15  C   UNL     1       1.447  -0.633  22.322  0.00  0.00    +0.153 C 
BRANCH  15  18
ATOM     18  C   UNL     1       2.813  -0.361  22.883  0.00  0.00    -0.030 A 
ATOM     20  C   UNL     1       3.466  -1.350  23.611  0.00  0.00    +0.005 A 
ATOM     21  C   UNL     1       3.411   0.875  22.668  0.00  0.00    +0.005 A 
ATOM     23  C   UNL     1       4.735  -1.097  24.132  0.00  0.00    +0.000 A 
ATOM     24  C   UNL     1       4.680   1.127  23.189  0.00  0.00    +0.000 A 
ATOM     25  C   UNL     1       5.342   0.141  23.921  0.00  0.00    +0.000 A 
ENDBRANCH  15  18
ENDBRANCH   8  15
BRANCH  16  17
ATOM     17  C   UNL     1      -3.933   3.888  25.357  0.00  0.00    +0.107 C 
BRANCH  17  19
ATOM     19  C   UNL     1      -2.712   4.161  26.213  0.00  0.00    +0.129 C 
BRANCH  19  22
ATOM      5  O   UNL     1      -1.789   6.009  24.960  0.00  0.00    -0.251 OA
ATOM     22  C   UNL     1      -1.648   4.888  25.430  0.00  0.00    +0.305 C 
BRANCH  22   4
ATOM      4  O   UNL     1      -0.517   4.154  25.281  0.00  0.00    -0.481 OA
ATOM     26  H   UNL     1       0.203   4.673  24.864  0.00  0.00    +0.295 HD
ENDBRANCH  22   4
ENDBRANCH  19  22
ENDBRANCH  17  19
ENDBRANCH  16  17
TORSDOF 6
ENDMDL
MODEL 6
REMARK VINA RESULT:      -2.7      3.843      4.821
REMARK  Name = 7675200
REMARK  6 active torsions:
REMARK  status: ('A' for Active; 'I' for Inactive)
REMARK    1  A    between atoms: O_4  and  C_22
REMARK    2  A    between atoms: N_8  and  C_15
REMARK    3  A    between atoms: C_15  and  C_18
REMARK    4  A    between atoms: C_16  and  C_17
REMARK    5  A    between atoms: C_17  and  C_19
REMARK    6  A    between atoms: C_19  and  C_22
REMARK                            x       y       z     vdW  Elec       q    Type
REMARK                         _______ _______ _______ _____ _____    ______ ____
ROOT
ATOM      1  O   UNL     1      13.694  -6.275  30.238  0.00  0.00    -0.273 OA
ATOM      2  O   UNL     1      14.716 -10.768  30.277  0.00  0.00    -0.252 OA
ATOM      3  O   UNL     1      17.399  -7.519  24.814  0.00  0.00    -0.276 OA
ATOM      6  N   UNL     1      14.844  -9.117  28.621  0.00  0.00    -0.271 N 
ATOM      7  N   UNL     1      16.443  -7.592  26.929  0.00  0.00    -0.298 N 
ATOM      8  N   UNL     1      14.033  -8.556  30.614  0.00  0.00    -0.220 N 
ATOM      9  C   UNL     1      14.539  -7.711  28.476  0.00  0.00    +0.181 C 
ATOM     10  C   UNL     1      15.785  -6.936  28.076  0.00  0.00    +0.139 C 
ATOM     11  C   UNL     1      15.520  -9.805  27.536  0.00  0.00    +0.129 C 
ATOM     12  C   UNL     1      16.763  -9.015  27.130  0.00  0.00    +0.127 C 
ATOM     13  C   UNL     1      14.036  -7.392  29.873  0.00  0.00    +0.245 C 
ATOM     14  C   UNL     1      14.542  -9.621  29.886  0.00  0.00    +0.312 C 
ATOM     16  C   UNL     1      16.808  -6.961  25.742  0.00  0.00    +0.216 C 
ENDROOT
BRANCH   8  15
ATOM     15  C   UNL     1      13.607  -8.633  31.997  0.00  0.00    +0.153 C 
BRANCH  15  18
ATOM     18  C   UNL     1      12.117  -8.768  32.121  0.00  0.00    -0.030 A 
ATOM     20  C   UNL     1      11.357  -7.670  32.507  0.00  0.00    +0.005 A 
ATOM     21  C   UNL     1      11.512  -9.989  31.846  0.00  0.00    +0.005 A 
ATOM     23  C   UNL     1       9.973  -7.795  32.621  0.00  0.00    +0.000 A 
ATOM     24  C   UNL     1      10.128 -10.114  31.960  0.00  0.00    +0.000 A 
ATOM     25  C   UNL     1       9.358  -9.017  32.348  0.00  0.00    +0.000 A 
ENDBRANCH  15  18
ENDBRANCH   8  15
BRANCH  16  17
ATOM     17  C   UNL     1      16.441  -5.504  25.612  0.00  0.00    +0.107 C 
BRANCH  17  19
ATOM     19  C   UNL     1      17.277  -4.857  24.526  0.00  0.00    +0.129 C 
BRANCH  19  22
ATOM      5  O   UNL     1      17.085  -2.504  25.042  0.00  0.00    -0.251 OA
ATOM     22  C   UNL     1      16.845  -3.433  24.281  0.00  0.00    +0.305 C 
BRANCH  22   4
ATOM      4  O   UNL     1      16.140  -3.291  23.132  0.00  0.00    -0.481 OA
ATOM     26  H   UNL     1      15.630  -2.453  23.116  0.00  0.00    +0.295 HD
ENDBRANCH  22   4
ENDBRANCH  19  22
ENDBRANCH  17  19
ENDBRANCH  16  17
TORSDOF 6
ENDMDL
MODEL 7
REMARK VINA RESULT:      -1.5      3.754      5.599
REMARK  Name = 7675200
REMARK  6 active torsions:
REMARK  status: ('A' for Active; 'I' for Inactive)
REMARK    1  A    between atoms: O_4  and  C_22
REMARK    2  A    between atoms: N_8  and  C_15
REMARK    3  A    between atoms: C_15  and  C_18
REMARK    4  A    between atoms: C_16  and  C_17
REMARK    5  A    between atoms: C_17  and  C_19
REMARK    6  A    between atoms: C_19  and  C_22
REMARK                            x       y       z     vdW  Elec       q    Type
REMARK                         _______ _______ _______ _____ _____    ______ ____
ROOT
ATOM      1  O   UNL     1      14.113  -6.461  30.149  0.00  0.00    -0.273 OA
ATOM      2  O   UNL     1      15.587 -10.335  32.163  0.00  0.00    -0.252 OA
ATOM      3  O   UNL     1      17.339 -10.017  25.498  0.00  0.00    -0.276 OA
ATOM      6  N   UNL     1      15.372  -9.683  29.924  0.00  0.00    -0.271 N 
ATOM      7  N   UNL     1      16.621  -9.100  27.507  0.00  0.00    -0.298 N 
ATOM      8  N   UNL     1      14.721  -8.264  31.507  0.00  0.00    -0.220 N 
ATOM      9  C   UNL     1      14.912  -8.534  29.177  0.00  0.00    +0.181 C 
ATOM     10  C   UNL     1      16.023  -7.999  28.287  0.00  0.00    +0.139 C 
ATOM     11  C   UNL     1      15.998 -10.781  29.211  0.00  0.00    +0.129 C 
ATOM     12  C   UNL     1      17.104 -10.235  28.309  0.00  0.00    +0.127 C 
ATOM     13  C   UNL     1      14.527  -7.601  30.311  0.00  0.00    +0.245 C 
ATOM     14  C   UNL     1      15.257  -9.527  31.305  0.00  0.00    +0.312 C 
ATOM     16  C   UNL     1      16.794  -9.104  26.124  0.00  0.00    +0.216 C 
ENDROOT
BRANCH   8  15
ATOM     15  C   UNL     1      14.451  -7.682  32.807  0.00  0.00    +0.153 C 
BRANCH  15  18
ATOM     18  C   UNL     1      13.289  -6.732  32.768  0.00  0.00    -0.030 A 
ATOM     20  C   UNL     1      13.521  -5.366  32.654  0.00  0.00    +0.005 A 
ATOM     21  C   UNL     1      11.993  -7.228  32.846  0.00  0.00    +0.005 A 
ATOM     23  C   UNL     1      12.442  -4.484  32.617  0.00  0.00    +0.000 A 
ATOM     24  C   UNL     1      10.913  -6.346  32.810  0.00  0.00    +0.000 A 
ATOM     25  C   UNL     1      11.138  -4.973  32.695  0.00  0.00    +0.000 A 
ENDBRANCH  15  18
ENDBRANCH   8  15
BRANCH  16  17
ATOM     17  C   UNL     1      16.269  -7.907  25.374  0.00  0.00    +0.107 C 
BRANCH  17  19
ATOM     19  C   UNL     1      17.405  -6.953  25.064  0.00  0.00    +0.129 C 
BRANCH  19  22
ATOM      5  O   UNL     1      17.076  -5.273  26.769  0.00  0.00    -0.251 OA
ATOM     22  C   UNL     1      17.112  -5.567  25.581  0.00  0.00    +0.305 C 
BRANCH  22   4
ATOM      4  O   UNL     1      16.869  -4.679  24.585  0.00  0.00    -0.481 OA
ATOM     26  H   UNL     1      16.191  -4.019  24.842  0.00  0.00    +0.295 HD
ENDBRANCH  22   4
ENDBRANCH  19  22
ENDBRANCH  17  19
ENDBRANCH  16  17
TORSDOF 6
ENDMDL
MODEL 8
REMARK VINA RESULT:      -0.6     15.251     17.525
REMARK  Name = 7675200
REMARK  6 active torsions:
REMARK  status: ('A' for Active; 'I' for Inactive)
REMARK    1  A    between atoms: O_4  and  C_22
REMARK    2  A    between atoms: N_8  and  C_15
REMARK    3  A    between atoms: C_15  and  C_18
REMARK    4  A    between atoms: C_16  and  C_17
REMARK    5  A    between atoms: C_17  and  C_19
REMARK    6  A    between atoms: C_19  and  C_22
REMARK                            x       y       z     vdW  Elec       q    Type
REMARK                         _______ _______ _______ _____ _____    ______ ____
ROOT
ATOM      1  O   UNL     1      -2.456   1.959  22.372  0.00  0.00    -0.273 OA
ATOM      2  O   UNL     1      -3.637  -1.195  25.518  0.00  0.00    -0.252 OA
ATOM      3  O   UNL     1       3.014  -1.632  23.739  0.00  0.00    -0.276 OA
ATOM      6  N   UNL     1      -1.780  -0.964  24.109  0.00  0.00    -0.271 N 
ATOM      7  N   UNL     1       0.961  -0.555  23.869  0.00  0.00    -0.298 N 
ATOM      8  N   UNL     1      -3.408   0.544  23.970  0.00  0.00    -0.220 N 
ATOM      9  C   UNL     1      -1.312  -0.057  23.085  0.00  0.00    +0.181 C 
ATOM     10  C   UNL     1       0.039   0.527  23.469  0.00  0.00    +0.139 C 
ATOM     11  C   UNL     1      -0.901  -2.026  24.564  0.00  0.00    +0.129 C 
ATOM     12  C   UNL     1       0.458  -1.435  24.935  0.00  0.00    +0.127 C 
ATOM     13  C   UNL     1      -2.441   0.957  23.076  0.00  0.00    +0.245 C 
ATOM     14  C   UNL     1      -3.024  -0.611  24.633  0.00  0.00    +0.312 C 
ATOM     16  C   UNL     1       2.243  -0.749  23.356  0.00  0.00    +0.216 C 
ENDROOT
BRANCH   8  15
ATOM     15  C   UNL     1      -4.639   1.268  24.222  0.00  0.00    +0.153 C 
BRANCH  15  18
ATOM     18  C   UNL     1      -4.399   2.540  24.982  0.00  0.00    -0.030 A 
ATOM     20  C   UNL     1      -5.474   3.356  25.312  0.00  0.00    +0.005 A 
ATOM     21  C   UNL     1      -3.104   2.888  25.349  0.00  0.00    +0.005 A 
ATOM     23  C   UNL     1      -5.251   4.538  26.019  0.00  0.00    +0.000 A 
ATOM     24  C   UNL     1      -2.881   4.069  26.055  0.00  0.00    +0.000 A 
ATOM     25  C   UNL     1      -3.955   4.895  26.390  0.00  0.00    +0.000 A 
ENDBRANCH  15  18
ENDBRANCH   8  15
BRANCH  16  17
ATOM     17  C   UNL     1       2.683   0.192  22.264  0.00  0.00    +0.107 C 
BRANCH  17  19
ATOM     19  C   UNL     1       3.693   1.181  22.811  0.00  0.00    +0.129 C 
BRANCH  19  22
ATOM      5  O   UNL     1       5.728  -0.098  22.568  0.00  0.00    -0.251 OA
ATOM     22  C   UNL     1       4.934   0.479  23.300  0.00  0.00    +0.305 C 
BRANCH  22   4
ATOM      4  O   UNL     1       5.069   0.535  24.649  0.00  0.00    -0.481 OA
ATOM     26  H   UNL     1       5.960   0.245  24.939  0.00  0.00    +0.295 HD
ENDBRANCH  22   4
ENDBRANCH  19  22
ENDBRANCH  17  19
ENDBRANCH  16  17
TORSDOF 6
ENDMDL
MODEL 9
REMARK VINA RESULT:      -0.5     14.847     17.033
REMARK  Name = 7675200
REMARK  6 active torsions:
REMARK  status: ('A' for Active; 'I' for Inactive)
REMARK    1  A    between atoms: O_4  and  C_22
REMARK    2  A    between atoms: N_8  and  C_15
REMARK    3  A    between atoms: C_15  and  C_18
REMARK    4  A    between atoms: C_16  and  C_17
REMARK    5  A    between atoms: C_17  and  C_19
REMARK    6  A    between atoms: C_19  and  C_22
REMARK                            x       y       z     vdW  Elec       q    Type
REMARK                         _______ _______ _______ _____ _____    ______ ____
ROOT
ATOM      1  O   UNL     1      -1.687  -2.180  24.253  0.00  0.00    -0.273 OA
ATOM      2  O   UNL     1      -2.628   2.103  25.670  0.00  0.00    -0.252 OA
ATOM      3  O   UNL     1       3.701   1.566  22.977  0.00  0.00    -0.276 OA
ATOM      6  N   UNL     1      -0.637   1.017  25.088  0.00  0.00    -0.271 N 
ATOM      7  N   UNL     1       1.530   0.833  23.351  0.00  0.00    -0.298 N 
ATOM      8  N   UNL     1      -2.529  -0.148  25.045  0.00  0.00    -0.220 N 
ATOM      9  C   UNL     1      -0.212  -0.298  24.661  0.00  0.00    +0.181 C 
ATOM     10  C   UNL     1       0.494  -0.218  23.316  0.00  0.00    +0.139 C 
ATOM     11  C   UNL     1       0.334   2.096  25.110  0.00  0.00    +0.129 C 
ATOM     12  C   UNL     1       1.049   2.163  23.761  0.00  0.00    +0.127 C 
ATOM     13  C   UNL     1      -1.548  -1.018  24.614  0.00  0.00    +0.245 C 
ATOM     14  C   UNL     1      -2.009   1.107  25.319  0.00  0.00    +0.312 C 
ATOM     16  C   UNL     1       2.863   0.661  22.984  0.00  0.00    +0.216 C 
ENDROOT
BRANCH   8  15
ATOM     15  C   UNL     1      -3.934  -0.496  25.138  0.00  0.00    +0.153 C 
BRANCH  15  18
ATOM     18  C   UNL     1      -4.807   0.718  25.275  0.00  0.00    -0.030 A 
ATOM     20  C   UNL     1      -5.599   0.870  26.406  0.00  0.00    +0.005 A 
ATOM     21  C   UNL     1      -4.811   1.678  24.270  0.00  0.00    +0.005 A 
ATOM     23  C   UNL     1      -6.410   1.998  26.534  0.00  0.00    +0.000 A 
ATOM     24  C   UNL     1      -5.621   2.806  24.397  0.00  0.00    +0.000 A 
ATOM     25  C   UNL     1      -6.421   2.966  25.530  0.00  0.00    +0.000 A 
ENDBRANCH  15  18
ENDBRANCH   8  15
BRANCH  16  17
ATOM     17  C   UNL     1       3.277  -0.731  22.581  0.00  0.00    +0.107 C 
BRANCH  17  19
ATOM     19  C   UNL     1       4.229  -1.306  23.611  0.00  0.00    +0.129 C 
BRANCH  19  22
ATOM      5  O   UNL     1       6.370  -0.330  23.065  0.00  0.00    -0.251 OA
ATOM     22  C   UNL     1       5.414  -0.399  23.826  0.00  0.00    +0.305 C 
BRANCH  22   4
ATOM      4  O   UNL     1       5.318   0.322  24.971  0.00  0.00    -0.481 OA
ATOM     26  H   UNL     1       6.201   0.553  25.332  0.00  0.00    +0.295 HD
ENDBRANCH  22   4
ENDBRANCH  19  22
ENDBRANCH  17  19
ENDBRANCH  16  17
TORSDOF 6
ENDMDL
