MODEL 1
REMARK VINA RESULT:      -4.9      0.000      0.000
REMARK  Name = 75536420
REMARK  9 active torsions:
REMARK  status: ('A' for Active; 'I' for Inactive)
REMARK    1  A    between atoms: O_2  and  C_11
REMARK    2  A    between atoms: N_6  and  C_15
REMARK    3  A    between atoms: N_7  and  C_18
REMARK    4  A    between atoms: C_9  and  C_14
REMARK    5  A    between atoms: C_10  and  C_15
REMARK    6  A    between atoms: C_14  and  C_16
REMARK    7  A    between atoms: C_18  and  C_19
REMARK    8  A    between atoms: C_24  and  C_25
REMARK    9  A    between atoms: C_25  and  C_26
REMARK                            x       y       z     vdW  Elec       q    Type
REMARK                         _______ _______ _______ _____ _____    ______ ____
ROOT
ATOM      1  O   UNL     1      -2.522  -0.007  24.300  0.00  0.00    -0.369 OA
ATOM      9  C   UNL     1      -2.338   0.045  25.717  0.00  0.00    +0.125 C 
ATOM     10  C   UNL     1      -3.568  -0.880  23.854  0.00  0.00    +0.164 C 
ATOM     11  C   UNL     1      -3.370  -2.306  24.382  0.00  0.00    +0.145 C 
ATOM     12  C   UNL     1      -2.020  -1.342  26.272  0.00  0.00    +0.034 C 
ATOM     13  C   UNL     1      -3.109  -2.339  25.885  0.00  0.00    +0.036 C 
ENDROOT
BRANCH  11   2
ATOM      2  O   UNL     1      -2.236  -2.886  23.730  0.00  0.00    -0.389 OA
ATOM     32  H   UNL     1      -2.264  -2.616  22.796  0.00  0.00    +0.210 HD
ENDBRANCH  11   2
BRANCH   9  14
ATOM     14  C   UNL     1      -1.197   1.016  25.995  0.00  0.00    +0.090 C 
BRANCH  14  16
ATOM      3  O   UNL     1       1.427   1.699  23.621  0.00  0.00    -0.358 OA
ATOM      8  N   UNL     1       0.589   2.065  24.666  0.00  0.00    -0.083 NA
ATOM     16  C   UNL     1      -0.159   0.984  24.905  0.00  0.00    +0.086 A 
ATOM     17  C   UNL     1       0.160  -0.085  24.050  0.00  0.00    +0.072 A 
ATOM     19  C   UNL     1       1.163   0.416  23.262  0.00  0.00    +0.151 A 
BRANCH  19  18
ATOM     18  C   UNL     1       1.964  -0.136  22.164  0.00  0.00    +0.161 C 
BRANCH  18   7
ATOM      4  O   UNL     1       5.530  -0.322  24.369  0.00  0.00    -0.377 OA
ATOM      7  N   UNL     1       3.359  -0.368  22.527  0.00  0.00    -0.291 NA
ATOM     20  C   UNL     1       3.458  -1.342  23.624  0.00  0.00    +0.113 C 
ATOM     21  C   UNL     1       4.017   0.888  22.910  0.00  0.00    +0.113 C 
ATOM     22  C   UNL     1       4.923  -1.560  23.994  0.00  0.00    +0.175 C 
ATOM     23  C   UNL     1       5.467   0.618  23.295  0.00  0.00    +0.175 C 
ENDBRANCH  18   7
ENDBRANCH  19  18
ENDBRANCH  14  16
ENDBRANCH   9  14
BRANCH  10  15
ATOM     15  C   UNL     1      -4.944  -0.307  24.189  0.00  0.00    +0.138 C 
BRANCH  15   6
ATOM      5  O   UNL     1      -7.005   1.674  24.527  0.00  0.00    -0.275 OA
ATOM      6  N   UNL     1      -4.825   0.948  24.868  0.00  0.00    -0.312 N 
ATOM     24  C   UNL     1      -5.879   1.853  24.984  0.00  0.00    +0.217 C 
ATOM     33  H   UNL     1      -3.913   1.193  25.243  0.00  0.00    +0.149 HD
BRANCH  24  25
ATOM     25  C   UNL     1      -5.477   3.096  25.755  0.00  0.00    +0.130 C 
BRANCH  25  26
ATOM     26  C   UNL     1      -4.097   3.591  25.411  0.00  0.00    -0.039 A 
ATOM     27  C   UNL     1      -3.622   3.479  24.104  0.00  0.00    +0.004 A 
ATOM     28  C   UNL     1      -3.293   4.159  26.399  0.00  0.00    +0.004 A 
ATOM     29  C   UNL     1      -2.344   3.937  23.785  0.00  0.00    +0.000 A 
ATOM     30  C   UNL     1      -2.014   4.617  26.080  0.00  0.00    +0.000 A 
ATOM     31  C   UNL     1      -1.540   4.505  24.773  0.00  0.00    +0.000 A 
ENDBRANCH  25  26
ENDBRANCH  24  25
ENDBRANCH  15   6
ENDBRANCH  10  15
TORSDOF 9
ENDMDL
MODEL 2
REMARK VINA RESULT:      -4.7      1.613      4.187
REMARK  Name = 75536420
REMARK  9 active torsions:
REMARK  status: ('A' for Active; 'I' for Inactive)
REMARK    1  A    between atoms: O_2  and  C_11
REMARK    2  A    between atoms: N_6  and  C_15
REMARK    3  A    between atoms: N_7  and  C_18
REMARK    4  A    between atoms: C_9  and  C_14
REMARK    5  A    between atoms: C_10  and  C_15
REMARK    6  A    between atoms: C_14  and  C_16
REMARK    7  A    between atoms: C_18  and  C_19
REMARK    8  A    between atoms: C_24  and  C_25
REMARK    9  A    between atoms: C_25  and  C_26
REMARK                            x       y       z     vdW  Elec       q    Type
REMARK                         _______ _______ _______ _____ _____    ______ ____
ROOT
ATOM      1  O   UNL     1      -1.919   3.202  26.409  0.00  0.00    -0.369 OA
ATOM      9  C   UNL     1      -1.786   2.264  25.338  0.00  0.00    +0.125 C 
ATOM     10  C   UNL     1      -2.780   4.316  26.140  0.00  0.00    +0.164 C 
ATOM     11  C   UNL     1      -2.345   5.066  24.875  0.00  0.00    +0.145 C 
ATOM     12  C   UNL     1      -1.242   2.948  24.086  0.00  0.00    +0.034 C 
ATOM     13  C   UNL     1      -2.125   4.129  23.690  0.00  0.00    +0.036 C 
ENDROOT
BRANCH  11   2
ATOM      2  O   UNL     1      -1.109   5.735  25.137  0.00  0.00    -0.389 OA
ATOM     32  H   UNL     1      -0.556   5.135  25.666  0.00  0.00    +0.210 HD
ENDBRANCH  11   2
BRANCH   9  14
ATOM     14  C   UNL     1      -0.845   1.162  25.807  0.00  0.00    +0.090 C 
BRANCH  14  16
ATOM      3  O   UNL     1       0.440  -0.923  23.163  0.00  0.00    -0.358 OA
ATOM      8  N   UNL     1      -0.441  -0.662  24.204  0.00  0.00    -0.083 NA
ATOM     16  C   UNL     1      -0.091   0.545  24.659  0.00  0.00    +0.086 A 
ATOM     17  C   UNL     1       0.994   1.089  23.950  0.00  0.00    +0.072 A 
ATOM     19  C   UNL     1       1.289   0.127  23.020  0.00  0.00    +0.151 A 
BRANCH  19  18
ATOM     18  C   UNL     1       2.294   0.016  21.957  0.00  0.00    +0.161 C 
BRANCH  18   7
ATOM      4  O   UNL     1       5.597  -0.410  24.512  0.00  0.00    -0.377 OA
ATOM      7  N   UNL     1       3.630  -0.300  22.456  0.00  0.00    -0.291 NA
ATOM     20  C   UNL     1       3.563  -1.299  23.533  0.00  0.00    +0.113 C 
ATOM     21  C   UNL     1       4.310   0.910  22.936  0.00  0.00    +0.113 C 
ATOM     22  C   UNL     1       4.968  -1.605  24.046  0.00  0.00    +0.175 C 
ATOM     23  C   UNL     1       5.696   0.553  23.462  0.00  0.00    +0.175 C 
ENDBRANCH  18   7
ENDBRANCH  19  18
ENDBRANCH  14  16
ENDBRANCH   9  14
BRANCH  10  15
ATOM     15  C   UNL     1      -4.245   3.884  26.103  0.00  0.00    +0.138 C 
BRANCH  15   6
ATOM      5  O   UNL     1      -6.193   1.779  26.345  0.00  0.00    -0.275 OA
ATOM      6  N   UNL     1      -4.431   2.780  25.210  0.00  0.00    -0.312 N 
ATOM     24  C   UNL     1      -5.403   1.801  25.404  0.00  0.00    +0.217 C 
ATOM     33  H   UNL     1      -3.792   2.701  24.424  0.00  0.00    +0.149 HD
BRANCH  24  25
ATOM     25  C   UNL     1      -5.382   0.754  24.306  0.00  0.00    +0.130 C 
BRANCH  25  26
ATOM     26  C   UNL     1      -4.555  -0.456  24.653  0.00  0.00    -0.039 A 
ATOM     27  C   UNL     1      -3.927  -0.539  25.896  0.00  0.00    +0.004 A 
ATOM     28  C   UNL     1      -4.416  -1.493  23.731  0.00  0.00    +0.004 A 
ATOM     29  C   UNL     1      -3.161  -1.659  26.217  0.00  0.00    +0.000 A 
ATOM     30  C   UNL     1      -3.649  -2.614  24.052  0.00  0.00    +0.000 A 
ATOM     31  C   UNL     1      -3.022  -2.697  25.295  0.00  0.00    +0.000 A 
ENDBRANCH  25  26
ENDBRANCH  24  25
ENDBRANCH  15   6
ENDBRANCH  10  15
TORSDOF 9
ENDMDL
MODEL 3
REMARK VINA RESULT:      -3.9     14.299     18.831
REMARK  Name = 75536420
REMARK  9 active torsions:
REMARK  status: ('A' for Active; 'I' for Inactive)
REMARK    1  A    between atoms: O_2  and  C_11
REMARK    2  A    between atoms: N_6  and  C_15
REMARK    3  A    between atoms: N_7  and  C_18
REMARK    4  A    between atoms: C_9  and  C_14
REMARK    5  A    between atoms: C_10  and  C_15
REMARK    6  A    between atoms: C_14  and  C_16
REMARK    7  A    between atoms: C_18  and  C_19
REMARK    8  A    between atoms: C_24  and  C_25
REMARK    9  A    between atoms: C_25  and  C_26
REMARK                            x       y       z     vdW  Elec       q    Type
REMARK                         _______ _______ _______ _____ _____    ______ ____
ROOT
ATOM      1  O   UNL     1      14.066  -7.746  29.584  0.00  0.00    -0.369 OA
ATOM      9  C   UNL     1      14.546  -8.811  30.409  0.00  0.00    +0.125 C 
ATOM     10  C   UNL     1      14.868  -6.558  29.596  0.00  0.00    +0.164 C 
ATOM     11  C   UNL     1      15.064  -6.030  31.023  0.00  0.00    +0.145 C 
ATOM     12  C   UNL     1      14.644  -8.362  31.866  0.00  0.00    +0.034 C 
ATOM     13  C   UNL     1      15.522  -7.120  31.988  0.00  0.00    +0.036 C 
ENDROOT
BRANCH  11   2
ATOM      2  O   UNL     1      13.816  -5.521  31.501  0.00  0.00    -0.389 OA
ATOM     32  H   UNL     1      13.106  -6.013  31.053  0.00  0.00    +0.210 HD
ENDBRANCH  11   2
BRANCH   9  14
ATOM     14  C   UNL     1      13.574  -9.976  30.264  0.00  0.00    +0.090 C 
BRANCH  14  16
ATOM      3  O   UNL     1      10.457 -10.221  32.056  0.00  0.00    -0.358 OA
ATOM      8  N   UNL     1      11.519 -10.777  31.356  0.00  0.00    -0.083 NA
ATOM     16  C   UNL     1      12.304  -9.744  31.039  0.00  0.00    +0.086 A 
ATOM     17  C   UNL     1      11.794  -8.521  31.510  0.00  0.00    +0.072 A 
ATOM     19  C   UNL     1      10.632  -8.876  32.142  0.00  0.00    +0.151 A 
BRANCH  19  18
ATOM     18  C   UNL     1       9.593  -8.125  32.856  0.00  0.00    +0.161 C 
BRANCH  18   7
ATOM      4  O   UNL     1       5.821  -8.063  31.016  0.00  0.00    -0.377 OA
ATOM      7  N   UNL     1       8.237  -8.496  32.459  0.00  0.00    -0.291 NA
ATOM     20  C   UNL     1       8.158  -8.714  31.008  0.00  0.00    +0.113 C 
ATOM     21  C   UNL     1       7.273  -7.464  32.865  0.00  0.00    +0.113 C 
ATOM     22  C   UNL     1       6.732  -9.088  30.616  0.00  0.00    +0.175 C 
ATOM     23  C   UNL     1       5.868  -7.868  32.430  0.00  0.00    +0.175 C 
ENDBRANCH  18   7
ENDBRANCH  19  18
ENDBRANCH  14  16
ENDBRANCH   9  14
BRANCH  10  15
ATOM     15  C   UNL     1      16.186  -6.775  28.855  0.00  0.00    +0.138 C 
BRANCH  15   6
ATOM      5  O   UNL     1      16.610  -6.123  26.084  0.00  0.00    -0.275 OA
ATOM      6  N   UNL     1      16.689  -5.540  28.331  0.00  0.00    -0.312 N 
ATOM     24  C   UNL     1      16.864  -5.309  26.968  0.00  0.00    +0.217 C 
ATOM     33  H   UNL     1      16.961  -4.824  28.999  0.00  0.00    +0.149 HD
BRANCH  24  25
ATOM     25  C   UNL     1      17.405  -3.918  26.694  0.00  0.00    +0.130 C 
BRANCH  25  26
ATOM     26  C   UNL     1      17.115  -3.430  25.299  0.00  0.00    -0.039 A 
ATOM     27  C   UNL     1      16.977  -2.064  25.053  0.00  0.00    +0.004 A 
ATOM     28  C   UNL     1      16.984  -4.344  24.254  0.00  0.00    +0.004 A 
ATOM     29  C   UNL     1      16.708  -1.612  23.761  0.00  0.00    +0.000 A 
ATOM     30  C   UNL     1      16.715  -3.892  22.961  0.00  0.00    +0.000 A 
ATOM     31  C   UNL     1      16.576  -2.526  22.715  0.00  0.00    +0.000 A 
ENDBRANCH  25  26
ENDBRANCH  24  25
ENDBRANCH  15   6
ENDBRANCH  10  15
TORSDOF 9
ENDMDL
MODEL 4
REMARK VINA RESULT:      -2.8      1.761      6.962
REMARK  Name = 75536420
REMARK  9 active torsions:
REMARK  status: ('A' for Active; 'I' for Inactive)
REMARK    1  A    between atoms: O_2  and  C_11
REMARK    2  A    between atoms: N_6  and  C_15
REMARK    3  A    between atoms: N_7  and  C_18
REMARK    4  A    between atoms: C_9  and  C_14
REMARK    5  A    between atoms: C_10  and  C_15
REMARK    6  A    between atoms: C_14  and  C_16
REMARK    7  A    between atoms: C_18  and  C_19
REMARK    8  A    between atoms: C_24  and  C_25
REMARK    9  A    between atoms: C_25  and  C_26
REMARK                            x       y       z     vdW  Elec       q    Type
REMARK                         _______ _______ _______ _____ _____    ______ ____
ROOT
ATOM      1  O   UNL     1      -2.414  -0.014  24.515  0.00  0.00    -0.369 OA
ATOM      9  C   UNL     1      -3.268  -1.095  24.132  0.00  0.00    +0.125 C 
ATOM     10  C   UNL     1      -1.020  -0.338  24.598  0.00  0.00    +0.164 C 
ATOM     11  C   UNL     1      -0.777  -1.521  25.543  0.00  0.00    +0.145 C 
ATOM     12  C   UNL     1      -3.145  -2.255  25.117  0.00  0.00    +0.034 C 
ATOM     13  C   UNL     1      -1.691  -2.705  25.240  0.00  0.00    +0.036 C 
ENDROOT
BRANCH  11   2
ATOM      2  O   UNL     1      -1.039  -1.100  26.885  0.00  0.00    -0.389 OA
ATOM     32  H   UNL     1      -1.914  -0.676  26.895  0.00  0.00    +0.210 HD
ENDBRANCH  11   2
BRANCH   9  14
ATOM     14  C   UNL     1      -4.695  -0.561  24.096  0.00  0.00    +0.090 C 
BRANCH  14  16
ATOM      3  O   UNL     1      -5.685   2.401  25.894  0.00  0.00    -0.358 OA
ATOM      8  N   UNL     1      -5.917   1.118  25.416  0.00  0.00    -0.083 NA
ATOM     16  C   UNL     1      -4.803   0.787  24.757  0.00  0.00    +0.086 A 
ATOM     17  C   UNL     1      -3.842   1.812  24.785  0.00  0.00    +0.072 A 
ATOM     19  C   UNL     1      -4.446   2.804  25.512  0.00  0.00    +0.151 A 
BRANCH  19  18
ATOM     18  C   UNL     1      -4.035   4.147  25.935  0.00  0.00    +0.161 C 
BRANCH  18   7
ATOM      4  O   UNL     1       0.007   3.963  24.819  0.00  0.00    -0.377 OA
ATOM      7  N   UNL     1      -2.586   4.334  25.934  0.00  0.00    -0.291 NA
ATOM     20  C   UNL     1      -2.153   5.063  24.733  0.00  0.00    +0.113 C 
ATOM     21  C   UNL     1      -1.891   3.042  26.016  0.00  0.00    +0.113 C 
ATOM     22  C   UNL     1      -0.637   5.236  24.748  0.00  0.00    +0.175 C 
ATOM     23  C   UNL     1      -0.382   3.263  26.002  0.00  0.00    +0.175 C 
ENDBRANCH  18   7
ENDBRANCH  19  18
ENDBRANCH  14  16
ENDBRANCH   9  14
BRANCH  10  15
ATOM     15  C   UNL     1      -0.420  -0.552  23.210  0.00  0.00    +0.138 C 
BRANCH  15   6
ATOM      5  O   UNL     1       1.385  -0.670  20.971  0.00  0.00    -0.275 OA
ATOM      6  N   UNL     1       0.840   0.118  23.087  0.00  0.00    -0.312 N 
ATOM     24  C   UNL     1       1.654   0.004  21.962  0.00  0.00    +0.217 C 
ATOM     33  H   UNL     1       1.158   0.667  23.881  0.00  0.00    +0.149 HD
BRANCH  24  25
ATOM     25  C   UNL     1       2.926   0.820  22.097  0.00  0.00    +0.130 C 
BRANCH  25  26
ATOM     26  C   UNL     1       3.975   0.153  22.945  0.00  0.00    -0.039 A 
ATOM     27  C   UNL     1       5.070   0.885  23.406  0.00  0.00    +0.004 A 
ATOM     28  C   UNL     1       3.854  -1.199  23.270  0.00  0.00    +0.004 A 
ATOM     29  C   UNL     1       6.042   0.267  24.192  0.00  0.00    +0.000 A 
ATOM     30  C   UNL     1       4.827  -1.817  24.056  0.00  0.00    +0.000 A 
ATOM     31  C   UNL     1       5.921  -1.085  24.516  0.00  0.00    +0.000 A 
ENDBRANCH  25  26
ENDBRANCH  24  25
ENDBRANCH  15   6
ENDBRANCH  10  15
TORSDOF 9
ENDMDL
MODEL 5
REMARK VINA RESULT:      -2.5     15.009     19.469
REMARK  Name = 75536420
REMARK  9 active torsions:
REMARK  status: ('A' for Active; 'I' for Inactive)
REMARK    1  A    between atoms: O_2  and  C_11
REMARK    2  A    between atoms: N_6  and  C_15
REMARK    3  A    between atoms: N_7  and  C_18
REMARK    4  A    between atoms: C_9  and  C_14
REMARK    5  A    between atoms: C_10  and  C_15
REMARK    6  A    between atoms: C_14  and  C_16
REMARK    7  A    between atoms: C_18  and  C_19
REMARK    8  A    between atoms: C_24  and  C_25
REMARK    9  A    between atoms: C_25  and  C_26
REMARK                            x       y       z     vdW  Elec       q    Type
REMARK                         _______ _______ _______ _____ _____    ______ ____
ROOT
ATOM      1  O   UNL     1      14.470  -8.144  29.737  0.00  0.00    -0.369 OA
ATOM      9  C   UNL     1      15.529  -9.001  30.168  0.00  0.00    +0.125 C 
ATOM     10  C   UNL     1      14.830  -7.189  28.730  0.00  0.00    +0.164 C 
ATOM     11  C   UNL     1      16.016  -6.326  29.178  0.00  0.00    +0.145 C 
ATOM     12  C   UNL     1      16.689  -8.184  30.733  0.00  0.00    +0.034 C 
ATOM     13  C   UNL     1      17.177  -7.162  29.709  0.00  0.00    +0.036 C 
ENDROOT
BRANCH  11   2
ATOM      2  O   UNL     1      15.584  -5.460  30.231  0.00  0.00    -0.389 OA
ATOM     32  H   UNL     1      15.738  -5.922  31.073  0.00  0.00    +0.210 HD
ENDBRANCH  11   2
BRANCH   9  14
ATOM     14  C   UNL     1      14.959  -9.938  31.226  0.00  0.00    +0.090 C 
BRANCH  14  16
ATOM      3  O   UNL     1      11.363  -9.827  31.431  0.00  0.00    -0.358 OA
ATOM      8  N   UNL     1      12.551 -10.363  30.951  0.00  0.00    -0.083 NA
ATOM     16  C   UNL     1      13.514  -9.634  31.521  0.00  0.00    +0.086 A 
ATOM     17  C   UNL     1      12.999  -8.633  32.363  0.00  0.00    +0.072 A 
ATOM     19  C   UNL     1      11.643  -8.798  32.272  0.00  0.00    +0.151 A 
BRANCH  19  18
ATOM     18  C   UNL     1      10.493  -8.113  32.873  0.00  0.00    +0.161 C 
BRANCH  18   7
ATOM      4  O   UNL     1       6.541  -9.422  32.340  0.00  0.00    -0.377 OA
ATOM      7  N   UNL     1       9.220  -8.463  32.248  0.00  0.00    -0.291 NA
ATOM     20  C   UNL     1       8.128  -7.643  32.790  0.00  0.00    +0.113 C 
ATOM     21  C   UNL     1       8.920  -9.889  32.437  0.00  0.00    +0.113 C 
ATOM     22  C   UNL     1       6.808  -8.034  32.131  0.00  0.00    +0.175 C 
ATOM     23  C   UNL     1       7.583 -10.227  31.786  0.00  0.00    +0.175 C 
ENDBRANCH  18   7
ENDBRANCH  19  18
ENDBRANCH  14  16
ENDBRANCH   9  14
BRANCH  10  15
ATOM     15  C   UNL     1      15.064  -7.870  27.383  0.00  0.00    +0.138 C 
BRANCH  15   6
ATOM      5  O   UNL     1      16.822  -8.677  25.251  0.00  0.00    -0.275 OA
ATOM      6  N   UNL     1      15.783  -7.010  26.492  0.00  0.00    -0.312 N 
ATOM     24  C   UNL     1      16.618  -7.488  25.482  0.00  0.00    +0.217 C 
ATOM     33  H   UNL     1      15.701  -6.008  26.639  0.00  0.00    +0.149 HD
BRANCH  24  25
ATOM     25  C   UNL     1      17.249  -6.361  24.687  0.00  0.00    +0.130 C 
BRANCH  25  26
ATOM     26  C   UNL     1      17.245  -5.043  25.415  0.00  0.00    -0.039 A 
ATOM     27  C   UNL     1      17.403  -5.011  26.800  0.00  0.00    +0.004 A 
ATOM     28  C   UNL     1      17.081  -3.854  24.704  0.00  0.00    +0.004 A 
ATOM     29  C   UNL     1      17.398  -3.789  27.475  0.00  0.00    +0.000 A 
ATOM     30  C   UNL     1      17.076  -2.632  25.378  0.00  0.00    +0.000 A 
ATOM     31  C   UNL     1      17.235  -2.600  26.764  0.00  0.00    +0.000 A 
ENDBRANCH  25  26
ENDBRANCH  24  25
ENDBRANCH  15   6
ENDBRANCH  10  15
TORSDOF 9
ENDMDL
MODEL 6
REMARK VINA RESULT:      -2.0      1.849      7.105
REMARK  Name = 75536420
REMARK  9 active torsions:
REMARK  status: ('A' for Active; 'I' for Inactive)
REMARK    1  A    between atoms: O_2  and  C_11
REMARK    2  A    between atoms: N_6  and  C_15
REMARK    3  A    between atoms: N_7  and  C_18
REMARK    4  A    between atoms: C_9  and  C_14
REMARK    5  A    between atoms: C_10  and  C_15
REMARK    6  A    between atoms: C_14  and  C_16
REMARK    7  A    between atoms: C_18  and  C_19
REMARK    8  A    between atoms: C_24  and  C_25
REMARK    9  A    between atoms: C_25  and  C_26
REMARK                            x       y       z     vdW  Elec       q    Type
REMARK                         _______ _______ _______ _____ _____    ______ ____
ROOT
ATOM      1  O   UNL     1      -2.000   3.344  24.308  0.00  0.00    -0.369 OA
ATOM      9  C   UNL     1      -2.332   4.217  25.390  0.00  0.00    +0.125 C 
ATOM     10  C   UNL     1      -0.599   3.095  24.135  0.00  0.00    +0.164 C 
ATOM     11  C   UNL     1       0.186   4.403  23.975  0.00  0.00    +0.145 C 
ATOM     12  C   UNL     1      -1.663   5.578  25.210  0.00  0.00    +0.034 C 
ATOM     13  C   UNL     1      -0.152   5.420  25.062  0.00  0.00    +0.036 C 
ENDROOT
BRANCH  11   2
ATOM      2  O   UNL     1      -0.145   4.988  22.712  0.00  0.00    -0.389 OA
ATOM     32  H   UNL     1      -1.064   5.299  22.764  0.00  0.00    +0.210 HD
ENDBRANCH  11   2
BRANCH   9  14
ATOM     14  C   UNL     1      -3.849   4.358  25.416  0.00  0.00    +0.090 C 
BRANCH  14  16
ATOM      3  O   UNL     1      -6.018   1.501  25.770  0.00  0.00    -0.358 OA
ATOM      8  N   UNL     1      -5.658   2.813  26.049  0.00  0.00    -0.083 NA
ATOM     16  C   UNL     1      -4.535   3.019  25.355  0.00  0.00    +0.086 A 
ATOM     17  C   UNL     1      -4.142   1.883  24.626  0.00  0.00    +0.072 A 
ATOM     19  C   UNL     1      -5.108   0.957  24.921  0.00  0.00    +0.151 A 
BRANCH  19  18
ATOM     18  C   UNL     1      -5.337  -0.435  24.519  0.00  0.00    +0.161 C 
BRANCH  18   7
ATOM      4  O   UNL     1      -1.686  -2.502  24.404  0.00  0.00    -0.377 OA
ATOM      7  N   UNL     1      -4.236  -1.327  24.875  0.00  0.00    -0.291 NA
ATOM     20  C   UNL     1      -2.992  -0.569  25.070  0.00  0.00    +0.113 C 
ATOM     21  C   UNL     1      -4.041  -2.355  23.843  0.00  0.00    +0.113 C 
ATOM     22  C   UNL     1      -1.855  -1.522  25.429  0.00  0.00    +0.175 C 
ATOM     23  C   UNL     1      -2.881  -3.265  24.231  0.00  0.00    +0.175 C 
ENDBRANCH  18   7
ENDBRANCH  19  18
ENDBRANCH  14  16
ENDBRANCH   9  14
BRANCH  10  15
ATOM     15  C   UNL     1      -0.055   2.206  25.252  0.00  0.00    +0.138 C 
BRANCH  15   6
ATOM      5  O   UNL     1      -0.624   0.871  22.766  0.00  0.00    -0.275 OA
ATOM      6  N   UNL     1       0.627   1.067  24.714  0.00  0.00    -0.312 N 
ATOM     24  C   UNL     1       0.283   0.480  23.497  0.00  0.00    +0.217 C 
ATOM     33  H   UNL     1       1.367   0.656  25.275  0.00  0.00    +0.149 HD
BRANCH  24  25
ATOM     25  C   UNL     1       1.170  -0.706  23.168  0.00  0.00    +0.130 C 
BRANCH  25  26
ATOM     26  C   UNL     1       2.640  -0.382  23.216  0.00  0.00    -0.039 A 
ATOM     27  C   UNL     1       3.105   0.826  22.696  0.00  0.00    +0.004 A 
ATOM     28  C   UNL     1       3.537  -1.291  23.778  0.00  0.00    +0.004 A 
ATOM     29  C   UNL     1       4.467   1.126  22.740  0.00  0.00    +0.000 A 
ATOM     30  C   UNL     1       4.898  -0.991  23.822  0.00  0.00    +0.000 A 
ATOM     31  C   UNL     1       5.363   0.217  23.302  0.00  0.00    +0.000 A 
ENDBRANCH  25  26
ENDBRANCH  24  25
ENDBRANCH  15   6
ENDBRANCH  10  15
TORSDOF 9
ENDMDL
