MODEL 1
REMARK VINA RESULT:      -0.0      0.000      0.000
REMARK  Name = 45783581
REMARK  6 active torsions:
REMARK  status: ('A' for Active; 'I' for Inactive)
REMARK    1  A    between atoms: O_2  and  C_12
REMARK    2  A    between atoms: O_2  and  C_24
REMARK    3  A    between atoms: N_4  and  C_13
REMARK    4  A    between atoms: C_8  and  C_19
REMARK    5  A    between atoms: C_13  and  C_20
REMARK    6  A    between atoms: C_21  and  C_25
REMARK                            x       y       z     vdW  Elec       q    Type
REMARK                         _______ _______ _______ _____ _____    ______ ____
ROOT
ATOM      3  O   UNL     1      -2.344   2.794  25.588  0.00  0.00    -0.336 OA
ATOM      5  N   UNL     1      -2.334   1.709  23.629  0.00  0.00    -0.190 NA
ATOM      6  N   UNL     1      -1.013   2.421  25.355  0.00  0.00    -0.056 NA
ATOM     19  C   UNL     1      -3.054   2.336  24.525  0.00  0.00    +0.245 A 
ATOM     21  C   UNL     1      -1.089   1.787  24.182  0.00  0.00    +0.204 A 
ENDROOT
BRANCH  21  25
ATOM      7  N   UNL     1       2.423   1.331  23.054  0.00  0.00    -0.221 NA
ATOM     24  C   UNL     1       2.283   0.195  22.336  0.00  0.00    +0.215 A 
ATOM     25  C   UNL     1       0.058   1.218  23.538  0.00  0.00    +0.041 A 
ATOM     26  C   UNL     1       1.082  -0.477  22.174  0.00  0.00    +0.068 A 
ATOM     29  C   UNL     1      -0.047   0.050  22.790  0.00  0.00    +0.018 A 
ATOM     30  C   UNL     1       1.304   1.815  23.638  0.00  0.00    +0.126 A 
BRANCH  24   2
ATOM      2  O   UNL     1       3.411  -0.306  21.739  0.00  0.00    -0.473 OA
BRANCH   2  12
ATOM     12  C   UNL     1       4.580  -0.387  22.547  0.00  0.00    +0.175 C 
ATOM     14  C   UNL     1       4.384  -1.450  23.627  0.00  0.00    +0.044 C 
ATOM     15  C   UNL     1       4.881   0.983  23.152  0.00  0.00    +0.044 C 
ATOM     16  C   UNL     1       5.575  -1.506  24.580  0.00  0.00    +0.004 C 
ATOM     17  C   UNL     1       6.071   0.926  24.105  0.00  0.00    +0.004 C 
ATOM     18  C   UNL     1       5.877  -0.137  25.183  0.00  0.00    +0.000 C 
ENDBRANCH   2  12
ENDBRANCH  24   2
ENDBRANCH  21  25
BRANCH  19   8
ATOM      4  N   UNL     1      -5.270   1.775  25.508  0.00  0.00    -0.287 NA
ATOM      8  C   UNL     1      -4.542   2.616  24.536  0.00  0.00    +0.146 C 
ATOM      9  C   UNL     1      -4.871   4.063  24.949  0.00  0.00    +0.030 C 
ATOM     10  C   UNL     1      -5.836   3.934  26.118  0.00  0.00    +0.017 C 
ATOM     11  C   UNL     1      -6.432   2.553  25.938  0.00  0.00    +0.085 C 
BRANCH   4  13
ATOM     13  C   UNL     1      -5.649   0.474  24.971  0.00  0.00    +0.120 C 
BRANCH  13  20
ATOM      1  F   UNL     1      -1.289  -3.094  24.848  0.00  0.00    -0.205 F 
ATOM     20  C   UNL     1      -4.484  -0.478  24.938  0.00  0.00    -0.033 A 
ATOM     22  C   UNL     1      -4.341  -1.367  23.873  0.00  0.00    +0.008 A 
ATOM     23  C   UNL     1      -3.549  -0.474  25.974  0.00  0.00    +0.008 A 
ATOM     27  C   UNL     1      -3.262  -2.251  23.842  0.00  0.00    +0.038 A 
ATOM     28  C   UNL     1      -2.470  -1.358  25.943  0.00  0.00    +0.038 A 
ATOM     31  C   UNL     1      -2.327  -2.246  24.877  0.00  0.00    +0.123 A 
ENDBRANCH  13  20
ENDBRANCH   4  13
ENDBRANCH  19   8
TORSDOF 6
ENDMDL
MODEL 2
REMARK VINA RESULT:       1.3      2.403      3.742
REMARK  Name = 45783581
REMARK  6 active torsions:
REMARK  status: ('A' for Active; 'I' for Inactive)
REMARK    1  A    between atoms: O_2  and  C_12
REMARK    2  A    between atoms: O_2  and  C_24
REMARK    3  A    between atoms: N_4  and  C_13
REMARK    4  A    between atoms: C_8  and  C_19
REMARK    5  A    between atoms: C_13  and  C_20
REMARK    6  A    between atoms: C_21  and  C_25
REMARK                            x       y       z     vdW  Elec       q    Type
REMARK                         _______ _______ _______ _____ _____    ______ ____
ROOT
ATOM      3  O   UNL     1      -3.412  -0.900  25.256  0.00  0.00    -0.336 OA
ATOM      5  N   UNL     1      -2.517   1.032  24.559  0.00  0.00    -0.190 NA
ATOM      6  N   UNL     1      -2.173  -1.226  24.689  0.00  0.00    -0.056 NA
ATOM     19  C   UNL     1      -3.536   0.448  25.138  0.00  0.00    +0.245 A 
ATOM     21  C   UNL     1      -1.706  -0.036  24.303  0.00  0.00    +0.204 A 
ENDROOT
BRANCH  21  25
ATOM      7  N   UNL     1       1.116  -0.603  21.952  0.00  0.00    -0.221 NA
ATOM     24  C   UNL     1       1.962   0.360  22.379  0.00  0.00    +0.215 A 
ATOM     25  C   UNL     1      -0.438   0.121  23.656  0.00  0.00    +0.041 A 
ATOM     26  C   UNL     1       1.685   1.229  23.423  0.00  0.00    +0.068 A 
ATOM     29  C   UNL     1       0.460   1.101  24.068  0.00  0.00    +0.018 A 
ATOM     30  C   UNL     1      -0.065  -0.698  22.602  0.00  0.00    +0.126 A 
BRANCH  24   2
ATOM      2  O   UNL     1       3.163   0.466  21.727  0.00  0.00    -0.473 OA
BRANCH   2  12
ATOM     12  C   UNL     1       4.302  -0.070  22.392  0.00  0.00    +0.175 C 
ATOM     14  C   UNL     1       3.870  -1.216  23.306  0.00  0.00    +0.044 C 
ATOM     15  C   UNL     1       5.009   1.038  23.171  0.00  0.00    +0.044 C 
ATOM     16  C   UNL     1       5.044  -1.760  24.115  0.00  0.00    +0.004 C 
ATOM     17  C   UNL     1       6.182   0.493  23.981  0.00  0.00    +0.004 C 
ATOM     18  C   UNL     1       5.752  -0.653  24.892  0.00  0.00    +0.000 C 
ENDBRANCH   2  12
ENDBRANCH  24   2
ENDBRANCH  21  25
BRANCH  19   8
ATOM      4  N   UNL     1      -4.896   2.512  25.432  0.00  0.00    -0.287 NA
ATOM      8  C   UNL     1      -4.810   1.059  25.684  0.00  0.00    +0.146 C 
ATOM      9  C   UNL     1      -6.077   0.474  25.033  0.00  0.00    +0.030 C 
ATOM     10  C   UNL     1      -6.840   1.676  24.497  0.00  0.00    +0.017 C 
ATOM     11  C   UNL     1      -6.320   2.829  25.330  0.00  0.00    +0.085 C 
BRANCH   4  13
ATOM     13  C   UNL     1      -4.227   3.312  26.449  0.00  0.00    +0.120 C 
BRANCH  13  20
ATOM      1  F   UNL     1       0.436   5.768  24.453  0.00  0.00    -0.205 F 
ATOM     20  C   UNL     1      -2.982   3.968  25.916  0.00  0.00    -0.033 A 
ATOM     22  C   UNL     1      -3.065   5.201  25.270  0.00  0.00    +0.008 A 
ATOM     23  C   UNL     1      -1.743   3.342  26.068  0.00  0.00    +0.008 A 
ATOM     27  C   UNL     1      -1.911   5.809  24.776  0.00  0.00    +0.038 A 
ATOM     28  C   UNL     1      -0.589   3.950  25.573  0.00  0.00    +0.038 A 
ATOM     31  C   UNL     1      -0.674   5.184  24.927  0.00  0.00    +0.123 A 
ENDBRANCH  13  20
ENDBRANCH   4  13
ENDBRANCH  19   8
TORSDOF 6
ENDMDL
