MODEL 1
REMARK VINA RESULT:       2.5      0.000      0.000
REMARK  Name = 75368604
REMARK  6 active torsions:
REMARK  status: ('A' for Active; 'I' for Inactive)
REMARK    1  A    between atoms: O_3  and  C_28
REMARK    2  A    between atoms: N_6  and  C_14
REMARK    3  A    between atoms: N_7  and  C_15
REMARK    4  A    between atoms: C_14  and  C_16
REMARK    5  A    between atoms: C_15  and  C_17
REMARK    6  A    between atoms: C_26  and  C_28
REMARK                            x       y       z     vdW  Elec       q    Type
REMARK                         _______ _______ _______ _____ _____    ______ ____
ROOT
ATOM      2  O   UNL     1      -1.411  -3.426  23.365  0.00  0.00    -0.252 OA
ATOM      5  N   UNL     1      -2.750  -1.963  24.622  0.00  0.00    -0.278 N 
ATOM      6  N   UNL     1      -4.684   0.002  25.180  0.00  0.00    -0.295 NA
ATOM      7  N   UNL     1      -0.568  -2.112  25.133  0.00  0.00    -0.279 N 
ATOM      8  C   UNL     1      -2.598  -1.142  25.806  0.00  0.00    +0.109 C 
ATOM      9  C   UNL     1      -3.286   0.207  25.610  0.00  0.00    +0.109 C 
ATOM     10  C   UNL     1      -1.084  -1.069  26.002  0.00  0.00    +0.133 C 
ATOM     11  C   UNL     1      -4.062  -2.111  24.028  0.00  0.00    +0.125 C 
ATOM     12  C   UNL     1      -4.739  -0.744  23.906  0.00  0.00    +0.104 C 
ATOM     13  C   UNL     1      -1.560  -2.608  24.262  0.00  0.00    +0.305 C 
ENDROOT
BRANCH   6  14
ATOM     14  C   UNL     1      -5.370   1.287  25.048  0.00  0.00    +0.119 C 
BRANCH  14  16
ATOM     16  C   UNL     1      -4.402   2.439  25.021  0.00  0.00    -0.033 A 
ATOM     18  C   UNL     1      -4.210   3.215  26.164  0.00  0.00    +0.006 A 
ATOM     19  C   UNL     1      -3.698   2.731  23.853  0.00  0.00    +0.006 A 
ATOM     22  C   UNL     1      -3.312   4.283  26.139  0.00  0.00    +0.015 A 
ATOM     23  C   UNL     1      -2.801   3.799  23.828  0.00  0.00    +0.015 A 
ATOM     26  C   UNL     1      -2.608   4.575  24.971  0.00  0.00    +0.059 A 
BRANCH  26  28
ATOM      4  O   UNL     1      -1.973   6.880  25.052  0.00  0.00    -0.245 OA
ATOM     28  C   UNL     1      -1.671   5.688  24.946  0.00  0.00    +0.337 C 
BRANCH  28   3
ATOM      3  O   UNL     1      -0.382   5.278  24.787  0.00  0.00    -0.477 OA
ATOM     29  H   UNL     1       0.255   6.007  24.954  0.00  0.00    +0.295 HD
ENDBRANCH  28   3
ENDBRANCH  26  28
ENDBRANCH  14  16
ENDBRANCH   6  14
BRANCH   7  15
ATOM     15  C   UNL     1       0.836  -2.456  25.098  0.00  0.00    +0.144 C 
BRANCH  15  17
ATOM      1  F   UNL     1       3.755   0.977  21.716  0.00  0.00    -0.205 F 
ATOM     17  C   UNL     1       1.616  -1.539  24.195  0.00  0.00    -0.030 A 
ATOM     20  C   UNL     1       0.954  -0.555  23.460  0.00  0.00    +0.008 A 
ATOM     21  C   UNL     1       3.000  -1.673  24.092  0.00  0.00    +0.008 A 
ATOM     24  C   UNL     1       1.677   0.295  22.623  0.00  0.00    +0.038 A 
ATOM     25  C   UNL     1       3.723  -0.823  23.254  0.00  0.00    +0.038 A 
ATOM     27  C   UNL     1       3.061   0.160  22.519  0.00  0.00    +0.123 A 
ENDBRANCH  15  17
ENDBRANCH   7  15
TORSDOF 6
ENDMDL
MODEL 2
REMARK VINA RESULT:       3.9      2.119      2.988
REMARK  Name = 75368604
REMARK  6 active torsions:
REMARK  status: ('A' for Active; 'I' for Inactive)
REMARK    1  A    between atoms: O_3  and  C_28
REMARK    2  A    between atoms: N_6  and  C_14
REMARK    3  A    between atoms: N_7  and  C_15
REMARK    4  A    between atoms: C_14  and  C_16
REMARK    5  A    between atoms: C_15  and  C_17
REMARK    6  A    between atoms: C_26  and  C_28
REMARK                            x       y       z     vdW  Elec       q    Type
REMARK                         _______ _______ _______ _____ _____    ______ ____
ROOT
ATOM      2  O   UNL     1       0.534  -1.751  21.981  0.00  0.00    -0.252 OA
ATOM      5  N   UNL     1      -0.812  -1.394  23.872  0.00  0.00    -0.278 N 
ATOM      6  N   UNL     1      -3.131  -1.269  25.458  0.00  0.00    -0.295 NA
ATOM      7  N   UNL     1       0.754   0.138  23.375  0.00  0.00    -0.279 N 
ATOM      8  C   UNL     1      -0.860  -0.456  24.974  0.00  0.00    +0.109 C 
ATOM      9  C   UNL     1      -2.305  -0.059  25.272  0.00  0.00    +0.109 C 
ATOM     10  C   UNL     1       0.038   0.691  24.512  0.00  0.00    +0.133 C 
ATOM     11  C   UNL     1      -1.692  -2.543  23.882  0.00  0.00    +0.125 C 
ATOM     12  C   UNL     1      -3.115  -2.110  24.243  0.00  0.00    +0.104 C 
ATOM     13  C   UNL     1       0.203  -1.090  22.955  0.00  0.00    +0.305 C 
ENDROOT
BRANCH   6  14
ATOM     14  C   UNL     1      -4.504  -0.900  25.804  0.00  0.00    +0.119 C 
BRANCH  14  16
ATOM     16  C   UNL     1      -4.759   0.568  25.595  0.00  0.00    -0.033 A 
ATOM     18  C   UNL     1      -5.720   1.225  26.364  0.00  0.00    +0.006 A 
ATOM     19  C   UNL     1      -4.035   1.273  24.633  0.00  0.00    +0.006 A 
ATOM     22  C   UNL     1      -5.956   2.586  26.171  0.00  0.00    +0.015 A 
ATOM     23  C   UNL     1      -4.271   2.633  24.441  0.00  0.00    +0.015 A 
ATOM     26  C   UNL     1      -5.232   3.290  25.209  0.00  0.00    +0.059 A 
BRANCH  26  28
ATOM      4  O   UNL     1      -4.844   5.446  24.249  0.00  0.00    -0.245 OA
ATOM     28  C   UNL     1      -5.478   4.710  25.009  0.00  0.00    +0.337 C 
BRANCH  28   3
ATOM      3  O   UNL     1      -6.511   5.170  25.768  0.00  0.00    -0.477 OA
ATOM     29  H   UNL     1      -7.318   5.323  25.230  0.00  0.00    +0.295 HD
ENDBRANCH  28   3
ENDBRANCH  26  28
ENDBRANCH  14  16
ENDBRANCH   6  14
BRANCH   7  15
ATOM     15  C   UNL     1       1.801   0.870  22.698  0.00  0.00    +0.144 C 
BRANCH  15  17
ATOM      1  F   UNL     1       6.929  -0.899  24.221  0.00  0.00    -0.205 F 
ATOM     17  C   UNL     1       3.170   0.398  23.105  0.00  0.00    -0.030 A 
ATOM     20  C   UNL     1       4.249   1.283  23.084  0.00  0.00    +0.008 A 
ATOM     21  C   UNL     1       3.362  -0.926  23.503  0.00  0.00    +0.008 A 
ATOM     24  C   UNL     1       5.518   0.845  23.461  0.00  0.00    +0.038 A 
ATOM     25  C   UNL     1       4.632  -1.364  23.879  0.00  0.00    +0.038 A 
ATOM     27  C   UNL     1       5.710  -0.478  23.858  0.00  0.00    +0.123 A 
ENDBRANCH  15  17
ENDBRANCH   7  15
TORSDOF 6
ENDMDL
MODEL 3
REMARK VINA RESULT:       5.8      3.659      7.685
REMARK  Name = 75368604
REMARK  6 active torsions:
REMARK  status: ('A' for Active; 'I' for Inactive)
REMARK    1  A    between atoms: O_3  and  C_28
REMARK    2  A    between atoms: N_6  and  C_14
REMARK    3  A    between atoms: N_7  and  C_15
REMARK    4  A    between atoms: C_14  and  C_16
REMARK    5  A    between atoms: C_15  and  C_17
REMARK    6  A    between atoms: C_26  and  C_28
REMARK                            x       y       z     vdW  Elec       q    Type
REMARK                         _______ _______ _______ _____ _____    ______ ____
ROOT
ATOM      2  O   UNL     1      -2.688  -1.085  26.957  0.00  0.00    -0.252 OA
ATOM      5  N   UNL     1      -1.698  -1.016  24.828  0.00  0.00    -0.278 N 
ATOM      6  N   UNL     1       0.238  -0.525  22.848  0.00  0.00    -0.295 NA
ATOM      7  N   UNL     1      -3.842  -0.376  25.026  0.00  0.00    -0.279 N 
ATOM      8  C   UNL     1      -2.130  -0.770  23.468  0.00  0.00    +0.109 C 
ATOM      9  C   UNL     1      -1.102   0.084  22.729  0.00  0.00    +0.109 C 
ATOM     10  C   UNL     1      -3.503  -0.121  23.636  0.00  0.00    +0.133 C 
ATOM     11  C   UNL     1      -0.346  -1.474  25.069  0.00  0.00    +0.125 C 
ATOM     12  C   UNL     1       0.645  -0.630  24.264  0.00  0.00    +0.104 C 
ATOM     13  C   UNL     1      -2.737  -0.859  25.755  0.00  0.00    +0.305 C 
ENDROOT
BRANCH   6  14
ATOM     14  C   UNL     1       1.220   0.254  22.093  0.00  0.00    +0.119 C 
BRANCH  14  16
ATOM     16  C   UNL     1       2.618   0.044  22.608  0.00  0.00    -0.033 A 
ATOM     18  C   UNL     1       3.006  -1.211  23.080  0.00  0.00    +0.006 A 
ATOM     19  C   UNL     1       3.526   1.103  22.613  0.00  0.00    +0.006 A 
ATOM     22  C   UNL     1       4.303  -1.405  23.557  0.00  0.00    +0.015 A 
ATOM     23  C   UNL     1       4.822   0.907  23.090  0.00  0.00    +0.015 A 
ATOM     26  C   UNL     1       5.211  -0.346  23.563  0.00  0.00    +0.059 A 
BRANCH  26  28
ATOM      4  O   UNL     1       7.598  -0.251  23.459  0.00  0.00    -0.245 OA
ATOM     28  C   UNL     1       6.563  -0.550  24.059  0.00  0.00    +0.337 C 
BRANCH  28   3
ATOM      3  O   UNL     1       6.581  -1.124  25.294  0.00  0.00    -0.477 OA
ATOM     29  H   UNL     1       5.865  -0.776  25.868  0.00  0.00    +0.295 HD
ENDBRANCH  28   3
ENDBRANCH  26  28
ENDBRANCH  14  16
ENDBRANCH   6  14
BRANCH   7  15
ATOM     15  C   UNL     1      -5.128  -0.016  25.580  0.00  0.00    +0.144 C 
BRANCH  15  17
ATOM      1  F   UNL     1      -5.969   5.554  25.490  0.00  0.00    -0.205 F 
ATOM     17  C   UNL     1      -5.353   1.472  25.555  0.00  0.00    -0.030 A 
ATOM     20  C   UNL     1      -6.494   2.015  26.147  0.00  0.00    +0.008 A 
ATOM     21  C   UNL     1      -4.420   2.308  24.942  0.00  0.00    +0.008 A 
ATOM     24  C   UNL     1      -6.702   3.394  26.124  0.00  0.00    +0.038 A 
ATOM     25  C   UNL     1      -4.629   3.688  24.920  0.00  0.00    +0.038 A 
ATOM     27  C   UNL     1      -5.770   4.230  25.510  0.00  0.00    +0.123 A 
ENDBRANCH  15  17
ENDBRANCH   7  15
TORSDOF 6
ENDMDL
MODEL 4
REMARK VINA RESULT:       6.3      3.671      7.735
REMARK  Name = 75368604
REMARK  6 active torsions:
REMARK  status: ('A' for Active; 'I' for Inactive)
REMARK    1  A    between atoms: O_3  and  C_28
REMARK    2  A    between atoms: N_6  and  C_14
REMARK    3  A    between atoms: N_7  and  C_15
REMARK    4  A    between atoms: C_14  and  C_16
REMARK    5  A    between atoms: C_15  and  C_17
REMARK    6  A    between atoms: C_26  and  C_28
REMARK                            x       y       z     vdW  Elec       q    Type
REMARK                         _______ _______ _______ _____ _____    ______ ____
ROOT
ATOM      2  O   UNL     1      -2.787  -1.083  26.902  0.00  0.00    -0.252 OA
ATOM      5  N   UNL     1      -1.752  -0.994  24.796  0.00  0.00    -0.278 N 
ATOM      6  N   UNL     1       0.228  -0.488  22.863  0.00  0.00    -0.295 NA
ATOM      7  N   UNL     1      -3.898  -0.351  24.954  0.00  0.00    -0.279 N 
ATOM      8  C   UNL     1      -2.154  -0.734  23.429  0.00  0.00    +0.109 C 
ATOM      9  C   UNL     1      -1.108   0.125  22.721  0.00  0.00    +0.109 C 
ATOM     10  C   UNL     1      -3.529  -0.083  23.575  0.00  0.00    +0.133 C 
ATOM     11  C   UNL     1      -0.406  -1.459  25.062  0.00  0.00    +0.125 C 
ATOM     12  C   UNL     1       0.604  -0.609  24.287  0.00  0.00    +0.104 C 
ATOM     13  C   UNL     1      -2.810  -0.844  25.702  0.00  0.00    +0.305 C 
ENDROOT
BRANCH   6  14
ATOM     14  C   UNL     1       1.228   0.295  22.137  0.00  0.00    +0.119 C 
BRANCH  14  16
ATOM     16  C   UNL     1       2.619   0.047  22.655  0.00  0.00    -0.033 A 
ATOM     18  C   UNL     1       3.568   1.070  22.624  0.00  0.00    +0.006 A 
ATOM     19  C   UNL     1       2.960  -1.205  23.166  0.00  0.00    +0.006 A 
ATOM     22  C   UNL     1       4.857   0.840  23.104  0.00  0.00    +0.015 A 
ATOM     23  C   UNL     1       4.249  -1.435  23.646  0.00  0.00    +0.015 A 
ATOM     26  C   UNL     1       5.198  -0.413  23.615  0.00  0.00    +0.059 A 
BRANCH  26  28
ATOM      4  O   UNL     1       6.821  -1.116  25.226  0.00  0.00    -0.245 OA
ATOM     28  C   UNL     1       6.543  -0.652  24.116  0.00  0.00    +0.337 C 
BRANCH  28   3
ATOM      3  O   UNL     1       7.502  -0.303  23.216  0.00  0.00    -0.477 OA
ATOM     29  H   UNL     1       7.295  -0.635  22.316  0.00  0.00    +0.295 HD
ENDBRANCH  28   3
ENDBRANCH  26  28
ENDBRANCH  14  16
ENDBRANCH   6  14
BRANCH   7  15
ATOM     15  C   UNL     1      -5.195   0.007  25.483  0.00  0.00    +0.144 C 
BRANCH  15  17
ATOM      1  F   UNL     1      -5.974   5.587  25.536  0.00  0.00    -0.205 F 
ATOM     17  C   UNL     1      -5.403   1.497  25.498  0.00  0.00    -0.030 A 
ATOM     20  C   UNL     1      -4.526   2.331  24.804  0.00  0.00    +0.008 A 
ATOM     21  C   UNL     1      -6.474   2.045  26.204  0.00  0.00    +0.008 A 
ATOM     24  C   UNL     1      -4.719   3.712  24.817  0.00  0.00    +0.038 A 
ATOM     25  C   UNL     1      -6.666   3.427  26.218  0.00  0.00    +0.038 A 
ATOM     27  C   UNL     1      -5.788   4.260  25.525  0.00  0.00    +0.123 A 
ENDBRANCH  15  17
ENDBRANCH   7  15
TORSDOF 6
ENDMDL
