MODEL 1
REMARK VINA RESULT:      -4.6      0.000      0.000
REMARK  Name = 11913377
REMARK  5 active torsions:
REMARK  status: ('A' for Active; 'I' for Inactive)
REMARK    1  A    between atoms: N_4  and  C_10
REMARK    2  A    between atoms: N_4  and  C_14
REMARK    3  A    between atoms: N_5  and  C_11
REMARK    4  A    between atoms: C_14  and  C_16
REMARK    5  A    between atoms: C_19  and  C_25
REMARK                            x       y       z     vdW  Elec       q    Type
REMARK                         _______ _______ _______ _____ _____    ______ ____
ROOT
ATOM      2  O   UNL     1      -0.874  -0.922  26.267  0.00  0.00    -0.370 OA
ATOM      3  O   UNL     1      -2.415  -2.569  24.103  0.00  0.00    -0.370 OA
ATOM      8  C   UNL     1      -1.838  -1.252  24.117  0.00  0.00    +0.168 C 
ATOM      9  C   UNL     1      -2.064  -0.674  25.500  0.00  0.00    +0.171 C 
ATOM     10  C   UNL     1      -0.336  -1.338  23.994  0.00  0.00    +0.111 C 
ATOM     11  C   UNL     1      -3.219  -1.477  26.052  0.00  0.00    +0.130 C 
ATOM     12  C   UNL     1       0.105  -1.551  25.428  0.00  0.00    +0.181 C 
ATOM     13  C   UNL     1      -3.050  -2.820  25.365  0.00  0.00    +0.185 C 
ENDROOT
BRANCH  11   5
ATOM      5  N   UNL     1      -4.474  -0.872  25.663  0.00  0.00    -0.306 N 
ATOM      6  N   UNL     1      -3.464   1.198  25.216  0.00  0.00    -0.214 NA
ATOM      7  N   UNL     1      -5.833   0.887  24.910  0.00  0.00    -0.223 NA
ATOM     15  C   UNL     1      -4.594   0.443  25.250  0.00  0.00    +0.216 A 
ATOM     19  C   UNL     1      -3.616   2.475  24.810  0.00  0.00    +0.076 A 
ATOM     20  C   UNL     1      -5.914   2.174  24.513  0.00  0.00    +0.116 A 
ATOM     23  C   UNL     1      -4.829   3.023  24.443  0.00  0.00    +0.048 A 
ATOM     32  H   UNL     1      -5.314  -1.439  25.633  0.00  0.00    +0.149 HD
BRANCH  19  25
ATOM      1  F   UNL     1       1.110   2.882  23.905  0.00  0.00    -0.205 F 
ATOM     25  C   UNL     1      -2.404   3.259  24.780  0.00  0.00    +0.003 A 
ATOM     26  C   UNL     1      -1.208   2.682  24.349  0.00  0.00    +0.048 A 
ATOM     27  C   UNL     1      -2.424   4.596  25.183  0.00  0.00    +0.010 A 
ATOM     28  C   UNL     1      -0.036   3.438  24.319  0.00  0.00    +0.124 A 
ATOM     29  C   UNL     1      -1.252   5.353  25.153  0.00  0.00    +0.003 A 
ATOM     30  C   UNL     1      -0.058   4.774  24.722  0.00  0.00    +0.038 A 
ENDBRANCH  19  25
ENDBRANCH  11   5
BRANCH  10   4
ATOM      4  N   UNL     1       0.198  -0.047  23.494  0.00  0.00    -0.305 NA
ATOM     31  H   UNL     1       0.690   0.419  24.256  0.00  0.00    +0.123 HD
BRANCH   4  14
ATOM     14  C   UNL     1       1.111  -0.262  22.384  0.00  0.00    +0.116 C 
BRANCH  14  16
ATOM     16  C   UNL     1       2.551  -0.200  22.822  0.00  0.00    -0.034 A 
ATOM     17  C   UNL     1       3.282   0.960  22.605  0.00  0.00    +0.005 A 
ATOM     18  C   UNL     1       3.127  -1.304  23.436  0.00  0.00    +0.005 A 
ATOM     21  C   UNL     1       4.615   1.017  23.011  0.00  0.00    +0.000 A 
ATOM     22  C   UNL     1       4.459  -1.246  23.842  0.00  0.00    +0.000 A 
ATOM     24  C   UNL     1       5.204  -0.086  23.629  0.00  0.00    +0.000 A 
ENDBRANCH  14  16
ENDBRANCH   4  14
ENDBRANCH  10   4
TORSDOF 5
ENDMDL
MODEL 2
REMARK VINA RESULT:      -2.2      2.135      4.418
REMARK  Name = 11913377
REMARK  5 active torsions:
REMARK  status: ('A' for Active; 'I' for Inactive)
REMARK    1  A    between atoms: N_4  and  C_10
REMARK    2  A    between atoms: N_4  and  C_14
REMARK    3  A    between atoms: N_5  and  C_11
REMARK    4  A    between atoms: C_14  and  C_16
REMARK    5  A    between atoms: C_19  and  C_25
REMARK                            x       y       z     vdW  Elec       q    Type
REMARK                         _______ _______ _______ _____ _____    ______ ____
ROOT
ATOM      2  O   UNL     1      -1.062   2.749  22.984  0.00  0.00    -0.370 OA
ATOM      3  O   UNL     1      -0.715   4.040  25.810  0.00  0.00    -0.370 OA
ATOM      8  C   UNL     1      -1.023   2.709  25.363  0.00  0.00    +0.168 C 
ATOM      9  C   UNL     1      -1.911   2.836  24.141  0.00  0.00    +0.171 C 
ATOM     10  C   UNL     1       0.222   2.030  24.845  0.00  0.00    +0.111 C 
ATOM     11  C   UNL     1      -2.500   4.223  24.255  0.00  0.00    +0.130 C 
ATOM     12  C   UNL     1       0.286   2.503  23.406  0.00  0.00    +0.181 C 
ATOM     13  C   UNL     1      -1.414   4.987  24.988  0.00  0.00    +0.185 C 
ENDROOT
BRANCH  11   5
ATOM      5  N   UNL     1      -3.708   4.184  25.051  0.00  0.00    -0.306 N 
ATOM      6  N   UNL     1      -3.819   1.841  24.967  0.00  0.00    -0.214 NA
ATOM      7  N   UNL     1      -5.482   3.117  26.155  0.00  0.00    -0.223 NA
ATOM     15  C   UNL     1      -4.356   3.013  25.402  0.00  0.00    +0.216 A 
ATOM     19  C   UNL     1      -4.476   0.720  25.326  0.00  0.00    +0.076 A 
ATOM     20  C   UNL     1      -6.088   1.956  26.479  0.00  0.00    +0.116 A 
ATOM     23  C   UNL     1      -5.626   0.715  26.089  0.00  0.00    +0.048 A 
ATOM     32  H   UNL     1      -4.087   5.046  25.425  0.00  0.00    +0.149 HD
BRANCH  19  25
ATOM      1  F   UNL     1      -0.880  -2.504  25.341  0.00  0.00    -0.205 F 
ATOM     25  C   UNL     1      -3.889  -0.513  24.855  0.00  0.00    +0.003 A 
ATOM     26  C   UNL     1      -2.642  -0.923  25.334  0.00  0.00    +0.048 A 
ATOM     27  C   UNL     1      -4.565  -1.299  23.920  0.00  0.00    +0.010 A 
ATOM     28  C   UNL     1      -2.075  -2.113  24.880  0.00  0.00    +0.124 A 
ATOM     29  C   UNL     1      -3.998  -2.489  23.465  0.00  0.00    +0.003 A 
ATOM     30  C   UNL     1      -2.753  -2.897  23.945  0.00  0.00    +0.038 A 
ENDBRANCH  19  25
ENDBRANCH  11   5
BRANCH  10   4
ATOM      4  N   UNL     1       0.038   0.559  24.879  0.00  0.00    -0.305 NA
ATOM     31  H   UNL     1      -0.946   0.356  25.054  0.00  0.00    +0.123 HD
BRANCH   4  14
ATOM     14  C   UNL     1       0.442  -0.040  23.617  0.00  0.00    +0.116 C 
BRANCH  14  16
ATOM     16  C   UNL     1       1.940  -0.090  23.473  0.00  0.00    -0.034 A 
ATOM     17  C   UNL     1       2.610   0.998  22.931  0.00  0.00    +0.005 A 
ATOM     18  C   UNL     1       2.629  -1.223  23.882  0.00  0.00    +0.005 A 
ATOM     21  C   UNL     1       3.998   0.952  22.798  0.00  0.00    +0.000 A 
ATOM     22  C   UNL     1       4.016  -1.269  23.748  0.00  0.00    +0.000 A 
ATOM     24  C   UNL     1       4.701  -0.181  23.205  0.00  0.00    +0.000 A 
ENDBRANCH  14  16
ENDBRANCH   4  14
ENDBRANCH  10   4
TORSDOF 5
ENDMDL
MODEL 3
REMARK VINA RESULT:      -1.3      2.404      4.644
REMARK  Name = 11913377
REMARK  5 active torsions:
REMARK  status: ('A' for Active; 'I' for Inactive)
REMARK    1  A    between atoms: N_4  and  C_10
REMARK    2  A    between atoms: N_4  and  C_14
REMARK    3  A    between atoms: N_5  and  C_11
REMARK    4  A    between atoms: C_14  and  C_16
REMARK    5  A    between atoms: C_19  and  C_25
REMARK                            x       y       z     vdW  Elec       q    Type
REMARK                         _______ _______ _______ _____ _____    ______ ____
ROOT
ATOM      2  O   UNL     1      -1.079   2.743  23.003  0.00  0.00    -0.370 OA
ATOM      3  O   UNL     1      -0.743   4.054  25.821  0.00  0.00    -0.370 OA
ATOM      8  C   UNL     1      -1.075   2.725  25.382  0.00  0.00    +0.168 C 
ATOM      9  C   UNL     1      -1.943   2.861  24.146  0.00  0.00    +0.171 C 
ATOM     10  C   UNL     1       0.161   2.013  24.890  0.00  0.00    +0.111 C 
ATOM     11  C   UNL     1      -2.501   4.262  24.238  0.00  0.00    +0.130 C 
ATOM     12  C   UNL     1       0.257   2.470  23.447  0.00  0.00    +0.181 C 
ATOM     13  C   UNL     1      -1.408   5.008  24.980  0.00  0.00    +0.185 C 
ENDROOT
BRANCH  11   5
ATOM      5  N   UNL     1      -3.721   4.258  25.017  0.00  0.00    -0.306 N 
ATOM      6  N   UNL     1      -3.850   1.915  25.008  0.00  0.00    -0.214 NA
ATOM      7  N   UNL     1      -5.519   3.242  26.129  0.00  0.00    -0.223 NA
ATOM     15  C   UNL     1      -4.383   3.104  25.397  0.00  0.00    +0.216 A 
ATOM     19  C   UNL     1      -4.521   0.811  25.395  0.00  0.00    +0.076 A 
ATOM     20  C   UNL     1      -6.140   2.097  26.482  0.00  0.00    +0.116 A 
ATOM     23  C   UNL     1      -5.682   0.840  26.140  0.00  0.00    +0.048 A 
ATOM     32  H   UNL     1      -4.098   5.135  25.357  0.00  0.00    +0.149 HD
BRANCH  19  25
ATOM      1  F   UNL     1      -4.625  -3.172  22.665  0.00  0.00    -0.205 F 
ATOM     25  C   UNL     1      -3.938  -0.441  24.973  0.00  0.00    +0.003 A 
ATOM     26  C   UNL     1      -4.575  -1.219  24.003  0.00  0.00    +0.048 A 
ATOM     27  C   UNL     1      -2.736  -0.879  25.534  0.00  0.00    +0.010 A 
ATOM     28  C   UNL     1      -4.012  -2.428  23.595  0.00  0.00    +0.124 A 
ATOM     29  C   UNL     1      -2.173  -2.088  25.126  0.00  0.00    +0.003 A 
ATOM     30  C   UNL     1      -2.811  -2.864  24.157  0.00  0.00    +0.038 A 
ENDBRANCH  19  25
ENDBRANCH  11   5
BRANCH  10   4
ATOM      4  N   UNL     1      -0.056   0.547  24.935  0.00  0.00    -0.305 NA
ATOM     31  H   UNL     1      -1.043   0.369  25.121  0.00  0.00    +0.123 HD
BRANCH   4  14
ATOM     14  C   UNL     1       0.320  -0.070  23.673  0.00  0.00    +0.116 C 
BRANCH  14  16
ATOM     16  C   UNL     1       1.814  -0.102  23.487  0.00  0.00    -0.034 A 
ATOM     17  C   UNL     1       2.529  -1.217  23.899  0.00  0.00    +0.005 A 
ATOM     18  C   UNL     1       2.453   0.985  22.907  0.00  0.00    +0.005 A 
ATOM     21  C   UNL     1       3.914  -1.247  23.727  0.00  0.00    +0.000 A 
ATOM     22  C   UNL     1       3.837   0.955  22.735  0.00  0.00    +0.000 A 
ATOM     24  C   UNL     1       4.568  -0.160  23.145  0.00  0.00    +0.000 A 
ENDBRANCH  14  16
ENDBRANCH   4  14
ENDBRANCH  10   4
TORSDOF 5
ENDMDL
