MODEL 1
REMARK VINA RESULT:      -1.2      0.000      0.000
REMARK  Name = 11912185
REMARK  6 active torsions:
REMARK  status: ('A' for Active; 'I' for Inactive)
REMARK    1  A    between atoms: O_4  and  C_19
REMARK    2  A    between atoms: O_4  and  C_26
REMARK    3  A    between atoms: N_7  and  C_13
REMARK    4  A    between atoms: N_8  and  C_14
REMARK    5  A    between atoms: C_18  and  C_19
REMARK    6  A    between atoms: C_20  and  C_23
REMARK                            x       y       z     vdW  Elec       q    Type
REMARK                         _______ _______ _______ _____ _____    ______ ____
ROOT
ATOM      7  N   UNL     1      -5.244  -0.189  24.343  0.00  0.00    -0.306 N 
ATOM      9  N   UNL     1      -2.908  -0.261  24.132  0.00  0.00    -0.214 NA
ATOM     10  N   UNL     1      -4.158  -2.233  24.728  0.00  0.00    -0.223 NA
ATOM     17  C   UNL     1      -4.068  -0.916  24.403  0.00  0.00    +0.216 A 
ATOM     20  C   UNL     1      -1.781  -1.000  24.200  0.00  0.00    +0.076 A 
ATOM     21  C   UNL     1      -2.993  -2.911  24.778  0.00  0.00    +0.116 A 
ATOM     22  C   UNL     1      -1.762  -2.342  24.521  0.00  0.00    +0.048 A 
ATOM     31  H   UNL     1      -6.096  -0.674  24.598  0.00  0.00    +0.149 HD
ENDROOT
BRANCH  20  23
ATOM      5  O   UNL     1       2.922  -0.773  22.853  0.00  0.00    -0.453 OA
ATOM      6  O   UNL     1       2.975   1.627  23.057  0.00  0.00    -0.453 OA
ATOM     23  C   UNL     1      -0.561  -0.286  23.910  0.00  0.00    +0.004 A 
ATOM     24  C   UNL     1       0.581  -0.988  23.513  0.00  0.00    +0.059 A 
ATOM     25  C   UNL     1      -0.527   1.118  24.029  0.00  0.00    +0.014 A 
ATOM     27  C   UNL     1       1.724  -0.262  23.248  0.00  0.00    +0.167 A 
ATOM     28  C   UNL     1       1.754   1.109  23.363  0.00  0.00    +0.166 A 
ATOM     29  C   UNL     1       0.644   1.829  23.753  0.00  0.00    +0.050 A 
ATOM     30  C   UNL     1       3.709   0.429  22.735  0.00  0.00    +0.466 C 
ENDBRANCH  20  23
BRANCH   7  13
ATOM      1  O   UNL     1      -5.564   2.350  26.084  0.00  0.00    -0.370 OA
ATOM      2  O   UNL     1      -3.821   3.091  23.604  0.00  0.00    -0.370 OA
ATOM     11  C   UNL     1      -3.988   1.882  24.365  0.00  0.00    +0.171 C 
ATOM     12  C   UNL     1      -4.153   2.284  25.817  0.00  0.00    +0.171 C 
ATOM     13  C   UNL     1      -5.298   1.218  24.012  0.00  0.00    +0.130 C 
ATOM     14  C   UNL     1      -3.540   3.663  25.890  0.00  0.00    +0.130 C 
ATOM     15  C   UNL     1      -6.286   1.933  24.915  0.00  0.00    +0.185 C 
ATOM     16  C   UNL     1      -3.808   4.213  24.501  0.00  0.00    +0.185 C 
BRANCH  14   8
ATOM      3  O   UNL     1      -1.434   5.229  24.658  0.00  0.00    -0.273 OA
ATOM      8  N   UNL     1      -2.124   3.591  26.160  0.00  0.00    -0.306 N 
ATOM     18  C   UNL     1      -1.185   4.386  25.515  0.00  0.00    +0.239 C 
ATOM     32  H   UNL     1      -1.810   2.961  26.893  0.00  0.00    +0.149 HD
BRANCH  18  19
ATOM     19  C   UNL     1       0.220   4.096  25.996  0.00  0.00    +0.255 C 
BRANCH  19   4
ATOM      4  O   UNL     1       0.287   2.821  26.600  0.00  0.00    -0.374 OA
ATOM     26  C   UNL     1       1.217   2.792  27.679  0.00  0.00    +0.194 C 
ENDBRANCH  19   4
ENDBRANCH  18  19
ENDBRANCH  14   8
ENDBRANCH   7  13
TORSDOF 5
ENDMDL
MODEL 2
REMARK VINA RESULT:       0.7      1.143      1.608
REMARK  Name = 11912185
REMARK  6 active torsions:
REMARK  status: ('A' for Active; 'I' for Inactive)
REMARK    1  A    between atoms: O_4  and  C_19
REMARK    2  A    between atoms: O_4  and  C_26
REMARK    3  A    between atoms: N_7  and  C_13
REMARK    4  A    between atoms: N_8  and  C_14
REMARK    5  A    between atoms: C_18  and  C_19
REMARK    6  A    between atoms: C_20  and  C_23
REMARK                            x       y       z     vdW  Elec       q    Type
REMARK                         _______ _______ _______ _____ _____    ______ ____
ROOT
ATOM      7  N   UNL     1      -4.648   0.399  24.724  0.00  0.00    -0.306 N 
ATOM      9  N   UNL     1      -2.483  -0.201  24.048  0.00  0.00    -0.214 NA
ATOM     10  N   UNL     1      -3.905  -1.778  25.186  0.00  0.00    -0.223 NA
ATOM     17  C   UNL     1      -3.649  -0.555  24.651  0.00  0.00    +0.216 A 
ATOM     20  C   UNL     1      -1.530  -1.155  23.995  0.00  0.00    +0.076 A 
ATOM     21  C   UNL     1      -2.909  -2.684  25.099  0.00  0.00    +0.116 A 
ATOM     22  C   UNL     1      -1.688  -2.427  24.508  0.00  0.00    +0.048 A 
ATOM     31  H   UNL     1      -5.493   0.141  25.220  0.00  0.00    +0.149 HD
ENDROOT
BRANCH  20  23
ATOM      5  O   UNL     1       2.709   1.293  23.827  0.00  0.00    -0.453 OA
ATOM      6  O   UNL     1       3.231   0.448  21.631  0.00  0.00    -0.453 OA
ATOM     23  C   UNL     1      -0.300  -0.759  23.353  0.00  0.00    +0.004 A 
ATOM     24  C   UNL     1       0.579   0.111  24.005  0.00  0.00    +0.059 A 
ATOM     25  C   UNL     1       0.008  -1.251  22.069  0.00  0.00    +0.014 A 
ATOM     27  C   UNL     1       1.742   0.462  23.349  0.00  0.00    +0.167 A 
ATOM     28  C   UNL     1       2.041  -0.021  22.096  0.00  0.00    +0.166 A 
ATOM     29  C   UNL     1       1.193  -0.880  21.428  0.00  0.00    +0.050 A 
ATOM     30  C   UNL     1       3.648   1.279  22.733  0.00  0.00    +0.466 C 
ENDBRANCH  20  23
BRANCH   7  13
ATOM      1  O   UNL     1      -4.671   3.181  26.080  0.00  0.00    -0.370 OA
ATOM      2  O   UNL     1      -2.799   3.336  23.588  0.00  0.00    -0.370 OA
ATOM     11  C   UNL     1      -3.135   2.278  24.503  0.00  0.00    +0.171 C 
ATOM     12  C   UNL     1      -3.276   2.901  25.878  0.00  0.00    +0.171 C 
ATOM     13  C   UNL     1      -4.513   1.740  24.198  0.00  0.00    +0.130 C 
ATOM     14  C   UNL     1      -2.491   4.189  25.781  0.00  0.00    +0.130 C 
ATOM     15  C   UNL     1      -5.418   2.694  24.954  0.00  0.00    +0.185 C 
ATOM     16  C   UNL     1      -2.658   4.563  24.319  0.00  0.00    +0.185 C 
BRANCH  14   8
ATOM      3  O   UNL     1      -1.159   1.657  26.244  0.00  0.00    -0.273 OA
ATOM      8  N   UNL     1      -1.102   3.979  26.111  0.00  0.00    -0.306 N 
ATOM     18  C   UNL     1      -0.550   2.721  26.316  0.00  0.00    +0.239 C 
ATOM     32  H   UNL     1      -0.492   4.791  26.144  0.00  0.00    +0.149 HD
BRANCH  18  19
ATOM     19  C   UNL     1       0.924   2.802  26.646  0.00  0.00    +0.255 C 
BRANCH  19   4
ATOM      4  O   UNL     1       1.155   2.427  27.989  0.00  0.00    -0.374 OA
ATOM     26  C   UNL     1       2.339   3.023  28.511  0.00  0.00    +0.194 C 
ENDBRANCH  19   4
ENDBRANCH  18  19
ENDBRANCH  14   8
ENDBRANCH   7  13
TORSDOF 5
ENDMDL
MODEL 3
REMARK VINA RESULT:       1.2      2.552      5.488
REMARK  Name = 11912185
REMARK  6 active torsions:
REMARK  status: ('A' for Active; 'I' for Inactive)
REMARK    1  A    between atoms: O_4  and  C_19
REMARK    2  A    between atoms: O_4  and  C_26
REMARK    3  A    between atoms: N_7  and  C_13
REMARK    4  A    between atoms: N_8  and  C_14
REMARK    5  A    between atoms: C_18  and  C_19
REMARK    6  A    between atoms: C_20  and  C_23
REMARK                            x       y       z     vdW  Elec       q    Type
REMARK                         _______ _______ _______ _____ _____    ______ ____
ROOT
ATOM      7  N   UNL     1      -3.602   4.764  24.681  0.00  0.00    -0.306 N 
ATOM      9  N   UNL     1      -4.047   2.478  24.964  0.00  0.00    -0.214 NA
ATOM     10  N   UNL     1      -5.645   4.144  25.654  0.00  0.00    -0.223 NA
ATOM     17  C   UNL     1      -4.457   3.766  25.113  0.00  0.00    +0.216 A 
ATOM     20  C   UNL     1      -4.905   1.530  25.396  0.00  0.00    +0.076 A 
ATOM     21  C   UNL     1      -6.453   3.146  26.065  0.00  0.00    +0.116 A 
ATOM     22  C   UNL     1      -6.134   1.807  25.960  0.00  0.00    +0.048 A 
ATOM     31  H   UNL     1      -3.895   5.721  24.845  0.00  0.00    +0.149 HD
ENDROOT
BRANCH  20  23
ATOM      5  O   UNL     1      -4.392  -2.612  22.834  0.00  0.00    -0.453 OA
ATOM      6  O   UNL     1      -3.214  -3.703  24.631  0.00  0.00    -0.453 OA
ATOM     23  C   UNL     1      -4.450   0.170  25.230  0.00  0.00    +0.004 A 
ATOM     24  C   UNL     1      -4.696  -0.506  24.031  0.00  0.00    +0.059 A 
ATOM     25  C   UNL     1      -3.762  -0.470  26.279  0.00  0.00    +0.014 A 
ATOM     27  C   UNL     1      -4.244  -1.805  23.920  0.00  0.00    +0.167 A 
ATOM     28  C   UNL     1      -3.570  -2.427  24.945  0.00  0.00    +0.166 A 
ATOM     29  C   UNL     1      -3.314  -1.786  26.140  0.00  0.00    +0.050 A 
ATOM     30  C   UNL     1      -3.737  -3.812  23.292  0.00  0.00    +0.466 C 
ENDBRANCH  20  23
BRANCH   7  13
ATOM      1  O   UNL     1      -0.813   4.236  25.915  0.00  0.00    -0.370 OA
ATOM      2  O   UNL     1      -0.990   2.673  23.219  0.00  0.00    -0.370 OA
ATOM     11  C   UNL     1      -1.965   3.042  24.210  0.00  0.00    +0.171 C 
ATOM     12  C   UNL     1      -1.295   2.928  25.565  0.00  0.00    +0.171 C 
ATOM     13  C   UNL     1      -2.308   4.508  24.088  0.00  0.00    +0.130 C 
ATOM     14  C   UNL     1      -0.136   1.988  25.324  0.00  0.00    +0.130 C 
ATOM     15  C   UNL     1      -1.215   5.173  24.904  0.00  0.00    +0.185 C 
ATOM     16  C   UNL     1       0.222   2.276  23.878  0.00  0.00    +0.185 C 
BRANCH  14   8
ATOM      3  O   UNL     1       0.365  -0.230  23.527  0.00  0.00    -0.273 OA
ATOM      8  N   UNL     1      -0.535   0.612  25.500  0.00  0.00    -0.306 N 
ATOM     18  C   UNL     1      -0.248  -0.387  24.579  0.00  0.00    +0.239 C 
ATOM     32  H   UNL     1      -1.005   0.359  26.366  0.00  0.00    +0.149 HD
BRANCH  18  19
ATOM     19  C   UNL     1      -0.786  -1.730  25.022  0.00  0.00    +0.255 C 
BRANCH  19   4
ATOM      4  O   UNL     1       0.034  -2.288  26.028  0.00  0.00    -0.374 OA
ATOM     26  C   UNL     1       0.889  -3.305  25.514  0.00  0.00    +0.194 C 
ENDBRANCH  19   4
ENDBRANCH  18  19
ENDBRANCH  14   8
ENDBRANCH   7  13
TORSDOF 5
ENDMDL
MODEL 4
REMARK VINA RESULT:       1.9      1.798      5.750
REMARK  Name = 11912185
REMARK  6 active torsions:
REMARK  status: ('A' for Active; 'I' for Inactive)
REMARK    1  A    between atoms: O_4  and  C_19
REMARK    2  A    between atoms: O_4  and  C_26
REMARK    3  A    between atoms: N_7  and  C_13
REMARK    4  A    between atoms: N_8  and  C_14
REMARK    5  A    between atoms: C_18  and  C_19
REMARK    6  A    between atoms: C_20  and  C_23
REMARK                            x       y       z     vdW  Elec       q    Type
REMARK                         _______ _______ _______ _____ _____    ______ ____
ROOT
ATOM      7  N   UNL     1      -0.694  -2.137  24.513  0.00  0.00    -0.306 N 
ATOM      9  N   UNL     1      -2.676  -0.893  24.684  0.00  0.00    -0.214 NA
ATOM     10  N   UNL     1      -2.721  -3.208  24.018  0.00  0.00    -0.223 NA
ATOM     17  C   UNL     1      -2.072  -2.078  24.401  0.00  0.00    +0.216 A 
ATOM     20  C   UNL     1      -4.020  -0.870  24.564  0.00  0.00    +0.076 A 
ATOM     21  C   UNL     1      -4.064  -3.115  23.918  0.00  0.00    +0.116 A 
ATOM     22  C   UNL     1      -4.774  -1.961  24.182  0.00  0.00    +0.048 A 
ATOM     31  H   UNL     1      -0.250  -3.009  24.250  0.00  0.00    +0.149 HD
ENDROOT
BRANCH  20  23
ATOM      5  O   UNL     1      -3.971   3.698  26.329  0.00  0.00    -0.453 OA
ATOM      6  O   UNL     1      -6.294   4.045  25.787  0.00  0.00    -0.453 OA
ATOM     23  C   UNL     1      -4.642   0.397  24.868  0.00  0.00    +0.004 A 
ATOM     24  C   UNL     1      -3.896   1.412  25.474  0.00  0.00    +0.059 A 
ATOM     25  C   UNL     1      -5.999   0.602  24.553  0.00  0.00    +0.014 A 
ATOM     27  C   UNL     1      -4.535   2.605  25.745  0.00  0.00    +0.167 A 
ATOM     28  C   UNL     1      -5.860   2.804  25.435  0.00  0.00    +0.166 A 
ATOM     29  C   UNL     1      -6.622   1.820  24.838  0.00  0.00    +0.050 A 
ATOM     30  C   UNL     1      -5.091   4.606  26.351  0.00  0.00    +0.466 C 
ENDBRANCH  20  23
BRANCH   7  13
ATOM      1  O   UNL     1       0.690   0.106  22.891  0.00  0.00    -0.370 OA
ATOM      2  O   UNL     1      -0.096   1.272  25.677  0.00  0.00    -0.370 OA
ATOM     11  C   UNL     1      -0.678   0.265  24.831  0.00  0.00    +0.171 C 
ATOM     12  C   UNL     1      -0.504   0.726  23.398  0.00  0.00    +0.171 C 
ATOM     13  C   UNL     1       0.125  -1.013  24.910  0.00  0.00    +0.130 C 
ATOM     14  C   UNL     1      -0.312   2.221  23.513  0.00  0.00    +0.130 C 
ATOM     15  C   UNL     1       1.223  -0.777  23.889  0.00  0.00    +0.185 C 
ATOM     16  C   UNL     1       0.369   2.359  24.863  0.00  0.00    +0.185 C 
BRANCH  14   8
ATOM      3  O   UNL     1      -2.463   1.891  21.599  0.00  0.00    -0.273 OA
ATOM      8  N   UNL     1      -1.578   2.912  23.493  0.00  0.00    -0.306 N 
ATOM     18  C   UNL     1      -2.553   2.686  22.530  0.00  0.00    +0.239 C 
ATOM     32  H   UNL     1      -1.781   3.558  24.251  0.00  0.00    +0.149 HD
BRANCH  18  19
ATOM     19  C   UNL     1      -3.775   3.550  22.756  0.00  0.00    +0.255 C 
BRANCH  19   4
ATOM      4  O   UNL     1      -3.473   4.624  23.622  0.00  0.00    -0.374 OA
ATOM     26  C   UNL     1      -4.030   5.851  23.160  0.00  0.00    +0.194 C 
ENDBRANCH  19   4
ENDBRANCH  18  19
ENDBRANCH  14   8
ENDBRANCH   7  13
TORSDOF 5
ENDMDL
MODEL 5
REMARK VINA RESULT:       2.0      2.217      5.242
REMARK  Name = 11912185
REMARK  6 active torsions:
REMARK  status: ('A' for Active; 'I' for Inactive)
REMARK    1  A    between atoms: O_4  and  C_19
REMARK    2  A    between atoms: O_4  and  C_26
REMARK    3  A    between atoms: N_7  and  C_13
REMARK    4  A    between atoms: N_8  and  C_14
REMARK    5  A    between atoms: C_18  and  C_19
REMARK    6  A    between atoms: C_20  and  C_23
REMARK                            x       y       z     vdW  Elec       q    Type
REMARK                         _______ _______ _______ _____ _____    ______ ____
ROOT
ATOM      7  N   UNL     1      -4.807   0.709  24.855  0.00  0.00    -0.306 N 
ATOM      9  N   UNL     1      -2.936   1.853  25.687  0.00  0.00    -0.214 NA
ATOM     10  N   UNL     1      -4.827   3.054  24.801  0.00  0.00    -0.223 NA
ATOM     17  C   UNL     1      -4.171   1.908  25.122  0.00  0.00    +0.216 A 
ATOM     20  C   UNL     1      -2.344   3.040  25.934  0.00  0.00    +0.076 A 
ATOM     21  C   UNL     1      -4.177   4.205  25.074  0.00  0.00    +0.116 A 
ATOM     22  C   UNL     1      -2.922   4.260  25.646  0.00  0.00    +0.048 A 
ATOM     31  H   UNL     1      -5.704   0.761  24.386  0.00  0.00    +0.149 HD
ENDROOT
BRANCH  20  23
ATOM      5  O   UNL     1       0.680   2.559  29.756  0.00  0.00    -0.453 OA
ATOM      6  O   UNL     1       2.639   2.721  28.362  0.00  0.00    -0.453 OA
ATOM     23  C   UNL     1      -1.033   2.960  26.533  0.00  0.00    +0.004 A 
ATOM     24  C   UNL     1      -0.907   2.791  27.915  0.00  0.00    +0.059 A 
ATOM     25  C   UNL     1       0.114   3.054  25.720  0.00  0.00    +0.014 A 
ATOM     27  C   UNL     1       0.367   2.721  28.441  0.00  0.00    +0.167 A 
ATOM     28  C   UNL     1       1.485   2.811  27.645  0.00  0.00    +0.166 A 
ATOM     29  C   UNL     1       1.392   2.979  26.279  0.00  0.00    +0.050 A 
ATOM     30  C   UNL     1       2.121   2.560  29.698  0.00  0.00    +0.466 C 
ENDBRANCH  20  23
BRANCH   7  13
ATOM      1  O   UNL     1      -3.336  -1.355  23.079  0.00  0.00    -0.370 OA
ATOM      2  O   UNL     1      -2.174  -1.562  25.969  0.00  0.00    -0.370 OA
ATOM     11  C   UNL     1      -2.723  -0.475  25.203  0.00  0.00    +0.171 C 
ATOM     12  C   UNL     1      -2.278  -0.667  23.767  0.00  0.00    +0.171 C 
ATOM     13  C   UNL     1      -4.228  -0.585  25.142  0.00  0.00    +0.130 C 
ATOM     14  C   UNL     1      -1.058  -1.553  23.875  0.00  0.00    +0.130 C 
ATOM     15  C   UNL     1      -4.445  -1.529  23.974  0.00  0.00    +0.185 C 
ATOM     16  C   UNL     1      -1.363  -2.380  25.111  0.00  0.00    +0.185 C 
BRANCH  14   8
ATOM      3  O   UNL     1       0.607  -0.392  21.805  0.00  0.00    -0.273 OA
ATOM      8  N   UNL     1       0.141  -0.770  24.053  0.00  0.00    -0.306 N 
ATOM     18  C   UNL     1       0.876  -0.252  22.995  0.00  0.00    +0.239 C 
ATOM     32  H   UNL     1       0.429  -0.547  25.003  0.00  0.00    +0.149 HD
BRANCH  18  19
ATOM     19  C   UNL     1       2.082   0.526  23.476  0.00  0.00    +0.255 C 
BRANCH  19   4
ATOM      4  O   UNL     1       3.094   0.536  22.491  0.00  0.00    -0.374 OA
ATOM     26  C   UNL     1       4.396   0.545  23.067  0.00  0.00    +0.194 C 
ENDBRANCH  19   4
ENDBRANCH  18  19
ENDBRANCH  14   8
ENDBRANCH   7  13
TORSDOF 5
ENDMDL
