MODEL 1
REMARK VINA RESULT:      -3.9      0.000      0.000
REMARK  Name = 75536859
REMARK  4 active torsions:
REMARK  status: ('A' for Active; 'I' for Inactive)
REMARK    1  A    between atoms: O_5  and  C_11
REMARK    2  A    between atoms: O_5  and  C_17
REMARK    3  A    between atoms: C_16  and  C_18
REMARK    4  A    between atoms: C_22  and  C_24
REMARK                            x       y       z     vdW  Elec       q    Type
REMARK                         _______ _______ _______ _____ _____    ______ ____
ROOT
ATOM      4  O   UNL     1      -4.663  -2.752  23.873  0.00  0.00    -0.375 OA
ATOM      6  O   UNL     1      -0.131  -2.087  25.400  0.00  0.00    -0.268 OA
ATOM      7  N   UNL     1      -2.335  -1.290  25.380  0.00  0.00    -0.290 N 
ATOM     11  C   UNL     1      -4.680  -0.485  24.774  0.00  0.00    +0.218 C 
ATOM     12  C   UNL     1      -3.256  -0.157  25.232  0.00  0.00    +0.155 C 
ATOM     13  C   UNL     1      -2.901  -2.627  25.570  0.00  0.00    +0.136 C 
ATOM     14  C   UNL     1      -4.723  -1.370  23.531  0.00  0.00    +0.206 C 
ATOM     15  C   UNL     1      -3.369  -3.216  24.245  0.00  0.00    +0.179 C 
ATOM     16  C   UNL     1      -0.938  -1.162  25.312  0.00  0.00    +0.267 C 
ENDROOT
BRANCH  16  18
ATOM      9  N   UNL     1      -0.505   1.045  26.148  0.00  0.00    -0.247 NA
ATOM     10  N   UNL     1       0.791   1.762  23.766  0.00  0.00    -0.259 NA
ATOM     18  C   UNL     1      -0.368   0.182  25.123  0.00  0.00    +0.144 A 
ATOM     20  C   UNL     1       0.268   0.534  23.953  0.00  0.00    +0.143 A 
ATOM     25  C   UNL     1       0.018   2.274  25.963  0.00  0.00    +0.131 A 
ATOM     26  C   UNL     1       0.655   2.625  24.793  0.00  0.00    +0.130 A 
ENDBRANCH  16  18
BRANCH  11   5
ATOM      5  O   UNL     1      -5.315   0.761  24.480  0.00  0.00    -0.469 OA
BRANCH   5  17
ATOM      8  N   UNL     1      -3.586   2.058  23.642  0.00  0.00    -0.221 NA
ATOM     17  C   UNL     1      -4.538   1.882  24.584  0.00  0.00    +0.215 A 
ATOM     19  C   UNL     1      -4.766   2.761  25.631  0.00  0.00    +0.068 A 
ATOM     21  C   UNL     1      -3.963   3.894  25.716  0.00  0.00    +0.019 A 
ATOM     22  C   UNL     1      -2.972   4.109  24.764  0.00  0.00    +0.073 A 
ATOM     23  C   UNL     1      -2.825   3.170  23.756  0.00  0.00    +0.127 A 
BRANCH  22  24
ATOM      1  F   UNL     1      -0.784   5.051  24.552  0.00  0.00    -0.166 F 
ATOM      2  F   UNL     1      -2.453   6.298  23.951  0.00  0.00    -0.166 F 
ATOM      3  F   UNL     1      -2.098   5.901  26.059  0.00  0.00    -0.166 F 
ATOM     24  C   UNL     1      -2.097   5.310  24.827  0.00  0.00    +0.419 C 
ENDBRANCH  22  24
ENDBRANCH   5  17
ENDBRANCH  11   5
TORSDOF 4
ENDMDL
MODEL 2
REMARK VINA RESULT:      -3.5      3.761      6.668
REMARK  Name = 75536859
REMARK  4 active torsions:
REMARK  status: ('A' for Active; 'I' for Inactive)
REMARK    1  A    between atoms: O_5  and  C_11
REMARK    2  A    between atoms: O_5  and  C_17
REMARK    3  A    between atoms: C_16  and  C_18
REMARK    4  A    between atoms: C_22  and  C_24
REMARK                            x       y       z     vdW  Elec       q    Type
REMARK                         _______ _______ _______ _____ _____    ______ ____
ROOT
ATOM      4  O   UNL     1       0.743   3.275  23.884  0.00  0.00    -0.375 OA
ATOM      6  O   UNL     1      -3.704   5.147  24.059  0.00  0.00    -0.268 OA
ATOM      7  N   UNL     1      -2.079   3.838  25.126  0.00  0.00    -0.290 N 
ATOM     11  C   UNL     1      -0.295   2.129  25.771  0.00  0.00    +0.218 C 
ATOM     12  C   UNL     1      -1.744   2.617  25.869  0.00  0.00    +0.155 C 
ATOM     13  C   UNL     1      -0.996   4.755  24.770  0.00  0.00    +0.136 C 
ATOM     14  C   UNL     1       0.211   2.033  24.334  0.00  0.00    +0.206 C 
ATOM     15  C   UNL     1      -0.234   4.255  23.549  0.00  0.00    +0.179 C 
ATOM     16  C   UNL     1      -3.383   4.152  24.709  0.00  0.00    +0.267 C 
ENDROOT
BRANCH  16  18
ATOM      9  N   UNL     1      -4.675   2.184  24.243  0.00  0.00    -0.247 NA
ATOM     10  N   UNL     1      -6.247   2.600  26.529  0.00  0.00    -0.259 NA
ATOM     18  C   UNL     1      -4.473   3.231  25.068  0.00  0.00    +0.144 A 
ATOM     20  C   UNL     1      -5.245   3.435  26.191  0.00  0.00    +0.143 A 
ATOM     25  C   UNL     1      -5.678   1.349  24.581  0.00  0.00    +0.131 A 
ATOM     26  C   UNL     1      -6.449   1.554  25.704  0.00  0.00    +0.130 A 
ENDBRANCH  16  18
BRANCH  11   5
ATOM      5  O   UNL     1      -0.257   0.830  26.366  0.00  0.00    -0.469 OA
BRANCH   5  17
ATOM      8  N   UNL     1      -0.502  -1.060  25.047  0.00  0.00    -0.221 NA
ATOM     17  C   UNL     1      -1.081  -0.115  25.821  0.00  0.00    +0.215 A 
ATOM     19  C   UNL     1      -2.440  -0.057  26.089  0.00  0.00    +0.068 A 
ATOM     21  C   UNL     1      -3.257  -1.029  25.524  0.00  0.00    +0.019 A 
ATOM     22  C   UNL     1      -2.698  -2.018  24.720  0.00  0.00    +0.073 A 
ATOM     23  C   UNL     1      -1.328  -1.989  24.514  0.00  0.00    +0.127 A 
BRANCH  22  24
ATOM      1  F   UNL     1      -4.607  -2.582  23.394  0.00  0.00    -0.166 F 
ATOM      2  F   UNL     1      -2.873  -3.871  23.218  0.00  0.00    -0.166 F 
ATOM      3  F   UNL     1      -4.086  -3.924  25.022  0.00  0.00    -0.166 F 
ATOM     24  C   UNL     1      -3.545  -3.072  24.101  0.00  0.00    +0.419 C 
ENDBRANCH  22  24
ENDBRANCH   5  17
ENDBRANCH  11   5
TORSDOF 4
ENDMDL
MODEL 3
REMARK VINA RESULT:      -3.4      3.605      5.588
REMARK  Name = 75536859
REMARK  4 active torsions:
REMARK  status: ('A' for Active; 'I' for Inactive)
REMARK    1  A    between atoms: O_5  and  C_11
REMARK    2  A    between atoms: O_5  and  C_17
REMARK    3  A    between atoms: C_16  and  C_18
REMARK    4  A    between atoms: C_22  and  C_24
REMARK                            x       y       z     vdW  Elec       q    Type
REMARK                         _______ _______ _______ _____ _____    ______ ____
ROOT
ATOM      4  O   UNL     1      -3.948   4.857  26.391  0.00  0.00    -0.375 OA
ATOM      6  O   UNL     1       0.627   3.588  25.514  0.00  0.00    -0.268 OA
ATOM      7  N   UNL     1      -1.604   3.519  24.798  0.00  0.00    -0.290 N 
ATOM     11  C   UNL     1      -4.132   3.248  24.566  0.00  0.00    +0.218 C 
ATOM     12  C   UNL     1      -2.722   2.738  24.255  0.00  0.00    +0.155 C 
ATOM     13  C   UNL     1      -1.840   4.921  25.147  0.00  0.00    +0.136 C 
ATOM     14  C   UNL     1      -4.354   3.535  26.049  0.00  0.00    +0.206 C 
ATOM     15  C   UNL     1      -2.540   5.038  26.495  0.00  0.00    +0.179 C 
ATOM     16  C   UNL     1      -0.329   2.979  25.032  0.00  0.00    +0.267 C 
ENDROOT
BRANCH  16  18
ATOM      9  N   UNL     1       0.711   1.340  23.622  0.00  0.00    -0.247 NA
ATOM     10  N   UNL     1      -0.457  -0.750  25.083  0.00  0.00    -0.259 NA
ATOM     18  C   UNL     1      -0.091   1.570  24.680  0.00  0.00    +0.144 A 
ATOM     20  C   UNL     1      -0.665   0.544  25.397  0.00  0.00    +0.143 A 
ATOM     25  C   UNL     1       0.920   0.046  23.307  0.00  0.00    +0.131 A 
ATOM     26  C   UNL     1       0.346  -0.980  24.025  0.00  0.00    +0.130 A 
ENDBRANCH  16  18
BRANCH  11   5
ATOM      5  O   UNL     1      -5.040   2.228  24.148  0.00  0.00    -0.469 OA
BRANCH   5  17
ATOM      8  N   UNL     1      -4.244   0.283  23.170  0.00  0.00    -0.221 NA
ATOM     17  C   UNL     1      -4.617   0.936  24.293  0.00  0.00    +0.215 A 
ATOM     19  C   UNL     1      -4.593   0.377  25.560  0.00  0.00    +0.068 A 
ATOM     21  C   UNL     1      -4.159  -0.939  25.682  0.00  0.00    +0.019 A 
ATOM     22  C   UNL     1      -3.767  -1.644  24.549  0.00  0.00    +0.073 A 
ATOM     23  C   UNL     1      -3.828  -0.994  23.327  0.00  0.00    +0.127 A 
BRANCH  22  24
ATOM      1  F   UNL     1      -2.003  -3.230  24.250  0.00  0.00    -0.166 F 
ATOM      2  F   UNL     1      -3.354  -3.566  25.913  0.00  0.00    -0.166 F 
ATOM      3  F   UNL     1      -4.033  -3.909  23.876  0.00  0.00    -0.166 F 
ATOM     24  C   UNL     1      -3.299  -3.052  24.646  0.00  0.00    +0.419 C 
ENDBRANCH  22  24
ENDBRANCH   5  17
ENDBRANCH  11   5
TORSDOF 4
ENDMDL
MODEL 4
REMARK VINA RESULT:      -2.7      3.230      5.428
REMARK  Name = 75536859
REMARK  4 active torsions:
REMARK  status: ('A' for Active; 'I' for Inactive)
REMARK    1  A    between atoms: O_5  and  C_11
REMARK    2  A    between atoms: O_5  and  C_17
REMARK    3  A    between atoms: C_16  and  C_18
REMARK    4  A    between atoms: C_22  and  C_24
REMARK                            x       y       z     vdW  Elec       q    Type
REMARK                         _______ _______ _______ _____ _____    ______ ____
ROOT
ATOM      4  O   UNL     1      -6.522   3.732  26.007  0.00  0.00    -0.375 OA
ATOM      6  O   UNL     1      -2.118   5.350  24.867  0.00  0.00    -0.268 OA
ATOM      7  N   UNL     1      -3.775   3.733  24.498  0.00  0.00    -0.290 N 
ATOM     11  C   UNL     1      -5.563   1.921  24.684  0.00  0.00    +0.218 C 
ATOM     12  C   UNL     1      -4.129   2.320  24.324  0.00  0.00    +0.155 C 
ATOM     13  C   UNL     1      -4.853   4.723  24.515  0.00  0.00    +0.136 C 
ATOM     14  C   UNL     1      -5.994   2.410  26.064  0.00  0.00    +0.206 C 
ATOM     15  C   UNL     1      -5.544   4.758  25.872  0.00  0.00    +0.179 C 
ATOM     16  C   UNL     1      -2.457   4.180  24.687  0.00  0.00    +0.267 C 
ENDROOT
BRANCH  16  18
ATOM      9  N   UNL     1      -1.268   2.427  23.559  0.00  0.00    -0.247 NA
ATOM     10  N   UNL     1       0.481   2.130  25.732  0.00  0.00    -0.259 NA
ATOM     18  C   UNL     1      -1.373   3.185  24.668  0.00  0.00    +0.144 A 
ATOM     20  C   UNL     1      -0.513   3.040  25.735  0.00  0.00    +0.143 A 
ATOM     25  C   UNL     1      -0.273   1.517  23.555  0.00  0.00    +0.131 A 
ATOM     26  C   UNL     1       0.586   1.372  24.622  0.00  0.00    +0.130 A 
ENDBRANCH  16  18
BRANCH  11   5
ATOM      5  O   UNL     1      -5.611   0.493  24.660  0.00  0.00    -0.469 OA
BRANCH   5  17
ATOM      8  N   UNL     1      -3.521   0.305  25.644  0.00  0.00    -0.221 NA
ATOM     17  C   UNL     1      -4.413  -0.160  24.741  0.00  0.00    +0.215 A 
ATOM     19  C   UNL     1      -4.183  -1.245  23.910  0.00  0.00    +0.068 A 
ATOM     21  C   UNL     1      -2.956  -1.893  24.011  0.00  0.00    +0.019 A 
ATOM     22  C   UNL     1      -2.012  -1.443  24.928  0.00  0.00    +0.073 A 
ATOM     23  C   UNL     1      -2.340  -0.350  25.714  0.00  0.00    +0.127 A 
BRANCH  22  24
ATOM      1  F   UNL     1       0.169  -1.847  24.033  0.00  0.00    -0.166 F 
ATOM      2  F   UNL     1      -0.007  -1.766  26.193  0.00  0.00    -0.166 F 
ATOM      3  F   UNL     1      -0.792  -3.476  25.103  0.00  0.00    -0.166 F 
ATOM     24  C   UNL     1      -0.692  -2.114  25.061  0.00  0.00    +0.419 C 
ENDBRANCH  22  24
ENDBRANCH   5  17
ENDBRANCH  11   5
TORSDOF 4
ENDMDL
MODEL 5
REMARK VINA RESULT:      -1.5      2.649      4.631
REMARK  Name = 75536859
REMARK  4 active torsions:
REMARK  status: ('A' for Active; 'I' for Inactive)
REMARK    1  A    between atoms: O_5  and  C_11
REMARK    2  A    between atoms: O_5  and  C_17
REMARK    3  A    between atoms: C_16  and  C_18
REMARK    4  A    between atoms: C_22  and  C_24
REMARK                            x       y       z     vdW  Elec       q    Type
REMARK                         _______ _______ _______ _____ _____    ______ ____
ROOT
ATOM      4  O   UNL     1       2.463   1.255  23.434  0.00  0.00    -0.375 OA
ATOM      6  O   UNL     1      -0.676  -2.413  23.443  0.00  0.00    -0.268 OA
ATOM      7  N   UNL     1      -0.355  -0.102  23.225  0.00  0.00    -0.290 N 
ATOM     11  C   UNL     1       0.286   2.354  23.496  0.00  0.00    +0.218 C 
ATOM     12  C   UNL     1      -0.784   1.260  23.564  0.00  0.00    +0.155 C 
ATOM     13  C   UNL     1       0.846  -0.269  22.404  0.00  0.00    +0.136 C 
ATOM     14  C   UNL     1       1.562   1.995  24.253  0.00  0.00    +0.206 C 
ATOM     15  C   UNL     1       2.108  -0.111  23.243  0.00  0.00    +0.179 C 
ATOM     16  C   UNL     1      -1.018  -1.254  23.678  0.00  0.00    +0.267 C 
ENDROOT
BRANCH  16  18
ATOM      9  N   UNL     1      -3.357  -0.747  23.851  0.00  0.00    -0.247 NA
ATOM     10  N   UNL     1      -3.294  -1.112  26.632  0.00  0.00    -0.259 NA
ATOM     18  C   UNL     1      -2.227  -1.086  24.501  0.00  0.00    +0.144 A 
ATOM     20  C   UNL     1      -2.196  -1.266  25.867  0.00  0.00    +0.143 A 
ATOM     25  C   UNL     1      -4.457  -0.593  24.616  0.00  0.00    +0.131 A 
ATOM     26  C   UNL     1      -4.425  -0.773  25.981  0.00  0.00    +0.130 A 
ENDBRANCH  16  18
BRANCH  11   5
ATOM      5  O   UNL     1      -0.287   3.526  24.079  0.00  0.00    -0.469 OA
BRANCH   5  17
ATOM      8  N   UNL     1      -2.481   3.005  23.544  0.00  0.00    -0.221 NA
ATOM     17  C   UNL     1      -1.595   3.439  24.468  0.00  0.00    +0.215 A 
ATOM     19  C   UNL     1      -1.934   3.790  25.764  0.00  0.00    +0.068 A 
ATOM     21  C   UNL     1      -3.271   3.693  26.136  0.00  0.00    +0.019 A 
ATOM     22  C   UNL     1      -4.213   3.252  25.213  0.00  0.00    +0.073 A 
ATOM     23  C   UNL     1      -3.771   2.923  23.941  0.00  0.00    +0.127 A 
BRANCH  22  24
ATOM      1  F   UNL     1      -6.379   2.368  24.716  0.00  0.00    -0.166 F 
ATOM      2  F   UNL     1      -5.862   2.582  26.811  0.00  0.00    -0.166 F 
ATOM      3  F   UNL     1      -6.285   4.346  25.613  0.00  0.00    -0.166 F 
ATOM     24  C   UNL     1      -5.649   3.137  25.579  0.00  0.00    +0.419 C 
ENDBRANCH  22  24
ENDBRANCH   5  17
ENDBRANCH  11   5
TORSDOF 4
ENDMDL
