MODEL 1
REMARK VINA RESULT:      -4.5      0.000      0.000
REMARK  Name = 26744652
REMARK  11 active torsions:
REMARK  status: ('A' for Active; 'I' for Inactive)
REMARK    1  A    between atoms: O_3  and  C_10
REMARK    2  A    between atoms: O_4  and  C_11
REMARK    3  A    between atoms: N_7  and  C_15
REMARK    4  A    between atoms: N_7  and  C_19
REMARK    5  A    between atoms: N_8  and  C_18
REMARK    6  A    between atoms: N_9  and  C_17
REMARK    7  A    between atoms: C_12  and  C_14
REMARK    8  A    between atoms: C_13  and  C_15
REMARK    9  A    between atoms: C_14  and  C_16
REMARK   10  A    between atoms: C_17  and  C_18
REMARK   11  A    between atoms: C_19  and  C_24
REMARK                            x       y       z     vdW  Elec       q    Type
REMARK                         _______ _______ _______ _____ _____    ______ ____
ROOT
ATOM      2  O   UNL     1      -8.009  -8.830  17.084  0.00  0.00    -0.366 OA
ATOM     10  C   UNL     1      -9.114 -10.405  18.447  0.00  0.00    +0.175 C 
ATOM     11  C   UNL     1      -7.632 -10.714  18.486  0.00  0.00    +0.175 C 
ATOM     12  C   UNL     1      -9.110  -8.952  18.002  0.00  0.00    +0.158 C 
ATOM     13  C   UNL     1      -7.117  -9.952  17.270  0.00  0.00    +0.163 C 
ENDROOT
BRANCH  10   3
ATOM      3  O   UNL     1      -9.754 -10.574  19.694  0.00  0.00    -0.387 OA
ATOM     30  H   UNL     1      -9.075 -10.850  20.334  0.00  0.00    +0.210 HD
ENDBRANCH  10   3
BRANCH  11   4
ATOM      4  O   UNL     1      -7.037 -10.144  19.651  0.00  0.00    -0.387 OA
ATOM     31  H   UNL     1      -6.103  -9.964  19.442  0.00  0.00    +0.210 HD
ENDBRANCH  11   4
BRANCH  12  14
ATOM     14  C   UNL     1     -10.397  -8.528  17.317  0.00  0.00    +0.130 C 
BRANCH  14  16
ATOM      5  O   UNL     1     -10.087  -7.235  15.296  0.00  0.00    -0.276 OA
ATOM      8  N   UNL     1     -10.249  -9.549  15.148  0.00  0.00    -0.314 N 
ATOM     16  C   UNL     1     -10.226  -8.336  15.822  0.00  0.00    +0.216 C 
ATOM     33  H   UNL     1     -10.346 -10.412  15.675  0.00  0.00    +0.149 HD
BRANCH   8  18
ATOM     18  C   UNL     1     -10.110  -9.656  13.714  0.00  0.00    +0.119 C 
BRANCH  18  17
ATOM     17  C   UNL     1      -8.783 -10.297  13.336  0.00  0.00    +0.103 C 
BRANCH  17   9
ATOM      6  O   UNL     1      -7.850  -8.614   9.606  0.00  0.00    -0.377 OA
ATOM      9  N   UNL     1      -8.536 -10.148  11.902  0.00  0.00    -0.297 NA
ATOM     20  C   UNL     1      -7.154  -9.711  11.655  0.00  0.00    +0.112 C 
ATOM     21  C   UNL     1      -9.480  -9.196  11.306  0.00  0.00    +0.112 C 
ATOM     22  C   UNL     1      -6.924  -9.551  10.155  0.00  0.00    +0.175 C 
ATOM     23  C   UNL     1      -9.195  -9.048   9.813  0.00  0.00    +0.175 C 
ENDBRANCH  17   9
ENDBRANCH  18  17
ENDBRANCH   8  18
ENDBRANCH  14  16
ENDBRANCH  12  14
BRANCH  13  15
ATOM     15  C   UNL     1      -7.140 -10.781  15.992  0.00  0.00    +0.115 C 
BRANCH  15   7
ATOM      7  N   UNL     1      -5.863 -10.705  15.296  0.00  0.00    -0.309 NA
ATOM     32  H   UNL     1      -5.801 -11.470  14.625  0.00  0.00    +0.122 HD
BRANCH   7  19
ATOM     19  C   UNL     1      -4.752 -10.777  16.235  0.00  0.00    +0.116 C 
BRANCH  19  24
ATOM      1 CL   UNL     1      -2.075 -10.123  11.812  0.00  0.00    -0.084 Cl
ATOM     24  C   UNL     1      -3.422 -10.641  15.542  0.00  0.00    -0.032 A 
ATOM     25  C   UNL     1      -3.371 -10.465  14.160  0.00  0.00    +0.025 A 
ATOM     26  C   UNL     1      -2.242 -10.691  16.284  0.00  0.00    +0.005 A 
ATOM     27  C   UNL     1      -2.138 -10.338  13.519  0.00  0.00    +0.041 A 
ATOM     28  C   UNL     1      -1.009 -10.564  15.643  0.00  0.00    +0.002 A 
ATOM     29  C   UNL     1      -0.958 -10.388  14.260  0.00  0.00    +0.020 A 
ENDBRANCH  19  24
ENDBRANCH   7  19
ENDBRANCH  15   7
ENDBRANCH  13  15
TORSDOF 11
ENDMDL
MODEL 2
REMARK VINA RESULT:      -4.5     14.465     16.747
REMARK  Name = 26744652
REMARK  11 active torsions:
REMARK  status: ('A' for Active; 'I' for Inactive)
REMARK    1  A    between atoms: O_3  and  C_10
REMARK    2  A    between atoms: O_4  and  C_11
REMARK    3  A    between atoms: N_7  and  C_15
REMARK    4  A    between atoms: N_7  and  C_19
REMARK    5  A    between atoms: N_8  and  C_18
REMARK    6  A    between atoms: N_9  and  C_17
REMARK    7  A    between atoms: C_12  and  C_14
REMARK    8  A    between atoms: C_13  and  C_15
REMARK    9  A    between atoms: C_14  and  C_16
REMARK   10  A    between atoms: C_17  and  C_18
REMARK   11  A    between atoms: C_19  and  C_24
REMARK                            x       y       z     vdW  Elec       q    Type
REMARK                         _______ _______ _______ _____ _____    ______ ____
ROOT
ATOM      2  O   UNL     1      -2.228   2.267  25.720  0.00  0.00    -0.366 OA
ATOM     10  C   UNL     1      -1.936   4.481  24.964  0.00  0.00    +0.175 C 
ATOM     11  C   UNL     1      -3.378   4.323  25.396  0.00  0.00    +0.175 C 
ATOM     12  C   UNL     1      -1.268   3.338  25.710  0.00  0.00    +0.158 C 
ATOM     13  C   UNL     1      -3.537   2.807  25.428  0.00  0.00    +0.163 C 
ENDROOT
BRANCH  10   3
ATOM      3  O   UNL     1      -1.382   5.733  25.309  0.00  0.00    -0.387 OA
ATOM     30  H   UNL     1      -0.432   5.698  25.101  0.00  0.00    +0.210 HD
ENDBRANCH  10   3
BRANCH  11   4
ATOM      4  O   UNL     1      -3.555   4.814  26.725  0.00  0.00    -0.387 OA
ATOM     31  H   UNL     1      -2.689   5.133  27.034  0.00  0.00    +0.210 HD
ENDBRANCH  11   4
BRANCH  12  14
ATOM     14  C   UNL     1       0.020   2.866  25.060  0.00  0.00    +0.130 C 
BRANCH  14  16
ATOM      5  O   UNL     1      -1.117   2.030  23.095  0.00  0.00    -0.276 OA
ATOM      8  N   UNL     1       0.680   0.835  23.958  0.00  0.00    -0.314 N 
ATOM     16  C   UNL     1      -0.224   1.888  23.926  0.00  0.00    +0.216 C 
ATOM     33  H   UNL     1       1.401   0.817  24.674  0.00  0.00    +0.149 HD
BRANCH   8  18
ATOM     18  C   UNL     1       0.672  -0.241  22.994  0.00  0.00    +0.119 C 
BRANCH  18  17
ATOM     17  C   UNL     1       1.958  -0.261  22.181  0.00  0.00    +0.103 C 
BRANCH  17   9
ATOM      6  O   UNL     1       5.904  -0.286  23.611  0.00  0.00    -0.377 OA
ATOM      9  N   UNL     1       3.117  -0.114  23.060  0.00  0.00    -0.297 NA
ATOM     20  C   UNL     1       4.072   0.857  22.504  0.00  0.00    +0.112 C 
ATOM     21  C   UNL     1       3.779  -1.407  23.271  0.00  0.00    +0.112 C 
ATOM     22  C   UNL     1       5.277   0.984  23.431  0.00  0.00    +0.175 C 
ATOM     23  C   UNL     1       4.992  -1.226  24.181  0.00  0.00    +0.175 C 
ENDBRANCH  17   9
ENDBRANCH  18  17
ENDBRANCH   8  18
ENDBRANCH  14  16
ENDBRANCH  12  14
BRANCH  13  15
ATOM     15  C   UNL     1      -3.993   2.227  24.095  0.00  0.00    +0.115 C 
BRANCH  15   7
ATOM      7  N   UNL     1      -5.058   1.253  24.285  0.00  0.00    -0.309 NA
ATOM     32  H   UNL     1      -5.937   1.744  24.446  0.00  0.00    +0.122 HD
BRANCH   7  19
ATOM     19  C   UNL     1      -4.767   0.375  25.410  0.00  0.00    +0.116 C 
BRANCH  19  24
ATOM      1 CL   UNL     1      -0.153  -2.038  25.633  0.00  0.00    -0.084 Cl
ATOM     24  C   UNL     1      -3.900  -0.788  25.004  0.00  0.00    -0.032 A 
ATOM     25  C   UNL     1      -2.582  -0.865  25.454  0.00  0.00    +0.025 A 
ATOM     26  C   UNL     1      -4.415  -1.787  24.178  0.00  0.00    +0.005 A 
ATOM     27  C   UNL     1      -1.779  -1.943  25.079  0.00  0.00    +0.041 A 
ATOM     28  C   UNL     1      -3.613  -2.865  23.803  0.00  0.00    +0.002 A 
ATOM     29  C   UNL     1      -2.295  -2.943  24.253  0.00  0.00    +0.020 A 
ENDBRANCH  19  24
ENDBRANCH   7  19
ENDBRANCH  15   7
ENDBRANCH  13  15
TORSDOF 11
ENDMDL
MODEL 3
REMARK VINA RESULT:      -3.9     14.468     16.840
REMARK  Name = 26744652
REMARK  11 active torsions:
REMARK  status: ('A' for Active; 'I' for Inactive)
REMARK    1  A    between atoms: O_3  and  C_10
REMARK    2  A    between atoms: O_4  and  C_11
REMARK    3  A    between atoms: N_7  and  C_15
REMARK    4  A    between atoms: N_7  and  C_19
REMARK    5  A    between atoms: N_8  and  C_18
REMARK    6  A    between atoms: N_9  and  C_17
REMARK    7  A    between atoms: C_12  and  C_14
REMARK    8  A    between atoms: C_13  and  C_15
REMARK    9  A    between atoms: C_14  and  C_16
REMARK   10  A    between atoms: C_17  and  C_18
REMARK   11  A    between atoms: C_19  and  C_24
REMARK                            x       y       z     vdW  Elec       q    Type
REMARK                         _______ _______ _______ _____ _____    ______ ____
ROOT
ATOM      2  O   UNL     1      -2.291   3.245  26.373  0.00  0.00    -0.366 OA
ATOM     10  C   UNL     1      -1.138   3.510  24.333  0.00  0.00    +0.175 C 
ATOM     11  C   UNL     1      -1.969   4.754  24.563  0.00  0.00    +0.175 C 
ATOM     12  C   UNL     1      -1.032   2.950  25.741  0.00  0.00    +0.158 C 
ATOM     13  C   UNL     1      -2.960   4.284  25.623  0.00  0.00    +0.163 C 
ENDROOT
BRANCH  10   3
ATOM      3  O   UNL     1       0.129   3.779  23.773  0.00  0.00    -0.387 OA
ATOM     30  H   UNL     1       0.030   3.760  22.805  0.00  0.00    +0.210 HD
ENDBRANCH  10   3
BRANCH  11   4
ATOM      4  O   UNL     1      -1.167   5.787  25.135  0.00  0.00    -0.387 OA
ATOM     31  H   UNL     1      -0.834   5.458  25.988  0.00  0.00    +0.210 HD
ENDBRANCH  11   4
BRANCH  12  14
ATOM     14  C   UNL     1      -0.780   1.453  25.777  0.00  0.00    +0.130 C 
BRANCH  14  16
ATOM      5  O   UNL     1      -1.480   1.053  23.496  0.00  0.00    -0.276 OA
ATOM      8  N   UNL     1       0.467   0.050  24.277  0.00  0.00    -0.314 N 
ATOM     16  C   UNL     1      -0.663   0.848  24.391  0.00  0.00    +0.216 C 
ATOM     33  H   UNL     1       1.097  -0.038  25.068  0.00  0.00    +0.149 HD
BRANCH   8  18
ATOM     18  C   UNL     1       0.819  -0.649  23.062  0.00  0.00    +0.119 C 
BRANCH  18  17
ATOM     17  C   UNL     1       1.781   0.170  22.215  0.00  0.00    +0.103 C 
BRANCH  17   9
ATOM      6  O   UNL     1       5.344  -0.411  24.355  0.00  0.00    -0.377 OA
ATOM      9  N   UNL     1       3.165  -0.172  22.541  0.00  0.00    -0.297 NA
ATOM     20  C   UNL     1       3.213  -1.243  23.547  0.00  0.00    +0.112 C 
ATOM     21  C   UNL     1       3.893   1.007  23.025  0.00  0.00    +0.112 C 
ATOM     22  C   UNL     1       4.665  -1.574  23.881  0.00  0.00    +0.175 C 
ATOM     23  C   UNL     1       5.330   0.623  23.370  0.00  0.00    +0.175 C 
ENDBRANCH  17   9
ENDBRANCH  18  17
ENDBRANCH   8  18
ENDBRANCH  14  16
ENDBRANCH  12  14
BRANCH  13  15
ATOM     15  C   UNL     1      -4.229   3.686  25.029  0.00  0.00    +0.115 C 
BRANCH  15   7
ATOM      7  N   UNL     1      -4.513   2.381  25.609  0.00  0.00    -0.309 NA
ATOM     32  H   UNL     1      -3.684   2.043  26.096  0.00  0.00    +0.122 HD
BRANCH   7  19
ATOM     19  C   UNL     1      -4.908   1.429  24.580  0.00  0.00    +0.116 C 
BRANCH  19  24
ATOM      1 CL   UNL     1      -4.223  -3.484  22.984  0.00  0.00    -0.084 Cl
ATOM     24  C   UNL     1      -4.345   0.057  24.840  0.00  0.00    -0.032 A 
ATOM     25  C   UNL     1      -4.524  -0.959  23.902  0.00  0.00    +0.025 A 
ATOM     26  C   UNL     1      -3.645  -0.198  26.020  0.00  0.00    +0.005 A 
ATOM     27  C   UNL     1      -4.001  -2.230  24.142  0.00  0.00    +0.041 A 
ATOM     28  C   UNL     1      -3.122  -1.469  26.260  0.00  0.00    +0.002 A 
ATOM     29  C   UNL     1      -3.301  -2.485  25.321  0.00  0.00    +0.020 A 
ENDBRANCH  19  24
ENDBRANCH   7  19
ENDBRANCH  15   7
ENDBRANCH  13  15
TORSDOF 11
ENDMDL
MODEL 4
REMARK VINA RESULT:      -3.7     14.658     17.008
REMARK  Name = 26744652
REMARK  11 active torsions:
REMARK  status: ('A' for Active; 'I' for Inactive)
REMARK    1  A    between atoms: O_3  and  C_10
REMARK    2  A    between atoms: O_4  and  C_11
REMARK    3  A    between atoms: N_7  and  C_15
REMARK    4  A    between atoms: N_7  and  C_19
REMARK    5  A    between atoms: N_8  and  C_18
REMARK    6  A    between atoms: N_9  and  C_17
REMARK    7  A    between atoms: C_12  and  C_14
REMARK    8  A    between atoms: C_13  and  C_15
REMARK    9  A    between atoms: C_14  and  C_16
REMARK   10  A    between atoms: C_17  and  C_18
REMARK   11  A    between atoms: C_19  and  C_24
REMARK                            x       y       z     vdW  Elec       q    Type
REMARK                         _______ _______ _______ _____ _____    ______ ____
ROOT
ATOM      2  O   UNL     1      -3.784   0.496  23.641  0.00  0.00    -0.366 OA
ATOM     10  C   UNL     1      -2.389  -0.218  25.401  0.00  0.00    +0.175 C 
ATOM     11  C   UNL     1      -3.732  -0.898  25.567  0.00  0.00    +0.175 C 
ATOM     12  C   UNL     1      -2.417   0.156  23.929  0.00  0.00    +0.158 C 
ATOM     13  C   UNL     1      -4.632  -0.043  24.681  0.00  0.00    +0.163 C 
ENDROOT
BRANCH  10   3
ATOM      3  O   UNL     1      -1.296  -1.056  25.714  0.00  0.00    -0.387 OA
ATOM     30  H   UNL     1      -1.441  -1.402  26.611  0.00  0.00    +0.210 HD
ENDBRANCH  10   3
BRANCH  11   4
ATOM      4  O   UNL     1      -3.693  -2.215  25.019  0.00  0.00    -0.387 OA
ATOM     31  H   UNL     1      -2.773  -2.393  24.756  0.00  0.00    +0.210 HD
ENDBRANCH  11   4
BRANCH  12  14
ATOM     14  C   UNL     1      -1.515   1.328  23.588  0.00  0.00    +0.130 C 
BRANCH  14  16
ATOM      5  O   UNL     1       0.855   1.637  23.968  0.00  0.00    -0.276 OA
ATOM      8  N   UNL     1       0.120  -0.291  22.897  0.00  0.00    -0.314 N 
ATOM     16  C   UNL     1      -0.050   0.937  23.521  0.00  0.00    +0.216 C 
ATOM     33  H   UNL     1      -0.695  -0.808  22.581  0.00  0.00    +0.149 HD
BRANCH   8  18
ATOM     18  C   UNL     1       1.414  -0.901  22.698  0.00  0.00    +0.119 C 
BRANCH  18  17
ATOM     17  C   UNL     1       2.392   0.076  22.062  0.00  0.00    +0.103 C 
BRANCH  17   9
ATOM      6  O   UNL     1       5.692  -0.319  24.625  0.00  0.00    -0.377 OA
ATOM      9  N   UNL     1       3.747  -0.168  22.553  0.00  0.00    -0.297 NA
ATOM     20  C   UNL     1       3.761  -1.280  23.514  0.00  0.00    +0.112 C 
ATOM     21  C   UNL     1       4.303   1.041  23.172  0.00  0.00    +0.112 C 
ATOM     22  C   UNL     1       5.182  -1.507  24.021  0.00  0.00    +0.175 C 
ATOM     23  C   UNL     1       5.713   0.758  23.687  0.00  0.00    +0.175 C 
ENDBRANCH  17   9
ENDBRANCH  18  17
ENDBRANCH   8  18
ENDBRANCH  14  16
ENDBRANCH  12  14
BRANCH  13  15
ATOM     15  C   UNL     1      -5.261   1.128  25.423  0.00  0.00    +0.115 C 
BRANCH  15   7
ATOM      7  N   UNL     1      -5.178   2.351  24.637  0.00  0.00    -0.309 NA
ATOM     32  H   UNL     1      -4.463   2.240  23.919  0.00  0.00    +0.122 HD
BRANCH   7  19
ATOM     19  C   UNL     1      -4.862   3.494  25.482  0.00  0.00    +0.116 C 
BRANCH  19  24
ATOM      1 CL   UNL     1       0.045   2.474  26.910  0.00  0.00    -0.084 Cl
ATOM     24  C   UNL     1      -3.401   3.852  25.418  0.00  0.00    -0.032 A 
ATOM     25  C   UNL     1      -2.465   3.086  26.112  0.00  0.00    +0.025 A 
ATOM     26  C   UNL     1      -2.984   4.949  24.663  0.00  0.00    +0.005 A 
ATOM     27  C   UNL     1      -1.110   3.417  26.052  0.00  0.00    +0.041 A 
ATOM     28  C   UNL     1      -1.630   5.279  24.603  0.00  0.00    +0.002 A 
ATOM     29  C   UNL     1      -0.694   4.514  25.297  0.00  0.00    +0.020 A 
ENDBRANCH  19  24
ENDBRANCH   7  19
ENDBRANCH  15   7
ENDBRANCH  13  15
TORSDOF 11
ENDMDL
MODEL 5
REMARK VINA RESULT:      -3.3     14.297     16.005
REMARK  Name = 26744652
REMARK  11 active torsions:
REMARK  status: ('A' for Active; 'I' for Inactive)
REMARK    1  A    between atoms: O_3  and  C_10
REMARK    2  A    between atoms: O_4  and  C_11
REMARK    3  A    between atoms: N_7  and  C_15
REMARK    4  A    between atoms: N_7  and  C_19
REMARK    5  A    between atoms: N_8  and  C_18
REMARK    6  A    between atoms: N_9  and  C_17
REMARK    7  A    between atoms: C_12  and  C_14
REMARK    8  A    between atoms: C_13  and  C_15
REMARK    9  A    between atoms: C_14  and  C_16
REMARK   10  A    between atoms: C_17  and  C_18
REMARK   11  A    between atoms: C_19  and  C_24
REMARK                            x       y       z     vdW  Elec       q    Type
REMARK                         _______ _______ _______ _____ _____    ______ ____
ROOT
ATOM      2  O   UNL     1      -2.985  -0.158  25.586  0.00  0.00    -0.366 OA
ATOM     10  C   UNL     1      -3.746  -1.633  23.912  0.00  0.00    +0.175 C 
ATOM     11  C   UNL     1      -2.442  -2.179  24.455  0.00  0.00    +0.175 C 
ATOM     12  C   UNL     1      -4.191  -0.725  25.046  0.00  0.00    +0.158 C 
ATOM     13  C   UNL     1      -1.859  -0.961  25.164  0.00  0.00    +0.163 C 
ENDROOT
BRANCH  10   3
ATOM      3  O   UNL     1      -4.699  -2.637  23.633  0.00  0.00    -0.387 OA
ATOM     30  H   UNL     1      -4.577  -2.905  22.706  0.00  0.00    +0.210 HD
ENDBRANCH  10   3
BRANCH  11   4
ATOM      4  O   UNL     1      -2.695  -3.183  25.437  0.00  0.00    -0.387 OA
ATOM     31  H   UNL     1      -1.998  -3.111  26.113  0.00  0.00    +0.210 HD
ENDBRANCH  11   4
BRANCH  12  14
ATOM     14  C   UNL     1      -5.123   0.387  24.596  0.00  0.00    +0.130 C 
BRANCH  14  16
ATOM      5  O   UNL     1      -3.603   1.927  23.513  0.00  0.00    -0.276 OA
ATOM      8  N   UNL     1      -4.772   2.625  25.397  0.00  0.00    -0.314 N 
ATOM     16  C   UNL     1      -4.406   1.712  24.418  0.00  0.00    +0.216 C 
ATOM     33  H   UNL     1      -5.464   2.360  26.092  0.00  0.00    +0.149 HD
BRANCH   8  18
ATOM     18  C   UNL     1      -4.238   3.965  25.465  0.00  0.00    +0.119 C 
BRANCH  18  17
ATOM     17  C   UNL     1      -3.246   4.106  26.610  0.00  0.00    +0.103 C 
BRANCH  17   9
ATOM      6  O   UNL     1       0.134   3.231  24.280  0.00  0.00    -0.377 OA
ATOM      9  N   UNL     1      -1.876   4.097  26.100  0.00  0.00    -0.297 NA
ATOM     20  C   UNL     1      -1.832   4.586  24.714  0.00  0.00    +0.112 C 
ATOM     21  C   UNL     1      -1.300   2.748  26.177  0.00  0.00    +0.112 C 
ATOM     22  C   UNL     1      -0.396   4.555  24.200  0.00  0.00    +0.175 C 
ATOM     23  C   UNL     1       0.126   2.762  25.629  0.00  0.00    +0.175 C 
ENDBRANCH  17   9
ENDBRANCH  18  17
ENDBRANCH   8  18
ENDBRANCH  14  16
ENDBRANCH  12  14
BRANCH  13  15
ATOM     15  C   UNL     1      -0.989  -0.102  24.255  0.00  0.00    +0.115 C 
BRANCH  15   7
ATOM      7  N   UNL     1       0.347  -0.666  24.123  0.00  0.00    -0.309 NA
ATOM     32  H   UNL     1       0.925  -0.343  24.898  0.00  0.00    +0.122 HD
BRANCH   7  19
ATOM     19  C   UNL     1       0.953  -0.280  22.857  0.00  0.00    +0.116 C 
BRANCH  19  24
ATOM      1 CL   UNL     1       5.665  -2.038  24.221  0.00  0.00    -0.084 Cl
ATOM     24  C   UNL     1       2.431  -0.029  22.995  0.00  0.00    -0.032 A 
ATOM     25  C   UNL     1       3.265  -1.033  23.486  0.00  0.00    +0.025 A 
ATOM     26  C   UNL     1       2.965   1.207  22.632  0.00  0.00    +0.005 A 
ATOM     27  C   UNL     1       4.635  -0.801  23.614  0.00  0.00    +0.041 A 
ATOM     28  C   UNL     1       4.335   1.439  22.759  0.00  0.00    +0.002 A 
ATOM     29  C   UNL     1       5.170   0.436  23.250  0.00  0.00    +0.020 A 
ENDBRANCH  19  24
ENDBRANCH   7  19
ENDBRANCH  15   7
ENDBRANCH  13  15
TORSDOF 11
ENDMDL
MODEL 6
REMARK VINA RESULT:      -3.1     14.435     16.115
REMARK  Name = 26744652
REMARK  11 active torsions:
REMARK  status: ('A' for Active; 'I' for Inactive)
REMARK    1  A    between atoms: O_3  and  C_10
REMARK    2  A    between atoms: O_4  and  C_11
REMARK    3  A    between atoms: N_7  and  C_15
REMARK    4  A    between atoms: N_7  and  C_19
REMARK    5  A    between atoms: N_8  and  C_18
REMARK    6  A    between atoms: N_9  and  C_17
REMARK    7  A    between atoms: C_12  and  C_14
REMARK    8  A    between atoms: C_13  and  C_15
REMARK    9  A    between atoms: C_14  and  C_16
REMARK   10  A    between atoms: C_17  and  C_18
REMARK   11  A    between atoms: C_19  and  C_24
REMARK                            x       y       z     vdW  Elec       q    Type
REMARK                         _______ _______ _______ _____ _____    ______ ____
ROOT
ATOM      2  O   UNL     1      -0.346   3.265  24.011  0.00  0.00    -0.366 OA
ATOM     10  C   UNL     1      -1.397   2.800  26.069  0.00  0.00    +0.175 C 
ATOM     11  C   UNL     1      -0.137   1.964  25.991  0.00  0.00    +0.175 C 
ATOM     12  C   UNL     1      -1.097   3.897  25.062  0.00  0.00    +0.158 C 
ATOM     13  C   UNL     1       0.185   2.013  24.501  0.00  0.00    +0.163 C 
ENDROOT
BRANCH  10   3
ATOM      3  O   UNL     1      -1.645   3.319  27.359  0.00  0.00    -0.387 OA
ATOM     30  H   UNL     1      -2.597   3.511  27.417  0.00  0.00    +0.210 HD
ENDBRANCH  10   3
BRANCH  11   4
ATOM      4  O   UNL     1       0.927   2.604  26.695  0.00  0.00    -0.387 OA
ATOM     31  H   UNL     1       0.614   2.780  27.599  0.00  0.00    +0.210 HD
ENDBRANCH  11   4
BRANCH  12  14
ATOM     14  C   UNL     1      -2.345   4.541  24.483  0.00  0.00    +0.130 C 
BRANCH  14  16
ATOM      5  O   UNL     1      -4.566   4.055  25.310  0.00  0.00    -0.276 OA
ATOM      8  N   UNL     1      -3.455   2.457  24.040  0.00  0.00    -0.314 N 
ATOM     16  C   UNL     1      -3.583   3.685  24.672  0.00  0.00    +0.216 C 
ATOM     33  H   UNL     1      -2.610   2.252  23.514  0.00  0.00    +0.149 HD
BRANCH   8  18
ATOM     18  C   UNL     1      -4.488   1.447  24.061  0.00  0.00    +0.119 C 
BRANCH  18  17
ATOM     17  C   UNL     1      -4.559   0.761  25.417  0.00  0.00    +0.103 C 
BRANCH  17   9
ATOM      6  O   UNL     1      -2.426  -2.642  24.196  0.00  0.00    -0.377 OA
ATOM      9  N   UNL     1      -4.087  -0.619  25.315  0.00  0.00    -0.297 NA
ATOM     20  C   UNL     1      -2.655  -0.705  25.640  0.00  0.00    +0.112 C 
ATOM     21  C   UNL     1      -4.332  -1.156  23.970  0.00  0.00    +0.112 C 
ATOM     22  C   UNL     1      -2.183  -2.150  25.514  0.00  0.00    +0.175 C 
ATOM     23  C   UNL     1      -3.819  -2.592  23.885  0.00  0.00    +0.175 C 
ENDBRANCH  17   9
ENDBRANCH  18  17
ENDBRANCH   8  18
ENDBRANCH  14  16
ENDBRANCH  12  14
BRANCH  13  15
ATOM     15  C   UNL     1      -0.473   0.888  23.712  0.00  0.00    +0.115 C 
BRANCH  15   7
ATOM      7  N   UNL     1       0.361  -0.306  23.709  0.00  0.00    -0.309 NA
ATOM     32  H   UNL     1       0.948  -0.307  24.542  0.00  0.00    +0.122 HD
BRANCH   7  19
ATOM     19  C   UNL     1       1.192  -0.357  22.515  0.00  0.00    +0.116 C 
BRANCH  19  24
ATOM      1 CL   UNL     1       5.744  -2.058  24.398  0.00  0.00    -0.084 Cl
ATOM     24  C   UNL     1       2.640  -0.085  22.827  0.00  0.00    -0.032 A 
ATOM     25  C   UNL     1       3.429  -1.081  23.401  0.00  0.00    +0.025 A 
ATOM     26  C   UNL     1       3.192   1.164  22.540  0.00  0.00    +0.005 A 
ATOM     27  C   UNL     1       4.771  -0.829  23.688  0.00  0.00    +0.041 A 
ATOM     28  C   UNL     1       4.533   1.416  22.828  0.00  0.00    +0.002 A 
ATOM     29  C   UNL     1       5.322   0.420  23.402  0.00  0.00    +0.020 A 
ENDBRANCH  19  24
ENDBRANCH   7  19
ENDBRANCH  15   7
ENDBRANCH  13  15
TORSDOF 11
ENDMDL
MODEL 7
REMARK VINA RESULT:      -2.6     14.126     15.840
REMARK  Name = 26744652
REMARK  11 active torsions:
REMARK  status: ('A' for Active; 'I' for Inactive)
REMARK    1  A    between atoms: O_3  and  C_10
REMARK    2  A    between atoms: O_4  and  C_11
REMARK    3  A    between atoms: N_7  and  C_15
REMARK    4  A    between atoms: N_7  and  C_19
REMARK    5  A    between atoms: N_8  and  C_18
REMARK    6  A    between atoms: N_9  and  C_17
REMARK    7  A    between atoms: C_12  and  C_14
REMARK    8  A    between atoms: C_13  and  C_15
REMARK    9  A    between atoms: C_14  and  C_16
REMARK   10  A    between atoms: C_17  and  C_18
REMARK   11  A    between atoms: C_19  and  C_24
REMARK                            x       y       z     vdW  Elec       q    Type
REMARK                         _______ _______ _______ _____ _____    ______ ____
ROOT
ATOM      2  O   UNL     1      -2.535  -0.802  26.242  0.00  0.00    -0.366 OA
ATOM     10  C   UNL     1      -1.598  -1.758  24.302  0.00  0.00    +0.175 C 
ATOM     11  C   UNL     1      -0.461  -1.336  25.208  0.00  0.00    +0.175 C 
ATOM     12  C   UNL     1      -2.752  -1.854  25.285  0.00  0.00    +0.158 C 
ATOM     13  C   UNL     1      -1.157  -0.372  26.163  0.00  0.00    +0.163 C 
ENDROOT
BRANCH  10   3
ATOM      3  O   UNL     1      -1.362  -2.984  23.642  0.00  0.00    -0.387 OA
ATOM     30  H   UNL     1      -1.999  -3.631  23.994  0.00  0.00    +0.210 HD
ENDBRANCH  10   3
BRANCH  11   4
ATOM      4  O   UNL     1       0.008  -2.450  25.968  0.00  0.00    -0.387 OA
ATOM     31  H   UNL     1      -0.316  -3.257  25.530  0.00  0.00    +0.210 HD
ENDBRANCH  11   4
BRANCH  12  14
ATOM     14  C   UNL     1      -4.113  -1.682  24.636  0.00  0.00    +0.130 C 
BRANCH  14  16
ATOM      5  O   UNL     1      -3.773   0.311  23.308  0.00  0.00    -0.276 OA
ATOM      8  N   UNL     1      -5.386   0.326  24.981  0.00  0.00    -0.314 N 
ATOM     16  C   UNL     1      -4.382  -0.249  24.215  0.00  0.00    +0.216 C 
ATOM     33  H   UNL     1      -5.849  -0.229  25.696  0.00  0.00    +0.149 HD
BRANCH   8  18
ATOM     18  C   UNL     1      -5.841   1.684  24.793  0.00  0.00    +0.119 C 
BRANCH  18  17
ATOM     17  C   UNL     1      -5.268   2.609  25.856  0.00  0.00    +0.103 C 
BRANCH  17   9
ATOM      6  O   UNL     1      -1.996   4.959  24.677  0.00  0.00    -0.377 OA
ATOM      9  N   UNL     1      -3.912   3.020  25.496  0.00  0.00    -0.297 NA
ATOM     20  C   UNL     1      -3.416   4.049  26.422  0.00  0.00    +0.112 C 
ATOM     21  C   UNL     1      -3.868   3.520  24.116  0.00  0.00    +0.112 C 
ATOM     22  C   UNL     1      -2.006   4.471  26.019  0.00  0.00    +0.175 C 
ATOM     23  C   UNL     1      -2.446   3.954  23.768  0.00  0.00    +0.175 C 
ENDBRANCH  17   9
ENDBRANCH  18  17
ENDBRANCH   8  18
ENDBRANCH  14  16
ENDBRANCH  12  14
BRANCH  13  15
ATOM     15  C   UNL     1      -1.145   1.068  25.669  0.00  0.00    +0.115 C 
BRANCH  15   7
ATOM      7  N   UNL     1       0.207   1.608  25.661  0.00  0.00    -0.309 NA
ATOM     32  H   UNL     1       0.293   2.308  26.397  0.00  0.00    +0.122 HD
BRANCH   7  19
ATOM     19  C   UNL     1       0.523   2.203  24.369  0.00  0.00    +0.116 C 
BRANCH  19  24
ATOM      1 CL   UNL     1       5.170   0.359  22.897  0.00  0.00    -0.084 Cl
ATOM     24  C   UNL     1       1.321   1.267  23.501  0.00  0.00    -0.032 A 
ATOM     25  C   UNL     1       2.713   1.249  23.591  0.00  0.00    +0.025 A 
ATOM     26  C   UNL     1       0.668   0.419  22.607  0.00  0.00    +0.005 A 
ATOM     27  C   UNL     1       3.452   0.381  22.787  0.00  0.00    +0.041 A 
ATOM     28  C   UNL     1       1.408  -0.449  21.803  0.00  0.00    +0.002 A 
ATOM     29  C   UNL     1       2.799  -0.468  21.893  0.00  0.00    +0.020 A 
ENDBRANCH  19  24
ENDBRANCH   7  19
ENDBRANCH  15   7
ENDBRANCH  13  15
TORSDOF 11
ENDMDL
MODEL 8
REMARK VINA RESULT:      -2.5     14.228     15.973
REMARK  Name = 26744652
REMARK  11 active torsions:
REMARK  status: ('A' for Active; 'I' for Inactive)
REMARK    1  A    between atoms: O_3  and  C_10
REMARK    2  A    between atoms: O_4  and  C_11
REMARK    3  A    between atoms: N_7  and  C_15
REMARK    4  A    between atoms: N_7  and  C_19
REMARK    5  A    between atoms: N_8  and  C_18
REMARK    6  A    between atoms: N_9  and  C_17
REMARK    7  A    between atoms: C_12  and  C_14
REMARK    8  A    between atoms: C_13  and  C_15
REMARK    9  A    between atoms: C_14  and  C_16
REMARK   10  A    between atoms: C_17  and  C_18
REMARK   11  A    between atoms: C_19  and  C_24
REMARK                            x       y       z     vdW  Elec       q    Type
REMARK                         _______ _______ _______ _____ _____    ______ ____
ROOT
ATOM      2  O   UNL     1      -2.293   3.158  23.156  0.00  0.00    -0.366 OA
ATOM     10  C   UNL     1      -2.553   3.318  25.494  0.00  0.00    +0.175 C 
ATOM     11  C   UNL     1      -1.070   3.253  25.194  0.00  0.00    +0.175 C 
ATOM     12  C   UNL     1      -3.113   3.782  24.160  0.00  0.00    +0.158 C 
ATOM     13  C   UNL     1      -1.058   2.718  23.765  0.00  0.00    +0.163 C 
ENDROOT
BRANCH  10   3
ATOM      3  O   UNL     1      -2.873   4.209  26.541  0.00  0.00    -0.387 OA
ATOM     30  H   UNL     1      -2.602   5.100  26.259  0.00  0.00    +0.210 HD
ENDBRANCH  10   3
BRANCH  11   4
ATOM      4  O   UNL     1      -0.509   4.565  25.180  0.00  0.00    -0.387 OA
ATOM     31  H   UNL     1       0.216   4.565  24.530  0.00  0.00    +0.210 HD
ENDBRANCH  11   4
BRANCH  12  14
ATOM     14  C   UNL     1      -4.566   3.393  23.949  0.00  0.00    +0.130 C 
BRANCH  14  16
ATOM      5  O   UNL     1      -5.571   2.407  25.916  0.00  0.00    -0.276 OA
ATOM      8  N   UNL     1      -4.661   1.017  24.291  0.00  0.00    -0.314 N 
ATOM     16  C   UNL     1      -4.997   2.245  24.842  0.00  0.00    +0.216 C 
ATOM     33  H   UNL     1      -4.207   0.985  23.382  0.00  0.00    +0.149 HD
BRANCH   8  18
ATOM     18  C   UNL     1      -4.955  -0.243  24.933  0.00  0.00    +0.119 C 
BRANCH  18  17
ATOM     17  C   UNL     1      -4.240  -1.394  24.241  0.00  0.00    +0.103 C 
BRANCH  17   9
ATOM      6  O   UNL     1      -0.293  -1.574  25.658  0.00  0.00    -0.377 OA
ATOM      9  N   UNL     1      -3.054  -1.787  25.000  0.00  0.00    -0.297 NA
ATOM     20  C   UNL     1      -2.535  -0.654  25.780  0.00  0.00    +0.112 C 
ATOM     21  C   UNL     1      -2.010  -2.305  24.107  0.00  0.00    +0.112 C 
ATOM     22  C   UNL     1      -1.292  -1.084  26.553  0.00  0.00    +0.175 C 
ATOM     23  C   UNL     1      -0.779  -2.697  24.921  0.00  0.00    +0.175 C 
ENDBRANCH  17   9
ENDBRANCH  18  17
ENDBRANCH   8  18
ENDBRANCH  14  16
ENDBRANCH  12  14
BRANCH  13  15
ATOM     15  C   UNL     1      -1.022   1.197  23.698  0.00  0.00    +0.115 C 
BRANCH  15   7
ATOM      7  N   UNL     1       0.298   0.689  24.046  0.00  0.00    -0.309 NA
ATOM     32  H   UNL     1       0.864   1.453  24.414  0.00  0.00    +0.122 HD
BRANCH   7  19
ATOM     19  C   UNL     1       0.951   0.100  22.885  0.00  0.00    +0.116 C 
BRANCH  19  24
ATOM      1 CL   UNL     1       5.396  -2.344  24.077  0.00  0.00    -0.084 Cl
ATOM     24  C   UNL     1       2.451   0.141  23.005  0.00  0.00    -0.032 A 
ATOM     25  C   UNL     1       3.147  -0.989  23.435  0.00  0.00    +0.025 A 
ATOM     26  C   UNL     1       3.145   1.308  22.685  0.00  0.00    +0.005 A 
ATOM     27  C   UNL     1       4.538  -0.951  23.545  0.00  0.00    +0.041 A 
ATOM     28  C   UNL     1       4.535   1.345  22.795  0.00  0.00    +0.002 A 
ATOM     29  C   UNL     1       5.231   0.216  23.225  0.00  0.00    +0.020 A 
ENDBRANCH  19  24
ENDBRANCH   7  19
ENDBRANCH  15   7
ENDBRANCH  13  15
TORSDOF 11
ENDMDL
MODEL 9
REMARK VINA RESULT:      -1.4     14.281     15.932
REMARK  Name = 26744652
REMARK  11 active torsions:
REMARK  status: ('A' for Active; 'I' for Inactive)
REMARK    1  A    between atoms: O_3  and  C_10
REMARK    2  A    between atoms: O_4  and  C_11
REMARK    3  A    between atoms: N_7  and  C_15
REMARK    4  A    between atoms: N_7  and  C_19
REMARK    5  A    between atoms: N_8  and  C_18
REMARK    6  A    between atoms: N_9  and  C_17
REMARK    7  A    between atoms: C_12  and  C_14
REMARK    8  A    between atoms: C_13  and  C_15
REMARK    9  A    between atoms: C_14  and  C_16
REMARK   10  A    between atoms: C_17  and  C_18
REMARK   11  A    between atoms: C_19  and  C_24
REMARK                            x       y       z     vdW  Elec       q    Type
REMARK                         _______ _______ _______ _____ _____    ______ ____
ROOT
ATOM      2  O   UNL     1      -2.181   4.501  24.256  0.00  0.00    -0.366 OA
ATOM     10  C   UNL     1      -3.781   3.443  25.627  0.00  0.00    +0.175 C 
ATOM     11  C   UNL     1      -2.833   4.211  26.524  0.00  0.00    +0.175 C 
ATOM     12  C   UNL     1      -3.574   4.145  24.295  0.00  0.00    +0.158 C 
ATOM     13  C   UNL     1      -1.647   4.456  25.598  0.00  0.00    +0.163 C 
ENDROOT
BRANCH  10   3
ATOM      3  O   UNL     1      -5.125   3.501  26.053  0.00  0.00    -0.387 OA
ATOM     30  H   UNL     1      -5.565   2.691  25.742  0.00  0.00    +0.210 HD
ENDBRANCH  10   3
BRANCH  11   4
ATOM      4  O   UNL     1      -3.394   5.477  26.870  0.00  0.00    -0.387 OA
ATOM     31  H   UNL     1      -4.361   5.371  26.892  0.00  0.00    +0.210 HD
ENDBRANCH  11   4
BRANCH  12  14
ATOM     14  C   UNL     1      -3.915   3.276  23.097  0.00  0.00    +0.130 C 
BRANCH  14  16
ATOM      5  O   UNL     1      -2.939   1.066  22.977  0.00  0.00    -0.276 OA
ATOM      8  N   UNL     1      -4.871   1.384  24.228  0.00  0.00    -0.314 N 
ATOM     16  C   UNL     1      -3.829   1.794  23.409  0.00  0.00    +0.216 C 
ATOM     33  H   UNL     1      -5.548   2.068  24.554  0.00  0.00    +0.149 HD
BRANCH   8  18
ATOM     18  C   UNL     1      -5.032   0.020  24.677  0.00  0.00    +0.119 C 
BRANCH  18  17
ATOM     17  C   UNL     1      -4.161  -0.266  25.892  0.00  0.00    +0.103 C 
BRANCH  17   9
ATOM      6  O   UNL     1      -1.363  -2.791  24.045  0.00  0.00    -0.377 OA
ATOM      9  N   UNL     1      -3.275  -1.398  25.627  0.00  0.00    -0.297 NA
ATOM     20  C   UNL     1      -1.875  -0.957  25.550  0.00  0.00    +0.112 C 
ATOM     21  C   UNL     1      -3.658  -2.081  24.385  0.00  0.00    +0.112 C 
ATOM     22  C   UNL     1      -0.972  -2.153  25.261  0.00  0.00    +0.175 C 
ATOM     23  C   UNL     1      -2.712  -3.251  24.125  0.00  0.00    +0.175 C 
ENDBRANCH  17   9
ENDBRANCH  18  17
ENDBRANCH   8  18
ENDBRANCH  14  16
ENDBRANCH  12  14
BRANCH  13  15
ATOM     15  C   UNL     1      -0.610   3.341  25.650  0.00  0.00    +0.115 C 
BRANCH  15   7
ATOM      7  N   UNL     1      -0.451   2.714  24.345  0.00  0.00    -0.309 NA
ATOM     32  H   UNL     1      -1.275   2.908  23.777  0.00  0.00    +0.122 HD
BRANCH   7  19
ATOM     19  C   UNL     1      -0.268   1.275  24.478  0.00  0.00    +0.116 C 
BRANCH  19  24
ATOM      1 CL   UNL     1       4.727   0.975  23.020  0.00  0.00    -0.084 Cl
ATOM     24  C   UNL     1       0.764   0.750  23.515  0.00  0.00    -0.032 A 
ATOM     25  C   UNL     1       2.110   1.069  23.693  0.00  0.00    +0.025 A 
ATOM     26  C   UNL     1       0.373  -0.057  22.446  0.00  0.00    +0.005 A 
ATOM     27  C   UNL     1       3.066   0.580  22.802  0.00  0.00    +0.041 A 
ATOM     28  C   UNL     1       1.329  -0.545  21.555  0.00  0.00    +0.002 A 
ATOM     29  C   UNL     1       2.675  -0.226  21.733  0.00  0.00    +0.020 A 
ENDBRANCH  19  24
ENDBRANCH   7  19
ENDBRANCH  15   7
ENDBRANCH  13  15
TORSDOF 11
ENDMDL
MODEL 10
REMARK VINA RESULT:      -1.0     14.423     16.454
REMARK  Name = 26744652
REMARK  11 active torsions:
REMARK  status: ('A' for Active; 'I' for Inactive)
REMARK    1  A    between atoms: O_3  and  C_10
REMARK    2  A    between atoms: O_4  and  C_11
REMARK    3  A    between atoms: N_7  and  C_15
REMARK    4  A    between atoms: N_7  and  C_19
REMARK    5  A    between atoms: N_8  and  C_18
REMARK    6  A    between atoms: N_9  and  C_17
REMARK    7  A    between atoms: C_12  and  C_14
REMARK    8  A    between atoms: C_13  and  C_15
REMARK    9  A    between atoms: C_14  and  C_16
REMARK   10  A    between atoms: C_17  and  C_18
REMARK   11  A    between atoms: C_19  and  C_24
REMARK                            x       y       z     vdW  Elec       q    Type
REMARK                         _______ _______ _______ _____ _____    ______ ____
ROOT
ATOM      2  O   UNL     1      -1.158   3.185  23.916  0.00  0.00    -0.366 OA
ATOM     10  C   UNL     1      -3.023   3.120  25.357  0.00  0.00    +0.175 C 
ATOM     11  C   UNL     1      -1.901   3.836  26.080  0.00  0.00    +0.175 C 
ATOM     12  C   UNL     1      -2.594   3.269  23.907  0.00  0.00    +0.158 C 
ATOM     13  C   UNL     1      -0.683   3.426  25.260  0.00  0.00    +0.163 C 
ENDROOT
BRANCH  10   3
ATOM      3  O   UNL     1      -4.294   3.689  25.595  0.00  0.00    -0.387 OA
ATOM     30  H   UNL     1      -4.749   3.752  24.737  0.00  0.00    +0.210 HD
ENDBRANCH  10   3
BRANCH  11   4
ATOM      4  O   UNL     1      -2.058   5.250  25.963  0.00  0.00    -0.387 OA
ATOM     31  H   UNL     1      -1.917   5.481  25.028  0.00  0.00    +0.210 HD
ENDBRANCH  11   4
BRANCH  12  14
ATOM     14  C   UNL     1      -3.164   2.195  22.998  0.00  0.00    +0.130 C 
BRANCH  14  16
ATOM      5  O   UNL     1      -2.138   1.680  20.868  0.00  0.00    -0.276 OA
ATOM      8  N   UNL     1      -1.144   0.905  22.822  0.00  0.00    -0.314 N 
ATOM     16  C   UNL     1      -2.113   1.580  22.092  0.00  0.00    +0.216 C 
ATOM     33  H   UNL     1      -1.197   0.900  23.836  0.00  0.00    +0.149 HD
BRANCH   8  18
ATOM     18  C   UNL     1      -0.027   0.225  22.208  0.00  0.00    +0.119 C 
BRANCH  18  17
ATOM     17  C   UNL     1       0.886  -0.391  23.258  0.00  0.00    +0.103 C 
BRANCH  17   9
ATOM      6  O   UNL     1       5.004   0.417  23.352  0.00  0.00    -0.377 OA
ATOM      9  N   UNL     1       2.286  -0.262  22.854  0.00  0.00    -0.297 NA
ATOM     20  C   UNL     1       3.149  -1.110  23.688  0.00  0.00    +0.112 C 
ATOM     21  C   UNL     1       2.725   1.137  22.933  0.00  0.00    +0.112 C 
ATOM     22  C   UNL     1       4.604  -0.950  23.257  0.00  0.00    +0.175 C 
ATOM     23  C   UNL     1       4.191   1.244  22.518  0.00  0.00    +0.175 C 
ENDBRANCH  17   9
ENDBRANCH  18  17
ENDBRANCH   8  18
ENDBRANCH  14  16
ENDBRANCH  12  14
BRANCH  13  15
ATOM     15  C   UNL     1      -0.032   2.142  25.760  0.00  0.00    +0.115 C 
BRANCH  15   7
ATOM      7  N   UNL     1      -0.999   1.301  26.451  0.00  0.00    -0.309 NA
ATOM     32  H   UNL     1      -0.902   1.436  27.457  0.00  0.00    +0.122 HD
BRANCH   7  19
ATOM     19  C   UNL     1      -0.800  -0.103  26.118  0.00  0.00    +0.116 C 
BRANCH  19  24
ATOM      1 CL   UNL     1      -5.779   0.386  24.662  0.00  0.00    -0.084 Cl
ATOM     24  C   UNL     1      -2.012  -0.699  25.452  0.00  0.00    -0.032 A 
ATOM     25  C   UNL     1      -3.195   0.034  25.374  0.00  0.00    +0.025 A 
ATOM     26  C   UNL     1      -1.950  -1.984  24.913  0.00  0.00    +0.005 A 
ATOM     27  C   UNL     1      -4.318  -0.518  24.756  0.00  0.00    +0.041 A 
ATOM     28  C   UNL     1      -3.072  -2.536  24.295  0.00  0.00    +0.002 A 
ATOM     29  C   UNL     1      -4.256  -1.803  24.217  0.00  0.00    +0.020 A 
ENDBRANCH  19  24
ENDBRANCH   7  19
ENDBRANCH  15   7
ENDBRANCH  13  15
TORSDOF 11
ENDMDL
