MODEL 1
REMARK VINA RESULT:      -3.8      0.000      0.000
REMARK  Name = 38027148
REMARK  14 active torsions:
REMARK  status: ('A' for Active; 'I' for Inactive)
REMARK    1  A    between atoms: N_3  and  C_13
REMARK    2  A    between atoms: N_4  and  C_20
REMARK    3  A    between atoms: N_4  and  C_21
REMARK    4  A    between atoms: N_5  and  C_22
REMARK    5  A    between atoms: C_6  and  C_10
REMARK    6  A    between atoms: C_7  and  C_13
REMARK    7  A    between atoms: C_9  and  C_14
REMARK    8  A    between atoms: C_10  and  C_15
REMARK    9  A    between atoms: C_10  and  C_16
REMARK   10  A    between atoms: C_11  and  C_17
REMARK   11  A    between atoms: C_14  and  C_18
REMARK   12  A    between atoms: C_20  and  C_23
REMARK   13  A    between atoms: C_22  and  C_24
REMARK   14  A    between atoms: C_22  and  C_25
REMARK                            x       y       z     vdW  Elec       q    Type
REMARK                         _______ _______ _______ _____ _____    ______ ____
ROOT
ATOM      6  C   UNL     1      -1.046   0.629  24.479  0.00  0.00    +0.000 C 
ATOM      7  C   UNL     1      -0.261  -0.684  24.242  0.00  0.00    +0.032 C 
ATOM      8  C   UNL     1      -2.106   0.430  25.573  0.00  0.00    +0.012 C 
ATOM      9  C   UNL     1      -3.110  -0.683  25.217  0.00  0.00    +0.023 C 
ATOM     11  C   UNL     1      -2.413  -1.931  24.714  0.00  0.00    -0.073 C 
ATOM     12  C   UNL     1      -1.135  -1.916  24.295  0.00  0.00    -0.022 C 
ATOM     17  C   UNL     1      -3.205  -3.208  24.747  0.00  0.00    +0.039 C 
ENDROOT
BRANCH   6  10
ATOM     10  C   UNL     1      -0.119   1.786  24.861  0.00  0.00    -0.013 C 
ATOM     15  C   UNL     1      -0.324   2.967  23.917  0.00  0.00    +0.007 C 
ATOM     16  C   UNL     1      -0.355   2.202  26.308  0.00  0.00    +0.007 C 
ENDBRANCH   6  10
BRANCH   7  13
ATOM     13  C   UNL     1       0.487  -0.648  22.904  0.00  0.00    +0.113 C 
BRANCH  13   3
ATOM      2  O   UNL     1       2.681   1.225  22.999  0.00  0.00    -0.253 OA
ATOM      3  N   UNL     1       1.872  -0.952  23.088  0.00  0.00    -0.299 N 
ATOM      5  N   UNL     1       4.138  -0.552  23.316  0.00  0.00    -0.297 N 
ATOM     19  C   UNL     1       2.882   0.018  23.123  0.00  0.00    +0.300 C 
ATOM     31  H   UNL     1       2.136  -1.915  23.271  0.00  0.00    +0.150 HD
ATOM     32  H   UNL     1       4.212  -1.564  23.328  0.00  0.00    +0.150 HD
BRANCH   5  22
ATOM     22  C   UNL     1       5.349   0.230  23.388  0.00  0.00    +0.068 C 
ATOM     24  C   UNL     1       6.520  -0.548  22.802  0.00  0.00    +0.027 C 
ATOM     25  C   UNL     1       5.629   0.650  24.827  0.00  0.00    +0.027 C 
ENDBRANCH   5  22
ENDBRANCH  13   3
ENDBRANCH   7  13
BRANCH   9  14
ATOM     14  C   UNL     1      -4.147  -0.187  24.202  0.00  0.00    +0.103 C 
BRANCH  14  18
ATOM      1  O   UNL     1      -3.579   2.003  23.412  0.00  0.00    -0.276 OA
ATOM      4  N   UNL     1      -5.168   1.877  25.098  0.00  0.00    -0.300 N 
ATOM     18  C   UNL     1      -4.259   1.326  24.188  0.00  0.00    +0.216 C 
ATOM     21  C   UNL     1      -5.961   1.056  26.005  0.00  0.00    +0.132 C 
BRANCH   4  20
ATOM     20  C   UNL     1      -5.392   3.317  25.207  0.00  0.00    +0.142 C 
BRANCH  20  23
ATOM     23  C   UNL     1      -4.104   4.088  25.198  0.00  0.00    -0.030 A 
ATOM     26  C   UNL     1      -3.765   4.868  24.092  0.00  0.00    +0.005 A 
ATOM     27  C   UNL     1      -3.246   4.024  26.296  0.00  0.00    +0.005 A 
ATOM     28  C   UNL     1      -2.568   5.584  24.084  0.00  0.00    +0.000 A 
ATOM     29  C   UNL     1      -2.049   4.740  26.287  0.00  0.00    +0.000 A 
ATOM     30  C   UNL     1      -1.710   5.520  25.182  0.00  0.00    +0.000 A 
ENDBRANCH  20  23
ENDBRANCH   4  20
ENDBRANCH  14  18
ENDBRANCH   9  14
TORSDOF 8
ENDMDL
MODEL 2
REMARK VINA RESULT:      -1.3      1.728      4.821
REMARK  Name = 38027148
REMARK  14 active torsions:
REMARK  status: ('A' for Active; 'I' for Inactive)
REMARK    1  A    between atoms: N_3  and  C_13
REMARK    2  A    between atoms: N_4  and  C_20
REMARK    3  A    between atoms: N_4  and  C_21
REMARK    4  A    between atoms: N_5  and  C_22
REMARK    5  A    between atoms: C_6  and  C_10
REMARK    6  A    between atoms: C_7  and  C_13
REMARK    7  A    between atoms: C_9  and  C_14
REMARK    8  A    between atoms: C_10  and  C_15
REMARK    9  A    between atoms: C_10  and  C_16
REMARK   10  A    between atoms: C_11  and  C_17
REMARK   11  A    between atoms: C_14  and  C_18
REMARK   12  A    between atoms: C_20  and  C_23
REMARK   13  A    between atoms: C_22  and  C_24
REMARK   14  A    between atoms: C_22  and  C_25
REMARK                            x       y       z     vdW  Elec       q    Type
REMARK                         _______ _______ _______ _____ _____    ______ ____
ROOT
ATOM      6  C   UNL     1      -2.817   2.616  23.908  0.00  0.00    +0.000 C 
ATOM      7  C   UNL     1      -1.541   2.938  24.724  0.00  0.00    +0.032 C 
ATOM      8  C   UNL     1      -3.853   3.740  24.065  0.00  0.00    +0.012 C 
ATOM      9  C   UNL     1      -4.255   3.960  25.536  0.00  0.00    +0.023 C 
ATOM     11  C   UNL     1      -3.047   4.020  26.449  0.00  0.00    -0.073 C 
ATOM     12  C   UNL     1      -1.839   3.571  26.064  0.00  0.00    -0.022 C 
ATOM     17  C   UNL     1      -3.249   4.651  27.798  0.00  0.00    +0.039 C 
ENDROOT
BRANCH   6  10
ATOM     10  C   UNL     1      -2.505   2.403  22.424  0.00  0.00    -0.013 C 
ATOM     15  C   UNL     1      -2.401   0.914  22.110  0.00  0.00    +0.007 C 
ATOM     16  C   UNL     1      -3.568   3.067  21.556  0.00  0.00    +0.007 C 
ENDBRANCH   6  10
BRANCH   7  13
ATOM     13  C   UNL     1      -0.685   1.683  24.933  0.00  0.00    +0.113 C 
BRANCH  13   3
ATOM      2  O   UNL     1       0.883   0.087  23.111  0.00  0.00    -0.253 OA
ATOM      3  N   UNL     1       0.665   1.917  24.527  0.00  0.00    -0.299 N 
ATOM      5  N   UNL     1       2.658   1.550  23.413  0.00  0.00    -0.297 N 
ATOM     19  C   UNL     1       1.361   1.092  23.634  0.00  0.00    +0.300 C 
ATOM     31  H   UNL     1       1.128   2.761  24.848  0.00  0.00    +0.150 HD
ATOM     32  H   UNL     1       2.987   2.344  23.952  0.00  0.00    +0.150 HD
BRANCH   5  22
ATOM     22  C   UNL     1       3.586   0.878  22.534  0.00  0.00    +0.068 C 
ATOM     24  C   UNL     1       2.861  -0.168  21.697  0.00  0.00    +0.027 C 
ATOM     25  C   UNL     1       4.723   0.254  23.333  0.00  0.00    +0.027 C 
ENDBRANCH   5  22
ENDBRANCH  13   3
ENDBRANCH   7  13
BRANCH   9  14
ATOM     14  C   UNL     1      -5.244   2.886  26.004  0.00  0.00    +0.103 C 
BRANCH  14  18
ATOM      1  O   UNL     1      -6.224   2.073  23.974  0.00  0.00    -0.276 OA
ATOM      4  N   UNL     1      -4.856   0.605  25.138  0.00  0.00    -0.300 N 
ATOM     18  C   UNL     1      -5.496   1.834  24.941  0.00  0.00    +0.216 C 
ATOM     21  C   UNL     1      -4.000   0.345  26.289  0.00  0.00    +0.132 C 
BRANCH   4  20
ATOM     20  C   UNL     1      -4.998  -0.511  24.205  0.00  0.00    +0.142 C 
BRANCH  20  23
ATOM     23  C   UNL     1      -3.822  -1.443  24.260  0.00  0.00    -0.030 A 
ATOM     26  C   UNL     1      -2.567  -0.962  24.634  0.00  0.00    +0.005 A 
ATOM     27  C   UNL     1      -3.985  -2.790  23.938  0.00  0.00    +0.005 A 
ATOM     28  C   UNL     1      -1.475  -1.828  24.685  0.00  0.00    +0.000 A 
ATOM     29  C   UNL     1      -2.894  -3.656  23.990  0.00  0.00    +0.000 A 
ATOM     30  C   UNL     1      -1.639  -3.175  24.363  0.00  0.00    +0.000 A 
ENDBRANCH  20  23
ENDBRANCH   4  20
ENDBRANCH  14  18
ENDBRANCH   9  14
TORSDOF 8
ENDMDL
MODEL 3
REMARK VINA RESULT:      -1.1      1.658      7.031
REMARK  Name = 38027148
REMARK  14 active torsions:
REMARK  status: ('A' for Active; 'I' for Inactive)
REMARK    1  A    between atoms: N_3  and  C_13
REMARK    2  A    between atoms: N_4  and  C_20
REMARK    3  A    between atoms: N_4  and  C_21
REMARK    4  A    between atoms: N_5  and  C_22
REMARK    5  A    between atoms: C_6  and  C_10
REMARK    6  A    between atoms: C_7  and  C_13
REMARK    7  A    between atoms: C_9  and  C_14
REMARK    8  A    between atoms: C_10  and  C_15
REMARK    9  A    between atoms: C_10  and  C_16
REMARK   10  A    between atoms: C_11  and  C_17
REMARK   11  A    between atoms: C_14  and  C_18
REMARK   12  A    between atoms: C_20  and  C_23
REMARK   13  A    between atoms: C_22  and  C_24
REMARK   14  A    between atoms: C_22  and  C_25
REMARK                            x       y       z     vdW  Elec       q    Type
REMARK                         _______ _______ _______ _____ _____    ______ ____
ROOT
ATOM      6  C   UNL     1      -3.310   2.845  25.380  0.00  0.00    +0.000 C 
ATOM      7  C   UNL     1      -4.356   2.580  24.270  0.00  0.00    +0.032 C 
ATOM      8  C   UNL     1      -2.080   3.560  24.800  0.00  0.00    +0.012 C 
ATOM      9  C   UNL     1      -1.408   2.744  23.678  0.00  0.00    +0.023 C 
ATOM     11  C   UNL     1      -2.418   2.217  22.681  0.00  0.00    -0.073 C 
ATOM     12  C   UNL     1      -3.734   2.164  22.957  0.00  0.00    -0.022 C 
ATOM     17  C   UNL     1      -1.889   1.795  21.339  0.00  0.00    +0.039 C 
ENDROOT
BRANCH   6  10
ATOM     10  C   UNL     1      -3.895   3.673  26.529  0.00  0.00    -0.013 C 
ATOM     15  C   UNL     1      -2.936   4.792  26.921  0.00  0.00    +0.007 C 
ATOM     16  C   UNL     1      -5.256   4.238  26.137  0.00  0.00    +0.007 C 
ENDBRANCH   6  10
BRANCH   7  13
ATOM     13  C   UNL     1      -5.374   1.521  24.710  0.00  0.00    +0.113 C 
BRANCH  13   3
ATOM      2  O   UNL     1      -4.086  -0.814  23.609  0.00  0.00    -0.253 OA
ATOM      3  N   UNL     1      -4.732   0.470  25.435  0.00  0.00    -0.299 N 
ATOM      5  N   UNL     1      -3.576  -1.506  25.764  0.00  0.00    -0.297 N 
ATOM     19  C   UNL     1      -4.126  -0.636  24.825  0.00  0.00    +0.300 C 
ATOM     31  H   UNL     1      -4.648   0.557  26.443  0.00  0.00    +0.150 HD
ATOM     32  H   UNL     1      -3.730  -1.313  26.748  0.00  0.00    +0.150 HD
BRANCH   5  22
ATOM     22  C   UNL     1      -2.895  -2.725  25.396  0.00  0.00    +0.068 C 
ATOM     24  C   UNL     1      -1.436  -2.438  25.065  0.00  0.00    +0.027 C 
ATOM     25  C   UNL     1      -3.603  -3.401  24.228  0.00  0.00    +0.027 C 
ENDBRANCH   5  22
ENDBRANCH  13   3
ENDBRANCH   7  13
BRANCH   9  14
ATOM     14  C   UNL     1      -0.561   1.604  24.257  0.00  0.00    +0.103 C 
BRANCH  14  18
ATOM      1  O   UNL     1       1.606   2.224  23.442  0.00  0.00    -0.276 OA
ATOM      4  N   UNL     1       0.789   0.156  22.780  0.00  0.00    -0.300 N 
ATOM     18  C   UNL     1       0.711   1.374  23.465  0.00  0.00    +0.216 C 
ATOM     21  C   UNL     1      -0.281  -0.834  22.821  0.00  0.00    +0.132 C 
BRANCH   4  20
ATOM     20  C   UNL     1       1.949  -0.217  21.972  0.00  0.00    +0.142 C 
BRANCH  20  23
ATOM     23  C   UNL     1       3.211  -0.254  22.785  0.00  0.00    -0.030 A 
ATOM     26  C   UNL     1       3.542  -1.401  23.508  0.00  0.00    +0.005 A 
ATOM     27  C   UNL     1       4.053   0.857  22.816  0.00  0.00    +0.005 A 
ATOM     28  C   UNL     1       4.714  -1.435  24.262  0.00  0.00    +0.000 A 
ATOM     29  C   UNL     1       5.225   0.823  23.571  0.00  0.00    +0.000 A 
ATOM     30  C   UNL     1       5.555  -0.323  24.294  0.00  0.00    +0.000 A 
ENDBRANCH  20  23
ENDBRANCH   4  20
ENDBRANCH  14  18
ENDBRANCH   9  14
TORSDOF 8
ENDMDL
MODEL 4
REMARK VINA RESULT:      -0.4      1.762      4.682
REMARK  Name = 38027148
REMARK  14 active torsions:
REMARK  status: ('A' for Active; 'I' for Inactive)
REMARK    1  A    between atoms: N_3  and  C_13
REMARK    2  A    between atoms: N_4  and  C_20
REMARK    3  A    between atoms: N_4  and  C_21
REMARK    4  A    between atoms: N_5  and  C_22
REMARK    5  A    between atoms: C_6  and  C_10
REMARK    6  A    between atoms: C_7  and  C_13
REMARK    7  A    between atoms: C_9  and  C_14
REMARK    8  A    between atoms: C_10  and  C_15
REMARK    9  A    between atoms: C_10  and  C_16
REMARK   10  A    between atoms: C_11  and  C_17
REMARK   11  A    between atoms: C_14  and  C_18
REMARK   12  A    between atoms: C_20  and  C_23
REMARK   13  A    between atoms: C_22  and  C_24
REMARK   14  A    between atoms: C_22  and  C_25
REMARK                            x       y       z     vdW  Elec       q    Type
REMARK                         _______ _______ _______ _____ _____    ______ ____
ROOT
ATOM      6  C   UNL     1      -2.496   2.258  23.371  0.00  0.00    +0.000 C 
ATOM      7  C   UNL     1      -1.174   2.789  23.979  0.00  0.00    +0.032 C 
ATOM      8  C   UNL     1      -3.374   3.426  22.893  0.00  0.00    +0.012 C 
ATOM      9  C   UNL     1      -3.717   4.401  24.036  0.00  0.00    +0.023 C 
ATOM     11  C   UNL     1      -2.496   4.764  24.854  0.00  0.00    -0.073 C 
ATOM     12  C   UNL     1      -1.363   4.040  24.806  0.00  0.00    -0.022 C 
ATOM     17  C   UNL     1      -2.589   6.006  25.696  0.00  0.00    +0.039 C 
ENDROOT
BRANCH   6  10
ATOM     10  C   UNL     1      -2.241   1.293  22.209  0.00  0.00    -0.013 C 
ATOM     15  C   UNL     1      -3.201   0.110  22.280  0.00  0.00    +0.007 C 
ATOM     16  C   UNL     1      -2.375   2.020  20.875  0.00  0.00    +0.007 C 
ENDBRANCH   6  10
BRANCH   7  13
ATOM     13  C   UNL     1      -0.485   1.715  24.829  0.00  0.00    +0.113 C 
BRANCH  13   3
ATOM      2  O   UNL     1       0.905  -0.143  23.113  0.00  0.00    -0.253 OA
ATOM      3  N   UNL     1       0.918   1.677  24.559  0.00  0.00    -0.299 N 
ATOM      5  N   UNL     1       2.897   0.930  23.625  0.00  0.00    -0.297 N 
ATOM     19  C   UNL     1       1.520   0.739  23.710  0.00  0.00    +0.300 C 
ATOM     31  H   UNL     1       1.506   2.407  24.948  0.00  0.00    +0.150 HD
ATOM     32  H   UNL     1       3.324   1.635  24.217  0.00  0.00    +0.150 HD
BRANCH   5  22
ATOM     22  C   UNL     1       3.754   0.096  22.816  0.00  0.00    +0.068 C 
ATOM     24  C   UNL     1       5.192   0.172  23.313  0.00  0.00    +0.027 C 
ATOM     25  C   UNL     1       3.655   0.493  21.348  0.00  0.00    +0.027 C 
ENDBRANCH   5  22
ENDBRANCH  13   3
ENDBRANCH   7  13
BRANCH   9  14
ATOM     14  C   UNL     1      -4.829   3.836  24.928  0.00  0.00    +0.103 C 
BRANCH  14  18
ATOM      1  O   UNL     1      -3.487   2.984  26.722  0.00  0.00    -0.276 OA
ATOM      4  N   UNL     1      -4.872   1.470  25.639  0.00  0.00    -0.300 N 
ATOM     18  C   UNL     1      -4.325   2.741  25.850  0.00  0.00    +0.216 C 
ATOM     21  C   UNL     1      -5.862   1.207  24.602  0.00  0.00    +0.132 C 
BRANCH   4  20
ATOM     20  C   UNL     1      -4.491   0.311  26.442  0.00  0.00    +0.142 C 
BRANCH  20  23
ATOM     23  C   UNL     1      -3.656  -0.663  25.663  0.00  0.00    -0.030 A 
ATOM     26  C   UNL     1      -4.269  -1.602  24.833  0.00  0.00    +0.005 A 
ATOM     27  C   UNL     1      -2.265  -0.629  25.769  0.00  0.00    +0.005 A 
ATOM     28  C   UNL     1      -3.493  -2.506  24.109  0.00  0.00    +0.000 A 
ATOM     29  C   UNL     1      -1.489  -1.533  25.045  0.00  0.00    +0.000 A 
ATOM     30  C   UNL     1      -2.102  -2.472  24.216  0.00  0.00    +0.000 A 
ENDBRANCH  20  23
ENDBRANCH   4  20
ENDBRANCH  14  18
ENDBRANCH   9  14
TORSDOF 8
ENDMDL
MODEL 5
REMARK VINA RESULT:       0.0      1.313      7.519
REMARK  Name = 38027148
REMARK  14 active torsions:
REMARK  status: ('A' for Active; 'I' for Inactive)
REMARK    1  A    between atoms: N_3  and  C_13
REMARK    2  A    between atoms: N_4  and  C_20
REMARK    3  A    between atoms: N_4  and  C_21
REMARK    4  A    between atoms: N_5  and  C_22
REMARK    5  A    between atoms: C_6  and  C_10
REMARK    6  A    between atoms: C_7  and  C_13
REMARK    7  A    between atoms: C_9  and  C_14
REMARK    8  A    between atoms: C_10  and  C_15
REMARK    9  A    between atoms: C_10  and  C_16
REMARK   10  A    between atoms: C_11  and  C_17
REMARK   11  A    between atoms: C_14  and  C_18
REMARK   12  A    between atoms: C_20  and  C_23
REMARK   13  A    between atoms: C_22  and  C_24
REMARK   14  A    between atoms: C_22  and  C_25
REMARK                            x       y       z     vdW  Elec       q    Type
REMARK                         _______ _______ _______ _____ _____    ______ ____
ROOT
ATOM      6  C   UNL     1      -2.704  -1.512  24.307  0.00  0.00    +0.000 C 
ATOM      7  C   UNL     1      -3.295  -0.826  25.563  0.00  0.00    +0.032 C 
ATOM      8  C   UNL     1      -1.188  -1.703  24.463  0.00  0.00    +0.012 C 
ATOM      9  C   UNL     1      -0.452  -0.366  24.683  0.00  0.00    +0.023 C 
ATOM     11  C   UNL     1      -1.138   0.490  25.727  0.00  0.00    -0.073 C 
ATOM     12  C   UNL     1      -2.405   0.261  26.119  0.00  0.00    -0.022 C 
ATOM     17  C   UNL     1      -0.319   1.588  26.347  0.00  0.00    +0.039 C 
ENDROOT
BRANCH   6  10
ATOM     10  C   UNL     1      -3.370  -2.863  24.030  0.00  0.00    -0.013 C 
ATOM     15  C   UNL     1      -3.527  -3.654  25.324  0.00  0.00    +0.007 C 
ATOM     16  C   UNL     1      -4.720  -2.662  23.351  0.00  0.00    +0.007 C 
ENDBRANCH   6  10
BRANCH   7  13
ATOM     13  C   UNL     1      -4.686  -0.248  25.275  0.00  0.00    +0.113 C 
BRANCH  13   3
ATOM      2  O   UNL     1      -3.464   1.898  23.784  0.00  0.00    -0.253 OA
ATOM      3  N   UNL     1      -4.730   1.147  25.582  0.00  0.00    -0.299 N 
ATOM      5  N   UNL     1      -4.309   3.407  25.331  0.00  0.00    -0.297 N 
ATOM     19  C   UNL     1      -4.108   2.133  24.806  0.00  0.00    +0.300 C 
ATOM     31  H   UNL     1      -5.296   1.453  26.368  0.00  0.00    +0.150 HD
ATOM     32  H   UNL     1      -4.788   3.491  26.222  0.00  0.00    +0.150 HD
BRANCH   5  22
ATOM     22  C   UNL     1      -3.770   4.599  24.720  0.00  0.00    +0.068 C 
ATOM     24  C   UNL     1      -3.945   4.545  23.208  0.00  0.00    +0.027 C 
ATOM     25  C   UNL     1      -2.306   4.780  25.100  0.00  0.00    +0.027 C 
ENDBRANCH   5  22
ENDBRANCH  13   3
ENDBRANCH   7  13
BRANCH   9  14
ATOM     14  C   UNL     1      -0.293   0.399  23.364  0.00  0.00    +0.103 C 
BRANCH  14  18
ATOM      1  O   UNL     1       1.717   1.636  23.779  0.00  0.00    -0.276 OA
ATOM      4  N   UNL     1       1.767   0.112  22.031  0.00  0.00    -0.300 N 
ATOM     18  C   UNL     1       1.149   0.783  23.092  0.00  0.00    +0.216 C 
ATOM     21  C   UNL     1       1.076  -0.893  21.233  0.00  0.00    +0.132 C 
BRANCH   4  20
ATOM     20  C   UNL     1       3.152   0.369  21.643  0.00  0.00    +0.142 C 
BRANCH  20  23
ATOM     23  C   UNL     1       4.120  -0.018  22.723  0.00  0.00    -0.030 A 
ATOM     26  C   UNL     1       4.101  -1.311  23.248  0.00  0.00    +0.005 A 
ATOM     27  C   UNL     1       5.039   0.915  23.203  0.00  0.00    +0.005 A 
ATOM     28  C   UNL     1       4.999  -1.670  24.252  0.00  0.00    +0.000 A 
ATOM     29  C   UNL     1       5.938   0.555  24.207  0.00  0.00    +0.000 A 
ATOM     30  C   UNL     1       5.918  -0.736  24.731  0.00  0.00    +0.000 A 
ENDBRANCH  20  23
ENDBRANCH   4  20
ENDBRANCH  14  18
ENDBRANCH   9  14
TORSDOF 8
ENDMDL
