MODEL 1
REMARK VINA RESULT:      -0.2      0.000      0.000
REMARK  Name = 75368458
REMARK  5 active torsions:
REMARK  status: ('A' for Active; 'I' for Inactive)
REMARK    1  A    between atoms: O_5  and  C_28
REMARK    2  A    between atoms: O_5  and  C_30
REMARK    3  A    between atoms: N_7  and  C_15
REMARK    4  A    between atoms: C_15  and  C_17
REMARK    5  A    between atoms: C_16  and  C_18
REMARK                            x       y       z     vdW  Elec       q    Type
REMARK                         _______ _______ _______ _____ _____    ______ ____
ROOT
ATOM      1  O   UNL     1      -1.879 -10.522  14.667  0.00  0.00    -0.252 OA
ATOM      2  O   UNL     1      -8.831  -9.830  14.709  0.00  0.00    -0.270 OA
ATOM      6  N   UNL     1      -4.058 -10.123  13.882  0.00  0.00    -0.278 N 
ATOM      7  N   UNL     1      -2.410 -10.370  12.375  0.00  0.00    -0.279 N 
ATOM      8  N   UNL     1      -6.813 -10.424  13.691  0.00  0.00    -0.294 N 
ATOM      9  C   UNL     1      -4.690  -9.858  12.601  0.00  0.00    +0.112 C 
ATOM     10  C   UNL     1      -3.620 -10.238  11.582  0.00  0.00    +0.133 C 
ATOM     11  C   UNL     1      -5.992 -10.643  12.484  0.00  0.00    +0.132 C 
ATOM     12  C   UNL     1      -4.834 -10.023  15.106  0.00  0.00    +0.128 C 
ATOM     13  C   UNL     1      -6.152 -10.780  14.954  0.00  0.00    +0.127 C 
ATOM     14  C   UNL     1      -2.681 -10.356  13.757  0.00  0.00    +0.306 C 
ATOM     16  C   UNL     1      -8.134  -9.971  13.706  0.00  0.00    +0.247 C 
ENDROOT
BRANCH  16  18
ATOM      3  O   UNL     1      -8.064  -8.006   9.199  0.00  0.00    -0.453 OA
ATOM      4  O   UNL     1     -10.376  -8.559   8.804  0.00  0.00    -0.453 OA
ATOM     18  C   UNL     1      -8.757  -9.613  12.425  0.00  0.00    +0.041 A 
ATOM     21  C   UNL     1      -8.005  -8.958  11.448  0.00  0.00    +0.062 A 
ATOM     22  C   UNL     1     -10.106  -9.936  12.194  0.00  0.00    +0.017 A 
ATOM     23  C   UNL     1      -8.633  -8.642  10.260  0.00  0.00    +0.167 A 
ATOM     26  C   UNL     1     -10.718  -9.605  10.983  0.00  0.00    +0.050 A 
ATOM     27  C   UNL     1      -9.953  -8.958  10.033  0.00  0.00    +0.166 A 
ATOM     29  C   UNL     1      -9.175  -7.958   8.281  0.00  0.00    +0.466 C 
ENDBRANCH  16  18
BRANCH   7  15
ATOM     15  C   UNL     1      -1.123 -10.623  11.768  0.00  0.00    +0.144 C 
BRANCH  15  17
ATOM     17  C   UNL     1      -0.237  -9.411  11.801  0.00  0.00    -0.030 A 
ATOM     19  C   UNL     1       0.829  -9.303  10.909  0.00  0.00    +0.009 A 
ATOM     20  C   UNL     1      -0.480  -8.394  12.724  0.00  0.00    +0.009 A 
ATOM     24  C   UNL     1       1.652  -8.177  10.939  0.00  0.00    +0.046 A 
ATOM     25  C   UNL     1       0.342  -7.268  12.754  0.00  0.00    +0.046 A 
ATOM     28  C   UNL     1       1.409  -7.160  11.861  0.00  0.00    +0.120 A 
BRANCH  28   5
ATOM      5  O   UNL     1       2.213  -6.063  11.892  0.00  0.00    -0.495 OA
ATOM     30  C   UNL     1       3.588  -6.273  12.209  0.00  0.00    +0.277 C 
ENDBRANCH  28   5
ENDBRANCH  15  17
ENDBRANCH   7  15
TORSDOF 4
ENDMDL
