MODEL 1
REMARK VINA RESULT:      10.3      0.000      0.000
REMARK  Name = 75536091
REMARK  6 active torsions:
REMARK  status: ('A' for Active; 'I' for Inactive)
REMARK    1  A    between atoms: O_2  and  C_12
REMARK    2  A    between atoms: O_3  and  C_14
REMARK    3  A    between atoms: N_6  and  C_11
REMARK    4  A    between atoms: N_8  and  C_20
REMARK    5  A    between atoms: C_10  and  C_15
REMARK    6  A    between atoms: C_18  and  C_21
REMARK                            x       y       z     vdW  Elec       q    Type
REMARK                         _______ _______ _______ _____ _____    ______ ____
ROOT
ATOM     10  C   UNL     1      -2.381  -1.493  25.388  0.00  0.00    +0.046 C 
ATOM     11  C   UNL     1      -1.700  -1.992  24.093  0.00  0.00    +0.112 C 
ATOM     12  C   UNL     1      -1.918  -3.504  24.137  0.00  0.00    +0.164 C 
ATOM     13  C   UNL     1      -3.417  -2.583  25.768  0.00  0.00    +0.044 C 
ATOM     14  C   UNL     1      -3.344  -3.634  24.662  0.00  0.00    +0.145 C 
ENDROOT
BRANCH  10  15
ATOM      7  N   UNL     1      -4.901   1.303  24.919  0.00  0.00    -0.240 NA
ATOM     15  C   UNL     1      -2.962  -0.100  25.253  0.00  0.00    -0.024 A 
ATOM     16  C   UNL     1      -2.149   1.026  25.325  0.00  0.00    +0.009 A 
ATOM     17  C   UNL     1      -4.319   0.091  25.051  0.00  0.00    +0.116 A 
ATOM     19  C   UNL     1      -2.712   2.291  25.195  0.00  0.00    +0.044 A 
ATOM     20  C   UNL     1      -4.080   2.375  24.995  0.00  0.00    +0.121 A 
BRANCH  20   8
ATOM      5  O   UNL     1      -5.939   6.107  24.451  0.00  0.00    -0.377 OA
ATOM      8  N   UNL     1      -4.631   3.654  24.865  0.00  0.00    -0.311 N 
ATOM     22  C   UNL     1      -5.942   3.910  25.479  0.00  0.00    +0.134 C 
ATOM     23  C   UNL     1      -4.326   4.465  23.682  0.00  0.00    +0.134 C 
ATOM     24  C   UNL     1      -6.132   5.409  25.680  0.00  0.00    +0.178 C 
ATOM     25  C   UNL     1      -4.602   5.935  23.979  0.00  0.00    +0.178 C 
ENDBRANCH  20   8
ENDBRANCH  10  15
BRANCH  11   6
ATOM      4  O   UNL     1      -0.512   0.202  22.673  0.00  0.00    -0.268 OA
ATOM      6  N   UNL     1      -0.301  -1.651  24.052  0.00  0.00    -0.304 N 
ATOM     18  C   UNL     1       0.183  -0.566  23.334  0.00  0.00    +0.270 C 
ATOM     32  H   UNL     1       0.350  -2.207  24.599  0.00  0.00    +0.149 HD
BRANCH  18  21
ATOM      1  S   UNL     1       2.333   1.154  22.972  0.00  0.00    -0.063 S 
ATOM      9  N   UNL     1       2.497  -1.313  23.705  0.00  0.00    -0.234 NA
ATOM     21  C   UNL     1       1.654  -0.364  23.371  0.00  0.00    +0.164 A 
ATOM     26  C   UNL     1       3.908   0.515  23.262  0.00  0.00    +0.040 A 
ATOM     27  C   UNL     1       3.795  -0.824  23.647  0.00  0.00    +0.079 A 
ATOM     28  C   UNL     1       5.154   1.153  23.159  0.00  0.00    +0.017 A 
ATOM     29  C   UNL     1       4.971  -1.549  23.936  0.00  0.00    +0.029 A 
ATOM     30  C   UNL     1       6.304   0.414  23.451  0.00  0.00    +0.001 A 
ATOM     31  C   UNL     1       6.215  -0.919  23.835  0.00  0.00    +0.002 A 
ENDBRANCH  18  21
ENDBRANCH  11   6
BRANCH  12   2
ATOM      2  O   UNL     1      -1.787  -4.102  22.862  0.00  0.00    -0.387 OA
ATOM     33  H   UNL     1      -1.015  -3.701  22.428  0.00  0.00    +0.210 HD
ENDBRANCH  12   2
BRANCH  14   3
ATOM      3  O   UNL     1      -4.291  -3.299  23.653  0.00  0.00    -0.389 OA
ATOM     34  H   UNL     1      -5.175  -3.503  24.003  0.00  0.00    +0.210 HD
ENDBRANCH  14   3
TORSDOF 6
ENDMDL
MODEL 2
REMARK VINA RESULT:      12.2     15.579     18.183
REMARK  Name = 75536091
REMARK  6 active torsions:
REMARK  status: ('A' for Active; 'I' for Inactive)
REMARK    1  A    between atoms: O_2  and  C_12
REMARK    2  A    between atoms: O_3  and  C_14
REMARK    3  A    between atoms: N_6  and  C_11
REMARK    4  A    between atoms: N_8  and  C_20
REMARK    5  A    between atoms: C_10  and  C_15
REMARK    6  A    between atoms: C_18  and  C_21
REMARK                            x       y       z     vdW  Elec       q    Type
REMARK                         _______ _______ _______ _____ _____    ______ ____
ROOT
ATOM     10  C   UNL     1      13.614  -4.694  30.228  0.00  0.00    +0.046 C 
ATOM     11  C   UNL     1      15.051  -5.257  30.307  0.00  0.00    +0.112 C 
ATOM     12  C   UNL     1      15.903  -4.020  30.589  0.00  0.00    +0.164 C 
ATOM     13  C   UNL     1      13.637  -3.363  31.024  0.00  0.00    +0.044 C 
ATOM     14  C   UNL     1      15.053  -3.232  31.580  0.00  0.00    +0.145 C 
ENDROOT
BRANCH  10  15
ATOM      7  N   UNL     1      10.265  -6.117  31.301  0.00  0.00    -0.240 NA
ATOM     15  C   UNL     1      12.564  -5.681  30.695  0.00  0.00    -0.024 A 
ATOM     16  C   UNL     1      12.891  -7.009  30.948  0.00  0.00    +0.009 A 
ATOM     17  C   UNL     1      11.249  -5.289  30.885  0.00  0.00    +0.116 A 
ATOM     19  C   UNL     1      11.906  -7.891  31.377  0.00  0.00    +0.044 A 
ATOM     20  C   UNL     1      10.620  -7.400  31.536  0.00  0.00    +0.121 A 
BRANCH  20   8
ATOM      5  O   UNL     1       7.659 -10.198  32.577  0.00  0.00    -0.377 OA
ATOM      8  N   UNL     1       9.640  -8.300  31.970  0.00  0.00    -0.311 N 
ATOM     22  C   UNL     1       9.949  -9.736  31.925  0.00  0.00    +0.134 C 
ATOM     23  C   UNL     1       8.220  -7.961  31.824  0.00  0.00    +0.134 C 
ATOM     24  C   UNL     1       9.024 -10.490  32.873  0.00  0.00    +0.178 C 
ATOM     25  C   UNL     1       7.387  -8.810  32.777  0.00  0.00    +0.178 C 
ENDBRANCH  20   8
ENDBRANCH  10  15
BRANCH  11   6
ATOM      4  O   UNL     1      14.122  -7.802  29.355  0.00  0.00    -0.268 OA
ATOM      6  N   UNL     1      15.442  -5.913  29.086  0.00  0.00    -0.304 N 
ATOM     18  C   UNL     1      14.937  -7.150  28.707  0.00  0.00    +0.270 C 
ATOM     32  H   UNL     1      16.087  -5.435  28.463  0.00  0.00    +0.149 HD
BRANCH  18  21
ATOM      1  S   UNL     1      16.377  -6.727  26.371  0.00  0.00    -0.063 S 
ATOM      9  N   UNL     1      15.255  -8.946  27.056  0.00  0.00    -0.234 NA
ATOM     21  C   UNL     1      15.461  -7.705  27.432  0.00  0.00    +0.164 A 
ATOM     26  C   UNL     1      16.531  -8.062  25.290  0.00  0.00    +0.040 A 
ATOM     27  C   UNL     1      15.864  -9.165  25.828  0.00  0.00    +0.079 A 
ATOM     28  C   UNL     1      17.196  -8.128  24.055  0.00  0.00    +0.017 A 
ATOM     29  C   UNL     1      15.862 -10.377  25.104  0.00  0.00    +0.029 A 
ATOM     30  C   UNL     1      17.180  -9.339  23.358  0.00  0.00    +0.001 A 
ATOM     31  C   UNL     1      16.522 -10.449  23.873  0.00  0.00    +0.002 A 
ENDBRANCH  18  21
ENDBRANCH  11   6
BRANCH  12   2
ATOM      2  O   UNL     1      17.161  -4.350  31.144  0.00  0.00    -0.387 OA
ATOM     33  H   UNL     1      17.806  -4.366  30.417  0.00  0.00    +0.210 HD
ENDBRANCH  12   2
BRANCH  14   3
ATOM      3  O   UNL     1      15.092  -3.830  32.872  0.00  0.00    -0.389 OA
ATOM     34  H   UNL     1      15.977  -3.670  33.242  0.00  0.00    +0.210 HD
ENDBRANCH  14   3
TORSDOF 6
ENDMDL
MODEL 3
REMARK VINA RESULT:      14.1      1.465      1.737
REMARK  Name = 75536091
REMARK  6 active torsions:
REMARK  status: ('A' for Active; 'I' for Inactive)
REMARK    1  A    between atoms: O_2  and  C_12
REMARK    2  A    between atoms: O_3  and  C_14
REMARK    3  A    between atoms: N_6  and  C_11
REMARK    4  A    between atoms: N_8  and  C_20
REMARK    5  A    between atoms: C_10  and  C_15
REMARK    6  A    between atoms: C_18  and  C_21
REMARK                            x       y       z     vdW  Elec       q    Type
REMARK                         _______ _______ _______ _____ _____    ______ ____
ROOT
ATOM     10  C   UNL     1      -1.965  -0.564  25.403  0.00  0.00    +0.046 C 
ATOM     11  C   UNL     1      -1.398  -1.406  24.237  0.00  0.00    +0.112 C 
ATOM     12  C   UNL     1      -1.867  -2.824  24.562  0.00  0.00    +0.164 C 
ATOM     13  C   UNL     1      -3.163  -1.372  25.965  0.00  0.00    +0.044 C 
ATOM     14  C   UNL     1      -3.285  -2.610  25.079  0.00  0.00    +0.145 C 
ENDROOT
BRANCH  10  15
ATOM      7  N   UNL     1      -1.759   3.209  25.068  0.00  0.00    -0.240 NA
ATOM     15  C   UNL     1      -2.305   0.855  24.998  0.00  0.00    -0.024 A 
ATOM     16  C   UNL     1      -3.425   1.130  24.221  0.00  0.00    +0.009 A 
ATOM     17  C   UNL     1      -1.511   1.920  25.392  0.00  0.00    +0.116 A 
ATOM     19  C   UNL     1      -3.712   2.444  23.867  0.00  0.00    +0.044 A 
ATOM     20  C   UNL     1      -2.856   3.437  24.311  0.00  0.00    +0.121 A 
BRANCH  20   8
ATOM      5  O   UNL     1      -3.662   7.339  22.966  0.00  0.00    -0.377 OA
ATOM      8  N   UNL     1      -3.158   4.754  23.948  0.00  0.00    -0.311 N 
ATOM     22  C   UNL     1      -4.180   4.970  22.913  0.00  0.00    +0.134 C 
ATOM     23  C   UNL     1      -2.126   5.792  24.033  0.00  0.00    +0.134 C 
ATOM     24  C   UNL     1      -4.726   6.389  23.018  0.00  0.00    +0.178 C 
ATOM     25  C   UNL     1      -2.781   7.168  24.077  0.00  0.00    +0.178 C 
ENDBRANCH  20   8
ENDBRANCH  10  15
BRANCH  11   6
ATOM      4  O   UNL     1       0.120   0.535  22.765  0.00  0.00    -0.268 OA
ATOM      6  N   UNL     1       0.037  -1.319  24.156  0.00  0.00    -0.304 N 
ATOM     18  C   UNL     1       0.686  -0.341  23.414  0.00  0.00    +0.270 C 
ATOM     32  H   UNL     1       0.594  -1.980  24.690  0.00  0.00    +0.149 HD
BRANCH  18  21
ATOM      1  S   UNL     1       3.093   0.909  22.819  0.00  0.00    -0.063 S 
ATOM      9  N   UNL     1       2.843  -1.442  23.850  0.00  0.00    -0.234 NA
ATOM     21  C   UNL     1       2.171  -0.403  23.411  0.00  0.00    +0.164 A 
ATOM     26  C   UNL     1       4.539   0.037  23.169  0.00  0.00    +0.040 A 
ATOM     27  C   UNL     1       4.203  -1.204  23.717  0.00  0.00    +0.079 A 
ATOM     28  C   UNL     1       5.874   0.424  22.974  0.00  0.00    +0.017 A 
ATOM     29  C   UNL     1       5.242  -2.088  24.082  0.00  0.00    +0.029 A 
ATOM     30  C   UNL     1       6.884  -0.470  23.343  0.00  0.00    +0.001 A 
ATOM     31  C   UNL     1       6.574  -1.709  23.890  0.00  0.00    +0.002 A 
ENDBRANCH  18  21
ENDBRANCH  11   6
BRANCH  12   2
ATOM      2  O   UNL     1      -1.859  -3.666  23.425  0.00  0.00    -0.387 OA
ATOM     33  H   UNL     1      -1.419  -3.182  22.706  0.00  0.00    +0.210 HD
ENDBRANCH  12   2
BRANCH  14   3
ATOM      3  O   UNL     1      -4.179  -2.318  24.009  0.00  0.00    -0.389 OA
ATOM     34  H   UNL     1      -4.224  -3.107  23.442  0.00  0.00    +0.210 HD
ENDBRANCH  14   3
TORSDOF 6
ENDMDL
