MODEL 1
REMARK VINA RESULT:       3.6      0.000      0.000
REMARK  Name = 11913301
REMARK  8 active torsions:
REMARK  status: ('A' for Active; 'I' for Inactive)
REMARK    1  A    between atoms: O_4  and  C_25
REMARK    2  A    between atoms: N_7  and  C_14
REMARK    3  A    between atoms: N_8  and  C_17
REMARK    4  A    between atoms: C_11  and  C_18
REMARK    5  A    between atoms: C_11  and  C_22
REMARK    6  A    between atoms: C_18  and  C_24
REMARK    7  A    between atoms: C_22  and  C_25
REMARK    8  A    between atoms: C_27  and  C_30
REMARK                            x       y       z     vdW  Elec       q    Type
REMARK                         _______ _______ _______ _____ _____    ______ ____
ROOT
ATOM      1  O   UNL     1      -1.150  -1.016  26.235  0.00  0.00    -0.370 OA
ATOM      2  O   UNL     1      -2.886  -2.664  24.233  0.00  0.00    -0.370 OA
ATOM     12  C   UNL     1      -2.057  -1.498  24.089  0.00  0.00    +0.171 C 
ATOM     13  C   UNL     1      -2.226  -0.668  25.346  0.00  0.00    +0.171 C 
ATOM     14  C   UNL     1      -0.597  -1.888  24.099  0.00  0.00    +0.130 C 
ATOM     17  C   UNL     1      -3.546  -1.126  25.918  0.00  0.00    +0.130 C 
ATOM     21  C   UNL     1      -0.289  -1.961  25.583  0.00  0.00    +0.185 C 
ATOM     23  C   UNL     1      -3.625  -2.571  25.460  0.00  0.00    +0.185 C 
ENDROOT
BRANCH  17   8
ATOM      8  N   UNL     1      -4.629  -0.359  25.341  0.00  0.00    -0.306 N 
ATOM      9  N   UNL     1      -3.355   1.582  25.296  0.00  0.00    -0.211 NA
ATOM     10  N   UNL     1      -5.628   1.559  24.496  0.00  0.00    -0.223 NA
ATOM     26  C   UNL     1      -4.533   0.986  25.031  0.00  0.00    +0.216 A 
ATOM     27  C   UNL     1      -3.297   2.893  24.981  0.00  0.00    +0.111 A 
ATOM     28  C   UNL     1      -5.500   2.871  24.206  0.00  0.00    +0.116 A 
ATOM     29  C   UNL     1      -4.348   3.597  24.428  0.00  0.00    +0.051 A 
ATOM     35  H   UNL     1      -5.495  -0.826  25.095  0.00  0.00    +0.149 HD
BRANCH  27  30
ATOM      6  O   UNL     1      -1.257   2.886  26.177  0.00  0.00    -0.461 OA
ATOM     30  C   UNL     1      -2.037   3.526  25.267  0.00  0.00    +0.153 A 
ATOM     31  C   UNL     1      -1.416   4.668  24.817  0.00  0.00    +0.051 A 
ATOM     32  C   UNL     1      -0.176   4.735  25.495  0.00  0.00    +0.042 A 
ATOM     33  C   UNL     1      -0.126   3.629  26.310  0.00  0.00    +0.196 A 
ENDBRANCH  27  30
ENDBRANCH  17   8
BRANCH  14   7
ATOM      3  O   UNL     1       0.576  -2.035  21.456  0.00  0.00    -0.276 OA
ATOM      7  N   UNL     1       0.214  -0.888  23.445  0.00  0.00    -0.308 N 
ATOM     24  C   UNL     1       0.736  -1.048  22.168  0.00  0.00    +0.214 C 
ATOM     34  H   UNL     1       0.377  -0.018  23.943  0.00  0.00    +0.149 HD
BRANCH  24  18
ATOM     18  C   UNL     1       1.544   0.164  21.739  0.00  0.00    +0.103 C 
BRANCH  18  11
ATOM     11  C   UNL     1       2.723   0.446  22.672  0.00  0.00    -0.011 C 
ATOM     15  C   UNL     1       4.016   0.702  21.886  0.00  0.00    +0.008 C 
ATOM     16  C   UNL     1       3.101  -0.794  23.495  0.00  0.00    +0.008 C 
ATOM     19  C   UNL     1       5.145   0.388  22.865  0.00  0.00    +0.001 C 
ATOM     20  C   UNL     1       4.556  -0.574  23.899  0.00  0.00    +0.001 C 
BRANCH  11  22
ATOM     22  C   UNL     1       2.377   1.636  23.582  0.00  0.00    +0.127 C 
BRANCH  22  25
ATOM      5  O   UNL     1      -0.006   1.984  23.199  0.00  0.00    -0.251 OA
ATOM     25  C   UNL     1       0.917   1.650  23.927  0.00  0.00    +0.305 C 
BRANCH  25   4
ATOM      4  O   UNL     1       0.752   1.226  25.206  0.00  0.00    -0.481 OA
ATOM     36  H   UNL     1       0.872   1.956  25.852  0.00  0.00    +0.295 HD
ENDBRANCH  25   4
ENDBRANCH  22  25
ENDBRANCH  11  22
ENDBRANCH  18  11
ENDBRANCH  24  18
ENDBRANCH  14   7
TORSDOF 8
ENDMDL
MODEL 2
REMARK VINA RESULT:       4.9      1.611      2.243
REMARK  Name = 11913301
REMARK  8 active torsions:
REMARK  status: ('A' for Active; 'I' for Inactive)
REMARK    1  A    between atoms: O_4  and  C_25
REMARK    2  A    between atoms: N_7  and  C_14
REMARK    3  A    between atoms: N_8  and  C_17
REMARK    4  A    between atoms: C_11  and  C_18
REMARK    5  A    between atoms: C_11  and  C_22
REMARK    6  A    between atoms: C_18  and  C_24
REMARK    7  A    between atoms: C_22  and  C_25
REMARK    8  A    between atoms: C_27  and  C_30
REMARK                            x       y       z     vdW  Elec       q    Type
REMARK                         _______ _______ _______ _____ _____    ______ ____
ROOT
ATOM      1  O   UNL     1      -2.500  -1.385  26.333  0.00  0.00    -0.370 OA
ATOM      2  O   UNL     1      -3.541  -1.715  23.410  0.00  0.00    -0.370 OA
ATOM     12  C   UNL     1      -2.511  -0.905  24.003  0.00  0.00    +0.171 C 
ATOM     13  C   UNL     1      -3.017  -0.459  25.361  0.00  0.00    +0.171 C 
ATOM     14  C   UNL     1      -1.297  -1.747  24.320  0.00  0.00    +0.130 C 
ATOM     17  C   UNL     1      -4.518  -0.591  25.260  0.00  0.00    +0.130 C 
ATOM     21  C   UNL     1      -1.654  -2.337  25.672  0.00  0.00    +0.185 C 
ATOM     23  C   UNL     1      -4.686  -1.732  24.274  0.00  0.00    +0.185 C 
ENDROOT
BRANCH  17   8
ATOM      8  N   UNL     1      -5.086   0.625  24.719  0.00  0.00    -0.306 N 
ATOM      9  N   UNL     1      -3.173   1.848  25.206  0.00  0.00    -0.211 NA
ATOM     10  N   UNL     1      -5.080   2.877  24.152  0.00  0.00    -0.223 NA
ATOM     26  C   UNL     1      -4.417   1.836  24.691  0.00  0.00    +0.216 A 
ATOM     27  C   UNL     1      -2.550   3.045  25.162  0.00  0.00    +0.111 A 
ATOM     28  C   UNL     1      -4.399   4.041  24.141  0.00  0.00    +0.116 A 
ATOM     29  C   UNL     1      -3.119   4.187  24.637  0.00  0.00    +0.051 A 
ATOM     35  H   UNL     1      -6.002   0.597  24.285  0.00  0.00    +0.149 HD
BRANCH  27  30
ATOM      6  O   UNL     1      -0.962   2.075  26.621  0.00  0.00    -0.461 OA
ATOM     30  C   UNL     1      -1.222   3.052  25.715  0.00  0.00    +0.153 A 
ATOM     31  C   UNL     1      -0.115   3.848  25.531  0.00  0.00    +0.051 A 
ATOM     32  C   UNL     1       0.890   3.326  26.381  0.00  0.00    +0.042 A 
ATOM     33  C   UNL     1       0.326   2.248  27.022  0.00  0.00    +0.196 A 
ENDBRANCH  27  30
ENDBRANCH  17   8
BRANCH  14   7
ATOM      3  O   UNL     1      -0.814   0.794  23.018  0.00  0.00    -0.276 OA
ATOM      7  N   UNL     1      -0.106  -0.935  24.402  0.00  0.00    -0.308 N 
ATOM     24  C   UNL     1       0.036   0.277  23.738  0.00  0.00    +0.214 C 
ATOM     34  H   UNL     1       0.645  -1.263  25.002  0.00  0.00    +0.149 HD
BRANCH  24  18
ATOM     18  C   UNL     1       1.389   0.909  24.010  0.00  0.00    +0.103 C 
BRANCH  18  11
ATOM     11  C   UNL     1       2.502   0.311  23.148  0.00  0.00    -0.011 C 
ATOM     15  C   UNL     1       3.556   1.362  22.778  0.00  0.00    +0.008 C 
ATOM     16  C   UNL     1       1.982  -0.108  21.765  0.00  0.00    +0.008 C 
ATOM     19  C   UNL     1       4.226   0.826  21.515  0.00  0.00    +0.001 C 
ATOM     20  C   UNL     1       3.214  -0.118  20.864  0.00  0.00    +0.001 C 
BRANCH  11  22
ATOM     22  C   UNL     1       3.134  -0.878  23.889  0.00  0.00    +0.127 C 
BRANCH  22  25
ATOM      5  O   UNL     1       5.106   0.388  24.562  0.00  0.00    -0.251 OA
ATOM     25  C   UNL     1       4.593  -0.643  24.153  0.00  0.00    +0.305 C 
BRANCH  25   4
ATOM      4  O   UNL     1       5.290  -1.772  23.867  0.00  0.00    -0.481 OA
ATOM     36  H   UNL     1       5.671  -2.181  24.673  0.00  0.00    +0.295 HD
ENDBRANCH  25   4
ENDBRANCH  22  25
ENDBRANCH  11  22
ENDBRANCH  18  11
ENDBRANCH  24  18
ENDBRANCH  14   7
TORSDOF 8
ENDMDL
MODEL 3
REMARK VINA RESULT:       5.2      2.376      5.656
REMARK  Name = 11913301
REMARK  8 active torsions:
REMARK  status: ('A' for Active; 'I' for Inactive)
REMARK    1  A    between atoms: O_4  and  C_25
REMARK    2  A    between atoms: N_7  and  C_14
REMARK    3  A    between atoms: N_8  and  C_17
REMARK    4  A    between atoms: C_11  and  C_18
REMARK    5  A    between atoms: C_11  and  C_22
REMARK    6  A    between atoms: C_18  and  C_24
REMARK    7  A    between atoms: C_22  and  C_25
REMARK    8  A    between atoms: C_27  and  C_30
REMARK                            x       y       z     vdW  Elec       q    Type
REMARK                         _______ _______ _______ _____ _____    ______ ____
ROOT
ATOM      1  O   UNL     1      -0.418   0.697  26.106  0.00  0.00    -0.370 OA
ATOM      2  O   UNL     1       0.871  -0.302  23.446  0.00  0.00    -0.370 OA
ATOM     12  C   UNL     1      -0.354   0.387  23.749  0.00  0.00    +0.171 C 
ATOM     13  C   UNL     1      -0.875  -0.174  25.057  0.00  0.00    +0.171 C 
ATOM     14  C   UNL     1      -0.078   1.841  24.056  0.00  0.00    +0.130 C 
ATOM     17  C   UNL     1      -0.210  -1.525  25.172  0.00  0.00    +0.130 C 
ATOM     21  C   UNL     1       0.297   1.798  25.525  0.00  0.00    +0.185 C 
ATOM     23  C   UNL     1       1.101  -1.314  24.437  0.00  0.00    +0.185 C 
ENDROOT
BRANCH  17   8
ATOM      8  N   UNL     1      -1.005  -2.528  24.497  0.00  0.00    -0.306 N 
ATOM      9  N   UNL     1      -2.952  -1.285  24.743  0.00  0.00    -0.211 NA
ATOM     10  N   UNL     1      -2.966  -3.426  23.637  0.00  0.00    -0.223 NA
ATOM     26  C   UNL     1      -2.367  -2.408  24.284  0.00  0.00    +0.216 A 
ATOM     27  C   UNL     1      -4.280  -1.201  24.518  0.00  0.00    +0.111 A 
ATOM     28  C   UNL     1      -4.294  -3.276  23.446  0.00  0.00    +0.116 A 
ATOM     29  C   UNL     1      -5.010  -2.175  23.868  0.00  0.00    +0.051 A 
ATOM     35  H   UNL     1      -0.550  -3.346  24.107  0.00  0.00    +0.149 HD
BRANCH  27  30
ATOM      6  O   UNL     1      -5.703   0.647  24.128  0.00  0.00    -0.461 OA
ATOM     30  C   UNL     1      -4.899  -0.001  25.012  0.00  0.00    +0.153 A 
ATOM     31  C   UNL     1      -4.867   0.667  26.214  0.00  0.00    +0.051 A 
ATOM     32  C   UNL     1      -5.703   1.798  26.058  0.00  0.00    +0.042 A 
ATOM     33  C   UNL     1      -6.188   1.741  24.773  0.00  0.00    +0.196 A 
ENDBRANCH  27  30
ENDBRANCH  17   8
BRANCH  14   7
ATOM      3  O   UNL     1      -2.407   1.168  22.473  0.00  0.00    -0.276 OA
ATOM      7  N   UNL     1      -1.252   2.653  23.838  0.00  0.00    -0.308 N 
ATOM     24  C   UNL     1      -2.326   2.244  23.058  0.00  0.00    +0.214 C 
ATOM     34  H   UNL     1      -1.293   3.552  24.309  0.00  0.00    +0.149 HD
BRANCH  24  18
ATOM     18  C   UNL     1      -3.416   3.299  23.012  0.00  0.00    +0.103 C 
BRANCH  18  11
ATOM     11  C   UNL     1      -3.413   4.203  24.246  0.00  0.00    -0.011 C 
ATOM     15  C   UNL     1      -2.923   3.455  25.493  0.00  0.00    +0.008 C 
ATOM     16  C   UNL     1      -4.838   4.598  24.660  0.00  0.00    +0.008 C 
ATOM     19  C   UNL     1      -3.504   4.230  26.674  0.00  0.00    +0.001 C 
ATOM     20  C   UNL     1      -4.735   4.963  26.139  0.00  0.00    +0.001 C 
BRANCH  11  22
ATOM     22  C   UNL     1      -2.551   5.444  23.963  0.00  0.00    +0.127 C 
BRANCH  22  25
ATOM      5  O   UNL     1      -0.752   5.093  25.571  0.00  0.00    -0.251 OA
ATOM     25  C   UNL     1      -1.136   5.240  24.421  0.00  0.00    +0.305 C 
BRANCH  25   4
ATOM      4  O   UNL     1      -0.310   5.241  23.344  0.00  0.00    -0.481 OA
ATOM     36  H   UNL     1      -0.163   4.336  22.995  0.00  0.00    +0.295 HD
ENDBRANCH  25   4
ENDBRANCH  22  25
ENDBRANCH  11  22
ENDBRANCH  18  11
ENDBRANCH  24  18
ENDBRANCH  14   7
TORSDOF 8
ENDMDL
MODEL 4
REMARK VINA RESULT:       5.5      1.406      4.149
REMARK  Name = 11913301
REMARK  8 active torsions:
REMARK  status: ('A' for Active; 'I' for Inactive)
REMARK    1  A    between atoms: O_4  and  C_25
REMARK    2  A    between atoms: N_7  and  C_14
REMARK    3  A    between atoms: N_8  and  C_17
REMARK    4  A    between atoms: C_11  and  C_18
REMARK    5  A    between atoms: C_11  and  C_22
REMARK    6  A    between atoms: C_18  and  C_24
REMARK    7  A    between atoms: C_22  and  C_25
REMARK    8  A    between atoms: C_27  and  C_30
REMARK                            x       y       z     vdW  Elec       q    Type
REMARK                         _______ _______ _______ _____ _____    ______ ____
ROOT
ATOM      1  O   UNL     1      -0.980   4.143  24.121  0.00  0.00    -0.370 OA
ATOM      2  O   UNL     1      -2.372   3.659  26.872  0.00  0.00    -0.370 OA
ATOM     12  C   UNL     1      -1.880   2.777  25.849  0.00  0.00    +0.171 C 
ATOM     13  C   UNL     1      -2.168   3.432  24.512  0.00  0.00    +0.171 C 
ATOM     14  C   UNL     1      -0.371   2.700  25.903  0.00  0.00    +0.130 C 
ATOM     17  C   UNL     1      -3.285   4.404  24.810  0.00  0.00    +0.130 C 
ATOM     21  C   UNL     1       0.046   3.917  25.098  0.00  0.00    +0.185 C 
ATOM     23  C   UNL     1      -3.025   4.779  26.257  0.00  0.00    +0.185 C 
ENDROOT
BRANCH  17   8
ATOM      8  N   UNL     1      -4.565   3.739  24.689  0.00  0.00    -0.306 N 
ATOM      9  N   UNL     1      -3.600   1.638  24.906  0.00  0.00    -0.211 NA
ATOM     10  N   UNL     1      -5.978   1.897  24.613  0.00  0.00    -0.223 NA
ATOM     26  C   UNL     1      -4.720   2.364  24.737  0.00  0.00    +0.216 A 
ATOM     27  C   UNL     1      -3.788   0.302  24.949  0.00  0.00    +0.111 A 
ATOM     28  C   UNL     1      -6.092   0.554  24.664  0.00  0.00    +0.116 A 
ATOM     29  C   UNL     1      -5.024  -0.302  24.833  0.00  0.00    +0.051 A 
ATOM     35  H   UNL     1      -5.410   4.293  24.616  0.00  0.00    +0.149 HD
BRANCH  27  30
ATOM      6  O   UNL     1      -1.971  -0.321  26.328  0.00  0.00    -0.461 OA
ATOM     30  C   UNL     1      -2.588  -0.470  25.127  0.00  0.00    +0.153 A 
ATOM     31  C   UNL     1      -1.895  -1.357  24.336  0.00  0.00    +0.051 A 
ATOM     32  C   UNL     1      -0.780  -1.778  25.099  0.00  0.00    +0.042 A 
ATOM     33  C   UNL     1      -0.872  -1.120  26.303  0.00  0.00    +0.196 A 
ENDBRANCH  27  30
ENDBRANCH  17   8
BRANCH  14   7
ATOM      3  O   UNL     1       1.442   2.454  23.659  0.00  0.00    -0.276 OA
ATOM      7  N   UNL     1       0.111   1.481  25.297  0.00  0.00    -0.308 N 
ATOM     24  C   UNL     1       0.984   1.461  24.217  0.00  0.00    +0.214 C 
ATOM     34  H   UNL     1      -0.187   0.603  25.711  0.00  0.00    +0.149 HD
BRANCH  24  18
ATOM     18  C   UNL     1       1.320   0.042  23.797  0.00  0.00    +0.103 C 
BRANCH  18  11
ATOM     11  C   UNL     1       2.676  -0.058  23.094  0.00  0.00    -0.011 C 
ATOM     15  C   UNL     1       3.554  -1.152  23.714  0.00  0.00    +0.008 C 
ATOM     16  C   UNL     1       3.529   1.197  23.331  0.00  0.00    +0.008 C 
ATOM     19  C   UNL     1       4.986  -0.765  23.353  0.00  0.00    +0.001 C 
ATOM     20  C   UNL     1       4.970   0.745  23.107  0.00  0.00    +0.001 C 
BRANCH  11  22
ATOM     22  C   UNL     1       2.452  -0.304  21.593  0.00  0.00    +0.127 C 
BRANCH  22  25
ATOM      5  O   UNL     1       0.168  -0.967  22.131  0.00  0.00    -0.251 OA
ATOM     25  C   UNL     1       1.028  -0.687  21.310  0.00  0.00    +0.305 C 
BRANCH  25   4
ATOM      4  O   UNL     1       0.817  -0.678  19.969  0.00  0.00    -0.481 OA
ATOM     36  H   UNL     1       1.209   0.114  19.543  0.00  0.00    +0.295 HD
ENDBRANCH  25   4
ENDBRANCH  22  25
ENDBRANCH  11  22
ENDBRANCH  18  11
ENDBRANCH  24  18
ENDBRANCH  14   7
TORSDOF 8
ENDMDL
MODEL 5
REMARK VINA RESULT:       5.7      2.337      5.871
REMARK  Name = 11913301
REMARK  8 active torsions:
REMARK  status: ('A' for Active; 'I' for Inactive)
REMARK    1  A    between atoms: O_4  and  C_25
REMARK    2  A    between atoms: N_7  and  C_14
REMARK    3  A    between atoms: N_8  and  C_17
REMARK    4  A    between atoms: C_11  and  C_18
REMARK    5  A    between atoms: C_11  and  C_22
REMARK    6  A    between atoms: C_18  and  C_24
REMARK    7  A    between atoms: C_22  and  C_25
REMARK    8  A    between atoms: C_27  and  C_30
REMARK                            x       y       z     vdW  Elec       q    Type
REMARK                         _______ _______ _______ _____ _____    ______ ____
ROOT
ATOM      1  O   UNL     1      -0.339   0.735  25.997  0.00  0.00    -0.370 OA
ATOM      2  O   UNL     1       0.806  -0.111  23.220  0.00  0.00    -0.370 OA
ATOM     12  C   UNL     1      -0.444   0.467  23.636  0.00  0.00    +0.171 C 
ATOM     13  C   UNL     1      -0.806  -0.156  24.970  0.00  0.00    +0.171 C 
ATOM     14  C   UNL     1      -0.265   1.934  23.951  0.00  0.00    +0.130 C 
ATOM     17  C   UNL     1      -0.023  -1.447  25.001  0.00  0.00    +0.130 C 
ATOM     21  C   UNL     1       0.231   1.901  25.385  0.00  0.00    +0.185 C 
ATOM     23  C   UNL     1       1.201  -1.115  24.167  0.00  0.00    +0.185 C 
ENDROOT
BRANCH  17   8
ATOM      8  N   UNL     1      -0.784  -2.504  24.371  0.00  0.00    -0.306 N 
ATOM      9  N   UNL     1      -2.784  -1.357  24.649  0.00  0.00    -0.211 NA
ATOM     10  N   UNL     1      -2.720  -3.520  23.589  0.00  0.00    -0.223 NA
ATOM     26  C   UNL     1      -2.156  -2.458  24.196  0.00  0.00    +0.216 A 
ATOM     27  C   UNL     1      -4.121  -1.346  24.462  0.00  0.00    +0.111 A 
ATOM     28  C   UNL     1      -4.058  -3.442  23.435  0.00  0.00    +0.116 A 
ATOM     29  C   UNL     1      -4.818  -2.370  23.855  0.00  0.00    +0.051 A 
ATOM     35  H   UNL     1      -0.299  -3.306  23.985  0.00  0.00    +0.149 HD
BRANCH  27  30
ATOM      6  O   UNL     1      -5.751   0.335  24.135  0.00  0.00    -0.461 OA
ATOM     30  C   UNL     1      -4.788  -0.168  24.949  0.00  0.00    +0.153 A 
ATOM     31  C   UNL     1      -4.672   0.593  26.089  0.00  0.00    +0.051 A 
ATOM     32  C   UNL     1      -5.626   1.632  25.967  0.00  0.00    +0.042 A 
ATOM     33  C   UNL     1      -6.257   1.431  24.761  0.00  0.00    +0.196 A 
ENDBRANCH  27  30
ENDBRANCH  17   8
BRANCH  14   7
ATOM      3  O   UNL     1      -2.557   1.224  22.330  0.00  0.00    -0.276 OA
ATOM      7  N   UNL     1      -1.517   2.646  23.847  0.00  0.00    -0.308 N 
ATOM     24  C   UNL     1      -2.566   2.227  23.038  0.00  0.00    +0.214 C 
ATOM     34  H   UNL     1      -1.633   3.475  24.421  0.00  0.00    +0.149 HD
BRANCH  24  18
ATOM     18  C   UNL     1      -3.753   3.167  23.132  0.00  0.00    +0.103 C 
BRANCH  18  11
ATOM     11  C   UNL     1      -3.573   4.238  24.210  0.00  0.00    -0.011 C 
ATOM     15  C   UNL     1      -2.365   5.137  23.917  0.00  0.00    +0.008 C 
ATOM     16  C   UNL     1      -3.181   3.619  25.560  0.00  0.00    +0.008 C 
ATOM     19  C   UNL     1      -1.967   5.720  25.271  0.00  0.00    +0.001 C 
ATOM     20  C   UNL     1      -2.491   4.745  26.326  0.00  0.00    +0.001 C 
BRANCH  11  22
ATOM     22  C   UNL     1      -4.867   5.060  24.328  0.00  0.00    +0.127 C 
BRANCH  22  25
ATOM      5  O   UNL     1      -5.252   3.960  26.470  0.00  0.00    -0.251 OA
ATOM     25  C   UNL     1      -5.604   4.738  25.595  0.00  0.00    +0.305 C 
BRANCH  25   4
ATOM      4  O   UNL     1      -6.757   5.453  25.640  0.00  0.00    -0.481 OA
ATOM     36  H   UNL     1      -6.736   6.136  26.345  0.00  0.00    +0.295 HD
ENDBRANCH  25   4
ENDBRANCH  22  25
ENDBRANCH  11  22
ENDBRANCH  18  11
ENDBRANCH  24  18
ENDBRANCH  14   7
TORSDOF 8
ENDMDL
MODEL 6
REMARK VINA RESULT:       5.9      1.934      5.705
REMARK  Name = 11913301
REMARK  8 active torsions:
REMARK  status: ('A' for Active; 'I' for Inactive)
REMARK    1  A    between atoms: O_4  and  C_25
REMARK    2  A    between atoms: N_7  and  C_14
REMARK    3  A    between atoms: N_8  and  C_17
REMARK    4  A    between atoms: C_11  and  C_18
REMARK    5  A    between atoms: C_11  and  C_22
REMARK    6  A    between atoms: C_18  and  C_24
REMARK    7  A    between atoms: C_22  and  C_25
REMARK    8  A    between atoms: C_27  and  C_30
REMARK                            x       y       z     vdW  Elec       q    Type
REMARK                         _______ _______ _______ _____ _____    ______ ____
ROOT
ATOM      1  O   UNL     1      -3.495   0.750  22.833  0.00  0.00    -0.370 OA
ATOM      2  O   UNL     1      -5.400  -0.773  24.781  0.00  0.00    -0.370 OA
ATOM     12  C   UNL     1      -4.309   0.141  24.985  0.00  0.00    +0.171 C 
ATOM     13  C   UNL     1      -3.266  -0.159  23.925  0.00  0.00    +0.171 C 
ATOM     14  C   UNL     1      -4.745   1.556  24.682  0.00  0.00    +0.130 C 
ATOM     17  C   UNL     1      -3.568  -1.576  23.499  0.00  0.00    +0.130 C 
ATOM     21  C   UNL     1      -4.571   1.636  23.177  0.00  0.00    +0.185 C 
ATOM     23  C   UNL     1      -5.067  -1.678  23.717  0.00  0.00    +0.185 C 
ENDROOT
BRANCH  17   8
ATOM      8  N   UNL     1      -2.873  -2.510  24.358  0.00  0.00    -0.306 N 
ATOM      9  N   UNL     1      -0.840  -1.432  24.044  0.00  0.00    -0.211 NA
ATOM     10  N   UNL     1      -1.019  -3.381  25.451  0.00  0.00    -0.223 NA
ATOM     26  C   UNL     1      -1.518  -2.438  24.629  0.00  0.00    +0.216 A 
ATOM     27  C   UNL     1       0.478  -1.392  24.330  0.00  0.00    +0.111 A 
ATOM     28  C   UNL     1       0.305  -3.280  25.693  0.00  0.00    +0.116 A 
ATOM     29  C   UNL     1       1.111  -2.298  25.156  0.00  0.00    +0.051 A 
ATOM     35  H   UNL     1      -3.399  -3.233  24.837  0.00  0.00    +0.149 HD
BRANCH  27  30
ATOM      6  O   UNL     1       2.388  -0.660  23.144  0.00  0.00    -0.461 OA
ATOM     30  C   UNL     1       1.198  -0.317  23.701  0.00  0.00    +0.153 A 
ATOM     31  C   UNL     1       0.952   1.025  23.526  0.00  0.00    +0.051 A 
ATOM     32  C   UNL     1       2.064   1.540  22.817  0.00  0.00    +0.042 A 
ATOM     33  C   UNL     1       2.909   0.476  22.608  0.00  0.00    +0.196 A 
ENDBRANCH  27  30
ENDBRANCH  17   8
BRANCH  14   7
ATOM      3  O   UNL     1      -5.414   4.285  25.381  0.00  0.00    -0.276 OA
ATOM      7  N   UNL     1      -3.905   2.516  25.358  0.00  0.00    -0.308 N 
ATOM     24  C   UNL     1      -4.314   3.811  25.653  0.00  0.00    +0.214 C 
ATOM     34  H   UNL     1      -2.984   2.207  25.653  0.00  0.00    +0.149 HD
BRANCH  24  18
ATOM     18  C   UNL     1      -3.227   4.591  26.368  0.00  0.00    +0.103 C 
BRANCH  18  11
ATOM     11  C   UNL     1      -1.843   4.370  25.754  0.00  0.00    -0.011 C 
ATOM     15  C   UNL     1      -1.244   5.680  25.225  0.00  0.00    +0.008 C 
ATOM     16  C   UNL     1      -1.921   3.525  24.474  0.00  0.00    +0.008 C 
ATOM     19  C   UNL     1      -0.219   5.253  24.177  0.00  0.00    +0.001 C 
ATOM     20  C   UNL     1      -0.655   3.868  23.694  0.00  0.00    +0.001 C 
BRANCH  11  22
ATOM     22  C   UNL     1      -0.924   3.716  26.799  0.00  0.00    +0.127 C 
BRANCH  22  25
ATOM      5  O   UNL     1      -1.187   1.426  26.005  0.00  0.00    -0.251 OA
ATOM     25  C   UNL     1      -0.475   2.355  26.354  0.00  0.00    +0.305 C 
BRANCH  25   4
ATOM      4  O   UNL     1       0.881   2.293  26.392  0.00  0.00    -0.481 OA
ATOM     36  H   UNL     1       1.287   3.186  26.410  0.00  0.00    +0.295 HD
ENDBRANCH  25   4
ENDBRANCH  22  25
ENDBRANCH  11  22
ENDBRANCH  18  11
ENDBRANCH  24  18
ENDBRANCH  14   7
TORSDOF 8
ENDMDL
MODEL 7
REMARK VINA RESULT:       6.6      2.233      5.313
REMARK  Name = 11913301
REMARK  8 active torsions:
REMARK  status: ('A' for Active; 'I' for Inactive)
REMARK    1  A    between atoms: O_4  and  C_25
REMARK    2  A    between atoms: N_7  and  C_14
REMARK    3  A    between atoms: N_8  and  C_17
REMARK    4  A    between atoms: C_11  and  C_18
REMARK    5  A    between atoms: C_11  and  C_22
REMARK    6  A    between atoms: C_18  and  C_24
REMARK    7  A    between atoms: C_22  and  C_25
REMARK    8  A    between atoms: C_27  and  C_30
REMARK                            x       y       z     vdW  Elec       q    Type
REMARK                         _______ _______ _______ _____ _____    ______ ____
ROOT
ATOM      1  O   UNL     1      -1.594   3.589  23.094  0.00  0.00    -0.370 OA
ATOM      2  O   UNL     1      -1.493   5.693  25.397  0.00  0.00    -0.370 OA
ATOM     12  C   UNL     1      -1.437   4.256  25.372  0.00  0.00    +0.171 C 
ATOM     13  C   UNL     1      -2.380   3.787  24.282  0.00  0.00    +0.171 C 
ATOM     14  C   UNL     1      -0.076   3.792  24.906  0.00  0.00    +0.130 C 
ATOM     17  C   UNL     1      -3.332   4.944  24.093  0.00  0.00    +0.130 C 
ATOM     21  C   UNL     1      -0.214   3.843  23.396  0.00  0.00    +0.185 C 
ATOM     23  C   UNL     1      -2.474   6.144  24.451  0.00  0.00    +0.185 C 
ENDROOT
BRANCH  17   8
ATOM      8  N   UNL     1      -4.441   4.829  25.016  0.00  0.00    -0.306 N 
ATOM      9  N   UNL     1      -4.595   2.535  24.693  0.00  0.00    -0.211 NA
ATOM     10  N   UNL     1      -6.084   3.689  26.197  0.00  0.00    -0.223 NA
ATOM     26  C   UNL     1      -5.068   3.632  25.314  0.00  0.00    +0.216 A 
ATOM     27  C   UNL     1      -5.229   1.386  25.007  0.00  0.00    +0.111 A 
ATOM     28  C   UNL     1      -6.671   2.504  26.464  0.00  0.00    +0.116 A 
ATOM     29  C   UNL     1      -6.283   1.309  25.895  0.00  0.00    +0.051 A 
ATOM     35  H   UNL     1      -4.757   5.650  25.521  0.00  0.00    +0.149 HD
BRANCH  27  30
ATOM      6  O   UNL     1      -3.815   0.454  23.357  0.00  0.00    -0.461 OA
ATOM     30  C   UNL     1      -4.723   0.217  24.340  0.00  0.00    +0.153 A 
ATOM     31  C   UNL     1      -4.952  -1.134  24.470  0.00  0.00    +0.051 A 
ATOM     32  C   UNL     1      -4.132  -1.766  23.504  0.00  0.00    +0.042 A 
ATOM     33  C   UNL     1      -3.460  -0.758  22.854  0.00  0.00    +0.196 A 
ENDBRANCH  27  30
ENDBRANCH  17   8
BRANCH  14   7
ATOM      3  O   UNL     1      -1.922   1.949  26.163  0.00  0.00    -0.276 OA
ATOM      7  N   UNL     1       0.202   2.450  25.362  0.00  0.00    -0.308 N 
ATOM     24  C   UNL     1      -0.753   1.636  25.957  0.00  0.00    +0.214 C 
ATOM     34  H   UNL     1       1.137   2.087  25.206  0.00  0.00    +0.149 HD
BRANCH  24  18
ATOM     18  C   UNL     1      -0.178   0.282  26.330  0.00  0.00    +0.103 C 
BRANCH  18  11
ATOM     11  C   UNL     1      -0.596  -0.823  25.357  0.00  0.00    -0.011 C 
ATOM     15  C   UNL     1      -1.883  -1.521  25.814  0.00  0.00    +0.008 C 
ATOM     16  C   UNL     1       0.406  -1.987  25.361  0.00  0.00    +0.008 C 
ATOM     19  C   UNL     1      -1.853  -2.891  25.141  0.00  0.00    +0.001 C 
ATOM     20  C   UNL     1      -0.381  -3.190  24.850  0.00  0.00    +0.001 C 
BRANCH  11  22
ATOM     22  C   UNL     1      -0.752  -0.227  23.949  0.00  0.00    +0.127 C 
BRANCH  22  25
ATOM      5  O   UNL     1       0.861  -0.999  22.291  0.00  0.00    -0.251 OA
ATOM     25  C   UNL     1       0.549  -0.245  23.202  0.00  0.00    +0.305 C 
BRANCH  25   4
ATOM      4  O   UNL     1       1.364   0.724  23.690  0.00  0.00    -0.481 OA
ATOM     36  H   UNL     1       1.477   0.651  24.662  0.00  0.00    +0.295 HD
ENDBRANCH  25   4
ENDBRANCH  22  25
ENDBRANCH  11  22
ENDBRANCH  18  11
ENDBRANCH  24  18
ENDBRANCH  14   7
TORSDOF 8
ENDMDL
MODEL 8
REMARK VINA RESULT:       6.7      1.530      2.749
REMARK  Name = 11913301
REMARK  8 active torsions:
REMARK  status: ('A' for Active; 'I' for Inactive)
REMARK    1  A    between atoms: O_4  and  C_25
REMARK    2  A    between atoms: N_7  and  C_14
REMARK    3  A    between atoms: N_8  and  C_17
REMARK    4  A    between atoms: C_11  and  C_18
REMARK    5  A    between atoms: C_11  and  C_22
REMARK    6  A    between atoms: C_18  and  C_24
REMARK    7  A    between atoms: C_22  and  C_25
REMARK    8  A    between atoms: C_27  and  C_30
REMARK                            x       y       z     vdW  Elec       q    Type
REMARK                         _______ _______ _______ _____ _____    ______ ____
ROOT
ATOM      1  O   UNL     1      -3.386  -0.878  26.367  0.00  0.00    -0.370 OA
ATOM      2  O   UNL     1      -4.949  -0.791  23.667  0.00  0.00    -0.370 OA
ATOM     12  C   UNL     1      -3.554  -0.688  24.001  0.00  0.00    +0.171 C 
ATOM     13  C   UNL     1      -3.459   0.086  25.302  0.00  0.00    +0.171 C 
ATOM     14  C   UNL     1      -2.993  -2.049  24.341  0.00  0.00    +0.130 C 
ATOM     17  C   UNL     1      -4.760   0.849  25.375  0.00  0.00    +0.130 C 
ATOM     21  C   UNL     1      -3.364  -2.199  25.805  0.00  0.00    +0.185 C 
ATOM     23  C   UNL     1      -5.722  -0.059  24.629  0.00  0.00    +0.185 C 
ENDROOT
BRANCH  17   8
ATOM      8  N   UNL     1      -4.632   2.114  24.685  0.00  0.00    -0.306 N 
ATOM      9  N   UNL     1      -2.611   2.585  25.728  0.00  0.00    -0.211 NA
ATOM     10  N   UNL     1      -3.587   4.116  24.143  0.00  0.00    -0.223 NA
ATOM     26  C   UNL     1      -3.563   2.976  24.860  0.00  0.00    +0.216 A 
ATOM     27  C   UNL     1      -1.585   3.449  25.874  0.00  0.00    +0.111 A 
ATOM     28  C   UNL     1      -2.531   4.933  24.338  0.00  0.00    +0.116 A 
ATOM     29  C   UNL     1      -1.490   4.649  25.199  0.00  0.00    +0.051 A 
ATOM     35  H   UNL     1      -5.325   2.378  23.993  0.00  0.00    +0.149 HD
BRANCH  27  30
ATOM      6  O   UNL     1       0.707   3.119  26.353  0.00  0.00    -0.461 OA
ATOM     30  C   UNL     1      -0.571   3.028  26.803  0.00  0.00    +0.153 A 
ATOM     31  C   UNL     1      -0.596   2.537  28.089  0.00  0.00    +0.051 A 
ATOM     32  C   UNL     1       0.754   2.312  28.450  0.00  0.00    +0.042 A 
ATOM     33  C   UNL     1       1.508   2.682  27.361  0.00  0.00    +0.196 A 
ENDBRANCH  27  30
ENDBRANCH  17   8
BRANCH  14   7
ATOM      3  O   UNL     1      -0.977  -0.863  26.048  0.00  0.00    -0.276 OA
ATOM      7  N   UNL     1      -1.561  -2.084  24.158  0.00  0.00    -0.308 N 
ATOM     24  C   UNL     1      -0.667  -1.483  25.034  0.00  0.00    +0.214 C 
ATOM     34  H   UNL     1      -1.203  -2.603  23.361  0.00  0.00    +0.149 HD
BRANCH  24  18
ATOM     18  C   UNL     1       0.771  -1.684  24.591  0.00  0.00    +0.103 C 
BRANCH  18  11
ATOM     11  C   UNL     1       1.273  -0.554  23.691  0.00  0.00    -0.011 C 
ATOM     15  C   UNL     1       0.764  -0.709  22.252  0.00  0.00    +0.008 C 
ATOM     16  C   UNL     1       2.794  -0.625  23.492  0.00  0.00    +0.008 C 
ATOM     19  C   UNL     1       1.755   0.074  21.393  0.00  0.00    +0.001 C 
ATOM     20  C   UNL     1       3.060   0.128  22.190  0.00  0.00    +0.001 C 
BRANCH  11  22
ATOM     22  C   UNL     1       0.852   0.797  24.291  0.00  0.00    +0.127 C 
BRANCH  22  25
ATOM      5  O   UNL     1      -1.200   0.984  22.986  0.00  0.00    -0.251 OA
ATOM     25  C   UNL     1      -0.175   1.478  23.433  0.00  0.00    +0.305 C 
BRANCH  25   4
ATOM      4  O   UNL     1       0.201   2.763  23.215  0.00  0.00    -0.481 OA
ATOM     36  H   UNL     1      -0.019   3.059  22.305  0.00  0.00    +0.295 HD
ENDBRANCH  25   4
ENDBRANCH  22  25
ENDBRANCH  11  22
ENDBRANCH  18  11
ENDBRANCH  24  18
ENDBRANCH  14   7
TORSDOF 8
ENDMDL
MODEL 9
REMARK VINA RESULT:       6.7      1.712      2.962
REMARK  Name = 11913301
REMARK  8 active torsions:
REMARK  status: ('A' for Active; 'I' for Inactive)
REMARK    1  A    between atoms: O_4  and  C_25
REMARK    2  A    between atoms: N_7  and  C_14
REMARK    3  A    between atoms: N_8  and  C_17
REMARK    4  A    between atoms: C_11  and  C_18
REMARK    5  A    between atoms: C_11  and  C_22
REMARK    6  A    between atoms: C_18  and  C_24
REMARK    7  A    between atoms: C_22  and  C_25
REMARK    8  A    between atoms: C_27  and  C_30
REMARK                            x       y       z     vdW  Elec       q    Type
REMARK                         _______ _______ _______ _____ _____    ______ ____
ROOT
ATOM      1  O   UNL     1      -3.496  -1.008  26.219  0.00  0.00    -0.370 OA
ATOM      2  O   UNL     1      -5.201  -1.187  23.612  0.00  0.00    -0.370 OA
ATOM     12  C   UNL     1      -3.839  -0.807  23.874  0.00  0.00    +0.171 C 
ATOM     13  C   UNL     1      -3.827  -0.058  25.192  0.00  0.00    +0.171 C 
ATOM     14  C   UNL     1      -2.993  -2.032  24.139  0.00  0.00    +0.130 C 
ATOM     17  C   UNL     1      -5.249   0.420  25.359  0.00  0.00    +0.130 C 
ATOM     21  C   UNL     1      -3.239  -2.284  25.615  0.00  0.00    +0.185 C 
ATOM     23  C   UNL     1      -6.048  -0.650  24.638  0.00  0.00    +0.185 C 
ENDROOT
BRANCH  17   8
ATOM      8  N   UNL     1      -5.422   1.699  24.705  0.00  0.00    -0.306 N 
ATOM      9  N   UNL     1      -3.314   2.423  25.355  0.00  0.00    -0.211 NA
ATOM     10  N   UNL     1      -4.770   3.828  24.046  0.00  0.00    -0.223 NA
ATOM     26  C   UNL     1      -4.460   2.694  24.703  0.00  0.00    +0.216 A 
ATOM     27  C   UNL     1      -2.398   3.414  25.332  0.00  0.00    +0.111 A 
ATOM     28  C   UNL     1      -3.809   4.776  24.064  0.00  0.00    +0.116 A 
ATOM     29  C   UNL     1      -2.592   4.623  24.696  0.00  0.00    +0.051 A 
ATOM     35  H   UNL     1      -6.266   1.876  24.171  0.00  0.00    +0.149 HD
BRANCH  27  30
ATOM      6  O   UNL     1      -1.075   1.860  26.526  0.00  0.00    -0.461 OA
ATOM     30  C   UNL     1      -1.176   3.121  26.032  0.00  0.00    +0.153 A 
ATOM     31  C   UNL     1      -0.046   3.847  26.328  0.00  0.00    +0.051 A 
ATOM     32  C   UNL     1       0.804   2.976  27.051  0.00  0.00    +0.042 A 
ATOM     33  C   UNL     1       0.133   1.779  27.144  0.00  0.00    +0.196 A 
ENDBRANCH  27  30
ENDBRANCH  17   8
BRANCH  14   7
ATOM      3  O   UNL     1      -0.931  -1.422  26.078  0.00  0.00    -0.276 OA
ATOM      7  N   UNL     1      -1.598  -1.768  23.878  0.00  0.00    -0.308 N 
ATOM     24  C   UNL     1      -0.677  -1.483  24.878  0.00  0.00    +0.214 C 
ATOM     34  H   UNL     1      -1.282  -1.827  22.914  0.00  0.00    +0.149 HD
BRANCH  24  18
ATOM     18  C   UNL     1       0.711  -1.253  24.310  0.00  0.00    +0.103 C 
BRANCH  18  11
ATOM     11  C   UNL     1       0.798   0.018  23.464  0.00  0.00    -0.011 C 
ATOM     15  C   UNL     1       1.419   1.179  24.250  0.00  0.00    +0.008 C 
ATOM     16  C   UNL     1      -0.595   0.574  23.135  0.00  0.00    +0.008 C 
ATOM     19  C   UNL     1       0.924   2.443  23.550  0.00  0.00    +0.001 C 
ATOM     20  C   UNL     1      -0.370   2.053  22.834  0.00  0.00    +0.001 C 
BRANCH  11  22
ATOM     22  C   UNL     1       1.596  -0.280  22.183  0.00  0.00    +0.127 C 
BRANCH  22  25
ATOM      5  O   UNL     1       3.759  -0.808  23.177  0.00  0.00    -0.251 OA
ATOM     25  C   UNL     1       3.072  -0.142  22.416  0.00  0.00    +0.305 C 
BRANCH  25   4
ATOM      4  O   UNL     1       3.560   0.857  21.638  0.00  0.00    -0.481 OA
ATOM     36  H   UNL     1       4.240   0.533  21.010  0.00  0.00    +0.295 HD
ENDBRANCH  25   4
ENDBRANCH  22  25
ENDBRANCH  11  22
ENDBRANCH  18  11
ENDBRANCH  24  18
ENDBRANCH  14   7
TORSDOF 8
ENDMDL
MODEL 10
REMARK VINA RESULT:       7.2      1.842      5.859
REMARK  Name = 11913301
REMARK  8 active torsions:
REMARK  status: ('A' for Active; 'I' for Inactive)
REMARK    1  A    between atoms: O_4  and  C_25
REMARK    2  A    between atoms: N_7  and  C_14
REMARK    3  A    between atoms: N_8  and  C_17
REMARK    4  A    between atoms: C_11  and  C_18
REMARK    5  A    between atoms: C_11  and  C_22
REMARK    6  A    between atoms: C_18  and  C_24
REMARK    7  A    between atoms: C_22  and  C_25
REMARK    8  A    between atoms: C_27  and  C_30
REMARK                            x       y       z     vdW  Elec       q    Type
REMARK                         _______ _______ _______ _____ _____    ______ ____
ROOT
ATOM      1  O   UNL     1      -3.543  -1.885  24.359  0.00  0.00    -0.370 OA
ATOM      2  O   UNL     1      -0.893  -1.332  25.912  0.00  0.00    -0.370 OA
ATOM     12  C   UNL     1      -1.719  -0.525  25.055  0.00  0.00    +0.171 C 
ATOM     13  C   UNL     1      -2.241  -1.427  23.954  0.00  0.00    +0.171 C 
ATOM     14  C   UNL     1      -2.963  -0.082  25.789  0.00  0.00    +0.130 C 
ATOM     17  C   UNL     1      -1.266  -2.581  23.926  0.00  0.00    +0.130 C 
ATOM     21  C   UNL     1      -3.888  -1.272  25.610  0.00  0.00    +0.185 C 
ATOM     23  C   UNL     1      -0.799  -2.657  25.368  0.00  0.00    +0.185 C 
ENDROOT
BRANCH  17   8
ATOM      8  N   UNL     1      -0.153  -2.268  23.056  0.00  0.00    -0.306 N 
ATOM      9  N   UNL     1       0.069  -0.136  23.950  0.00  0.00    -0.211 NA
ATOM     10  N   UNL     1       1.529  -0.916  22.199  0.00  0.00    -0.223 NA
ATOM     26  C   UNL     1       0.510  -1.053  23.069  0.00  0.00    +0.216 A 
ATOM     27  C   UNL     1       0.738   1.036  23.936  0.00  0.00    +0.111 A 
ATOM     28  C   UNL     1       2.153   0.279  22.239  0.00  0.00    +0.116 A 
ATOM     29  C   UNL     1       1.799   1.302  23.094  0.00  0.00    +0.051 A 
ATOM     35  H   UNL     1       0.208  -2.981  22.433  0.00  0.00    +0.149 HD
BRANCH  27  30
ATOM      6  O   UNL     1      -0.117   3.202  24.342  0.00  0.00    -0.461 OA
ATOM     30  C   UNL     1       0.262   2.013  24.877  0.00  0.00    +0.153 A 
ATOM     31  C   UNL     1       0.094   2.023  26.243  0.00  0.00    +0.051 A 
ATOM     32  C   UNL     1      -0.419   3.302  26.567  0.00  0.00    +0.042 A 
ATOM     33  C   UNL     1      -0.531   3.981  25.377  0.00  0.00    +0.196 A 
ENDBRANCH  27  30
ENDBRANCH  17   8
BRANCH  14   7
ATOM      3  O   UNL     1      -2.526   0.911  23.104  0.00  0.00    -0.276 OA
ATOM      7  N   UNL     1      -3.522   1.109  25.195  0.00  0.00    -0.308 N 
ATOM     24  C   UNL     1      -3.254   1.508  23.892  0.00  0.00    +0.214 C 
ATOM     34  H   UNL     1      -4.165   1.657  25.760  0.00  0.00    +0.149 HD
BRANCH  24  18
ATOM     18  C   UNL     1      -3.981   2.794  23.540  0.00  0.00    +0.103 C 
BRANCH  18  11
ATOM     11  C   UNL     1      -4.259   3.667  24.765  0.00  0.00    -0.011 C 
ATOM     15  C   UNL     1      -3.663   5.071  24.606  0.00  0.00    +0.008 C 
ATOM     16  C   UNL     1      -3.515   3.152  26.006  0.00  0.00    +0.008 C 
ATOM     19  C   UNL     1      -3.495   5.596  26.030  0.00  0.00    +0.001 C 
ATOM     20  C   UNL     1      -3.399   4.362  26.929  0.00  0.00    +0.001 C 
BRANCH  11  22
ATOM     22  C   UNL     1      -5.776   3.727  25.011  0.00  0.00    +0.127 C 
BRANCH  22  25
ATOM      5  O   UNL     1      -6.632   1.453  24.812  0.00  0.00    -0.251 OA
ATOM     25  C   UNL     1      -6.302   2.409  25.498  0.00  0.00    +0.305 C 
BRANCH  25   4
ATOM      4  O   UNL     1      -6.364   2.422  26.854  0.00  0.00    -0.481 OA
ATOM     36  H   UNL     1      -6.565   1.534  27.219  0.00  0.00    +0.295 HD
ENDBRANCH  25   4
ENDBRANCH  22  25
ENDBRANCH  11  22
ENDBRANCH  18  11
ENDBRANCH  24  18
ENDBRANCH  14   7
TORSDOF 8
ENDMDL
