MODEL 1
REMARK VINA RESULT:       0.1      0.000      0.000
REMARK  Name = 75367689
REMARK  5 active torsions:
REMARK  status: ('A' for Active; 'I' for Inactive)
REMARK    1  A    between atoms: S_1  and  C_20
REMARK    2  A    between atoms: S_1  and  C_24
REMARK    3  A    between atoms: O_3  and  C_10
REMARK    4  A    between atoms: O_3  and  C_16
REMARK    5  A    between atoms: C_15  and  C_17
REMARK                            x       y       z     vdW  Elec       q    Type
REMARK                         _______ _______ _______ _____ _____    ______ ____
ROOT
ATOM      2  O   UNL     1      -4.605  -2.918  23.820  0.00  0.00    -0.375 OA
ATOM      4  O   UNL     1      -0.102  -2.138  25.377  0.00  0.00    -0.268 OA
ATOM      7  N   UNL     1      -2.334  -1.423  25.380  0.00  0.00    -0.290 N 
ATOM     10  C   UNL     1      -4.708  -0.684  24.796  0.00  0.00    +0.216 C 
ATOM     11  C   UNL     1      -3.296  -0.320  25.266  0.00  0.00    +0.155 C 
ATOM     12  C   UNL     1      -4.717  -1.529  23.523  0.00  0.00    +0.206 C 
ATOM     13  C   UNL     1      -2.851  -2.784  25.523  0.00  0.00    +0.136 C 
ATOM     14  C   UNL     1      -3.296  -3.346  24.179  0.00  0.00    +0.179 C 
ATOM     15  C   UNL     1      -0.943  -1.241  25.319  0.00  0.00    +0.267 C 
ENDROOT
BRANCH  15  17
ATOM      8  N   UNL     1      -0.649   0.970  26.203  0.00  0.00    -0.247 NA
ATOM      9  N   UNL     1       0.734   1.775  23.900  0.00  0.00    -0.259 NA
ATOM     17  C   UNL     1      -0.423   0.128  25.174  0.00  0.00    +0.144 A 
ATOM     23  C   UNL     1       0.256   0.523  24.044  0.00  0.00    +0.143 A 
ATOM     25  C   UNL     1      -0.171   2.222  26.058  0.00  0.00    +0.131 A 
ATOM     26  C   UNL     1       0.509   2.617  24.927  0.00  0.00    +0.130 A 
ENDBRANCH  15  17
BRANCH  10   3
ATOM      3  O   UNL     1      -5.387   0.547  24.541  0.00  0.00    -0.485 OA
BRANCH   3  16
ATOM     16  C   UNL     1      -4.615   1.676  24.519  0.00  0.00    +0.121 A 
ATOM     18  C   UNL     1      -4.832   2.687  25.456  0.00  0.00    +0.047 A 
ATOM     19  C   UNL     1      -3.612   1.816  23.560  0.00  0.00    +0.047 A 
ATOM     20  C   UNL     1      -3.041   3.979  24.474  0.00  0.00    +0.088 A 
ATOM     21  C   UNL     1      -4.045   3.838  25.433  0.00  0.00    +0.030 A 
ATOM     22  C   UNL     1      -2.825   2.969  23.538  0.00  0.00    +0.030 A 
BRANCH  20   1
ATOM      1  S   UNL     1      -2.059   5.423  24.443  0.00  0.00    -0.006 S 
ATOM      5  O   UNL     1      -2.736   6.436  23.644  0.00  0.00    -0.170 OA
ATOM      6  O   UNL     1      -1.664   5.726  25.810  0.00  0.00    -0.170 OA
ATOM     24  C   UNL     1      -0.600   4.945  23.545  0.00  0.00    +0.200 C 
ENDBRANCH  20   1
ENDBRANCH   3  16
ENDBRANCH  10   3
TORSDOF 4
ENDMDL
MODEL 2
REMARK VINA RESULT:       0.2      2.513      5.839
REMARK  Name = 75367689
REMARK  5 active torsions:
REMARK  status: ('A' for Active; 'I' for Inactive)
REMARK    1  A    between atoms: S_1  and  C_20
REMARK    2  A    between atoms: S_1  and  C_24
REMARK    3  A    between atoms: O_3  and  C_10
REMARK    4  A    between atoms: O_3  and  C_16
REMARK    5  A    between atoms: C_15  and  C_17
REMARK                            x       y       z     vdW  Elec       q    Type
REMARK                         _______ _______ _______ _____ _____    ______ ____
ROOT
ATOM      2  O   UNL     1      -3.635   4.957  24.494  0.00  0.00    -0.375 OA
ATOM      4  O   UNL     1      -6.311   0.943  24.318  0.00  0.00    -0.268 OA
ATOM      7  N   UNL     1      -4.569   2.099  25.378  0.00  0.00    -0.290 N 
ATOM     10  C   UNL     1      -2.467   3.416  25.982  0.00  0.00    +0.216 C 
ATOM     11  C   UNL     1      -3.215   2.080  25.943  0.00  0.00    +0.155 C 
ATOM     12  C   UNL     1      -2.473   4.148  24.641  0.00  0.00    +0.206 C 
ATOM     13  C   UNL     1      -5.293   3.371  25.349  0.00  0.00    +0.136 C 
ATOM     14  C   UNL     1      -4.826   4.240  24.188  0.00  0.00    +0.179 C 
ATOM     15  C   UNL     1      -5.192   0.965  24.830  0.00  0.00    +0.267 C 
ENDROOT
BRANCH  15  17
ATOM      8  N   UNL     1      -3.857  -0.635  26.019  0.00  0.00    -0.247 NA
ATOM      9  N   UNL     1      -3.744  -2.306  23.770  0.00  0.00    -0.259 NA
ATOM     17  C   UNL     1      -4.464  -0.313  24.859  0.00  0.00    +0.144 A 
ATOM     23  C   UNL     1      -4.408  -1.133  23.755  0.00  0.00    +0.143 A 
ATOM     25  C   UNL     1      -3.192  -1.807  26.033  0.00  0.00    +0.131 A 
ATOM     26  C   UNL     1      -3.136  -2.628  24.929  0.00  0.00    +0.130 A 
ENDBRANCH  15  17
BRANCH  10   3
ATOM      3  O   UNL     1      -1.117   3.122  26.346  0.00  0.00    -0.485 OA
BRANCH   3  16
ATOM     16  C   UNL     1      -0.407   2.342  25.475  0.00  0.00    +0.121 A 
ATOM     18  C   UNL     1      -0.617   0.963  25.443  0.00  0.00    +0.047 A 
ATOM     19  C   UNL     1       0.525   2.926  24.617  0.00  0.00    +0.047 A 
ATOM     20  C   UNL     1       1.041   0.752  23.698  0.00  0.00    +0.088 A 
ATOM     21  C   UNL     1       0.107   0.169  24.555  0.00  0.00    +0.030 A 
ATOM     22  C   UNL     1       1.250   2.130  23.729  0.00  0.00    +0.030 A 
BRANCH  20   1
ATOM      1  S   UNL     1       1.951  -0.245  22.589  0.00  0.00    -0.006 S 
ATOM      5  O   UNL     1       2.418  -1.430  23.295  0.00  0.00    -0.170 OA
ATOM      6  O   UNL     1       1.167  -0.390  21.371  0.00  0.00    -0.170 OA
ATOM     24  C   UNL     1       3.388   0.727  22.200  0.00  0.00    +0.200 C 
ENDBRANCH  20   1
ENDBRANCH   3  16
ENDBRANCH  10   3
TORSDOF 4
ENDMDL
MODEL 3
REMARK VINA RESULT:       0.2      2.718      6.665
REMARK  Name = 75367689
REMARK  5 active torsions:
REMARK  status: ('A' for Active; 'I' for Inactive)
REMARK    1  A    between atoms: S_1  and  C_20
REMARK    2  A    between atoms: S_1  and  C_24
REMARK    3  A    between atoms: O_3  and  C_10
REMARK    4  A    between atoms: O_3  and  C_16
REMARK    5  A    between atoms: C_15  and  C_17
REMARK                            x       y       z     vdW  Elec       q    Type
REMARK                         _______ _______ _______ _____ _____    ______ ____
ROOT
ATOM      2  O   UNL     1       0.526   4.320  23.843  0.00  0.00    -0.375 OA
ATOM      4  O   UNL     1      -4.213   5.192  24.149  0.00  0.00    -0.268 OA
ATOM      7  N   UNL     1      -2.326   4.216  25.140  0.00  0.00    -0.290 N 
ATOM     10  C   UNL     1      -0.207   2.901  25.688  0.00  0.00    +0.216 C 
ATOM     11  C   UNL     1      -1.724   3.065  25.822  0.00  0.00    +0.155 C 
ATOM     12  C   UNL     1       0.280   2.975  24.241  0.00  0.00    +0.206 C 
ATOM     13  C   UNL     1      -1.469   5.357  24.813  0.00  0.00    +0.136 C 
ATOM     14  C   UNL     1      -0.643   5.082  23.562  0.00  0.00    +0.179 C 
ATOM     15  C   UNL     1      -3.675   4.263  24.750  0.00  0.00    +0.267 C 
ENDROOT
BRANCH  15  17
ATOM      8  N   UNL     1      -5.443   3.304  26.058  0.00  0.00    -0.247 NA
ATOM      9  N   UNL     1      -5.198   0.857  24.710  0.00  0.00    -0.259 NA
ATOM     17  C   UNL     1      -4.536   3.116  25.078  0.00  0.00    +0.144 A 
ATOM     23  C   UNL     1      -4.415   1.915  24.417  0.00  0.00    +0.143 A 
ATOM     25  C   UNL     1      -6.225   2.246  26.352  0.00  0.00    +0.131 A 
ATOM     26  C   UNL     1      -6.104   1.044  25.689  0.00  0.00    +0.130 A 
ENDBRANCH  15  17
BRANCH  10   3
ATOM      3  O   UNL     1       0.118   1.617  26.222  0.00  0.00    -0.485 OA
BRANCH   3  16
ATOM     16  C   UNL     1      -0.629   0.563  25.773  0.00  0.00    +0.121 A 
ATOM     18  C   UNL     1      -1.748   0.145  26.494  0.00  0.00    +0.047 A 
ATOM     19  C   UNL     1      -0.273  -0.093  24.595  0.00  0.00    +0.047 A 
ATOM     20  C   UNL     1      -2.154  -1.587  24.858  0.00  0.00    +0.088 A 
ATOM     21  C   UNL     1      -2.510  -0.930  26.037  0.00  0.00    +0.030 A 
ATOM     22  C   UNL     1      -1.035  -1.169  24.138  0.00  0.00    +0.030 A 
BRANCH  20   1
ATOM      1  S   UNL     1      -3.105  -2.936  24.288  0.00  0.00    -0.006 S 
ATOM      5  O   UNL     1      -2.328  -3.679  23.306  0.00  0.00    -0.170 OA
ATOM      6  O   UNL     1      -3.650  -3.623  25.449  0.00  0.00    -0.170 OA
ATOM     24  C   UNL     1      -4.459  -2.182  23.414  0.00  0.00    +0.200 C 
ENDBRANCH  20   1
ENDBRANCH   3  16
ENDBRANCH  10   3
TORSDOF 4
ENDMDL
MODEL 4
REMARK VINA RESULT:       0.6      2.354      5.658
REMARK  Name = 75367689
REMARK  5 active torsions:
REMARK  status: ('A' for Active; 'I' for Inactive)
REMARK    1  A    between atoms: S_1  and  C_20
REMARK    2  A    between atoms: S_1  and  C_24
REMARK    3  A    between atoms: O_3  and  C_10
REMARK    4  A    between atoms: O_3  and  C_16
REMARK    5  A    between atoms: C_15  and  C_17
REMARK                            x       y       z     vdW  Elec       q    Type
REMARK                         _______ _______ _______ _____ _____    ______ ____
ROOT
ATOM      2  O   UNL     1      -3.888   5.094  26.412  0.00  0.00    -0.375 OA
ATOM      4  O   UNL     1       0.695   3.740  25.729  0.00  0.00    -0.268 OA
ATOM      7  N   UNL     1      -1.490   3.778  24.882  0.00  0.00    -0.290 N 
ATOM     10  C   UNL     1      -4.006   3.596  24.489  0.00  0.00    +0.216 C 
ATOM     11  C   UNL     1      -2.594   3.061  24.233  0.00  0.00    +0.155 C 
ATOM     12  C   UNL     1      -4.309   3.807  25.972  0.00  0.00    +0.206 C 
ATOM     13  C   UNL     1      -1.709   5.164  25.297  0.00  0.00    +0.136 C 
ATOM     14  C   UNL     1      -2.485   5.228  26.607  0.00  0.00    +0.179 C 
ATOM     15  C   UNL     1      -0.245   3.188  25.159  0.00  0.00    +0.267 C 
ENDROOT
BRANCH  15  17
ATOM      8  N   UNL     1       0.818   1.601  23.708  0.00  0.00    -0.247 NA
ATOM      9  N   UNL     1      -0.460  -0.533  25.002  0.00  0.00    -0.259 NA
ATOM     17  C   UNL     1      -0.025   1.795  24.742  0.00  0.00    +0.144 A 
ATOM     23  C   UNL     1      -0.653   0.747  25.377  0.00  0.00    +0.143 A 
ATOM     25  C   UNL     1       1.011   0.320  23.333  0.00  0.00    +0.131 A 
ATOM     26  C   UNL     1       0.383  -0.728  23.969  0.00  0.00    +0.130 A 
ENDBRANCH  15  17
BRANCH  10   3
ATOM      3  O   UNL     1      -4.915   2.628  23.962  0.00  0.00    -0.485 OA
BRANCH   3  16
ATOM     16  C   UNL     1      -4.563   1.315  24.113  0.00  0.00    +0.121 A 
ATOM     18  C   UNL     1      -4.888   0.636  25.287  0.00  0.00    +0.047 A 
ATOM     19  C   UNL     1      -3.880   0.655  23.091  0.00  0.00    +0.047 A 
ATOM     20  C   UNL     1      -3.845  -1.363  24.419  0.00  0.00    +0.088 A 
ATOM     21  C   UNL     1      -4.529  -0.702  25.440  0.00  0.00    +0.030 A 
ATOM     22  C   UNL     1      -3.521  -0.685  23.245  0.00  0.00    +0.030 A 
BRANCH  20   1
ATOM      1  S   UNL     1      -3.392  -3.039  24.614  0.00  0.00    -0.006 S 
ATOM      5  O   UNL     1      -3.268  -3.331  26.035  0.00  0.00    -0.170 OA
ATOM      6  O   UNL     1      -4.279  -3.842  23.785  0.00  0.00    -0.170 OA
ATOM     24  C   UNL     1      -1.758  -3.137  23.919  0.00  0.00    +0.200 C 
ENDBRANCH  20   1
ENDBRANCH   3  16
ENDBRANCH  10   3
TORSDOF 4
ENDMDL
MODEL 5
REMARK VINA RESULT:       0.6      2.322      5.465
REMARK  Name = 75367689
REMARK  5 active torsions:
REMARK  status: ('A' for Active; 'I' for Inactive)
REMARK    1  A    between atoms: S_1  and  C_20
REMARK    2  A    between atoms: S_1  and  C_24
REMARK    3  A    between atoms: O_3  and  C_10
REMARK    4  A    between atoms: O_3  and  C_16
REMARK    5  A    between atoms: C_15  and  C_17
REMARK                            x       y       z     vdW  Elec       q    Type
REMARK                         _______ _______ _______ _____ _____    ______ ____
ROOT
ATOM      2  O   UNL     1      -6.595   4.222  25.853  0.00  0.00    -0.375 OA
ATOM      4  O   UNL     1      -2.083   5.725  25.020  0.00  0.00    -0.268 OA
ATOM      7  N   UNL     1      -3.735   4.124  24.572  0.00  0.00    -0.290 N 
ATOM     10  C   UNL     1      -5.568   2.349  24.674  0.00  0.00    +0.216 C 
ATOM     11  C   UNL     1      -4.102   2.711  24.419  0.00  0.00    +0.155 C 
ATOM     12  C   UNL     1      -6.100   2.894  25.998  0.00  0.00    +0.206 C 
ATOM     13  C   UNL     1      -4.792   5.131  24.468  0.00  0.00    +0.136 C 
ATOM     14  C   UNL     1      -5.589   5.226  25.763  0.00  0.00    +0.179 C 
ATOM     15  C   UNL     1      -2.428   4.556  24.852  0.00  0.00    +0.267 C 
ENDROOT
BRANCH  15  17
ATOM      8  N   UNL     1      -1.196   2.971  26.166  0.00  0.00    -0.247 NA
ATOM      9  N   UNL     1       0.388   2.277  23.959  0.00  0.00    -0.259 NA
ATOM     17  C   UNL     1      -1.366   3.543  24.957  0.00  0.00    +0.144 A 
ATOM     23  C   UNL     1      -0.588   3.202  23.873  0.00  0.00    +0.143 A 
ATOM     25  C   UNL     1      -0.219   2.046  26.251  0.00  0.00    +0.131 A 
ATOM     26  C   UNL     1       0.558   1.704  25.167  0.00  0.00    +0.130 A 
ENDBRANCH  15  17
BRANCH  10   3
ATOM      3  O   UNL     1      -5.642   0.923  24.695  0.00  0.00    -0.485 OA
BRANCH   3  16
ATOM     16  C   UNL     1      -4.451   0.250  24.673  0.00  0.00    +0.121 A 
ATOM     18  C   UNL     1      -3.599   0.376  23.576  0.00  0.00    +0.047 A 
ATOM     19  C   UNL     1      -4.089  -0.562  25.748  0.00  0.00    +0.047 A 
ATOM     20  C   UNL     1      -2.022  -1.122  24.628  0.00  0.00    +0.088 A 
ATOM     21  C   UNL     1      -2.385  -0.310  23.554  0.00  0.00    +0.030 A 
ATOM     22  C   UNL     1      -2.874  -1.248  25.725  0.00  0.00    +0.030 A 
BRANCH  20   1
ATOM      1  S   UNL     1      -0.504  -1.984  24.598  0.00  0.00    -0.006 S 
ATOM      5  O   UNL     1       0.107  -1.910  25.918  0.00  0.00    -0.170 OA
ATOM      6  O   UNL     1      -0.737  -3.281  23.981  0.00  0.00    -0.170 OA
ATOM     24  C   UNL     1       0.522  -1.033  23.499  0.00  0.00    +0.200 C 
ENDBRANCH  20   1
ENDBRANCH   3  16
ENDBRANCH  10   3
TORSDOF 4
ENDMDL
MODEL 6
REMARK VINA RESULT:       1.8      1.685      2.180
REMARK  Name = 75367689
REMARK  5 active torsions:
REMARK  status: ('A' for Active; 'I' for Inactive)
REMARK    1  A    between atoms: S_1  and  C_20
REMARK    2  A    between atoms: S_1  and  C_24
REMARK    3  A    between atoms: O_3  and  C_10
REMARK    4  A    between atoms: O_3  and  C_16
REMARK    5  A    between atoms: C_15  and  C_17
REMARK                            x       y       z     vdW  Elec       q    Type
REMARK                         _______ _______ _______ _____ _____    ______ ____
ROOT
ATOM      2  O   UNL     1      -2.964  -3.481  23.634  0.00  0.00    -0.375 OA
ATOM      4  O   UNL     1       0.904  -0.649  24.205  0.00  0.00    -0.268 OA
ATOM      7  N   UNL     1      -1.250  -1.205  24.941  0.00  0.00    -0.290 N 
ATOM     10  C   UNL     1      -3.734  -1.750  25.172  0.00  0.00    +0.216 C 
ATOM     11  C   UNL     1      -2.583  -0.759  25.366  0.00  0.00    +0.155 C 
ATOM     12  C   UNL     1      -3.795  -2.331  23.760  0.00  0.00    +0.206 C 
ATOM     13  C   UNL     1      -1.000  -2.643  24.833  0.00  0.00    +0.136 C 
ATOM     14  C   UNL     1      -1.571  -3.202  23.536  0.00  0.00    +0.179 C 
ATOM     15  C   UNL     1      -0.215  -0.320  24.597  0.00  0.00    +0.267 C 
ENDROOT
BRANCH  15  17
ATOM      8  N   UNL     1      -0.661   1.792  23.549  0.00  0.00    -0.247 NA
ATOM      9  N   UNL     1      -0.728   3.083  26.038  0.00  0.00    -0.259 NA
ATOM     17  C   UNL     1      -0.467   1.125  24.705  0.00  0.00    +0.144 A 
ATOM     23  C   UNL     1      -0.500   1.759  25.927  0.00  0.00    +0.143 A 
ATOM     25  C   UNL     1      -0.888   3.116  23.661  0.00  0.00    +0.131 A 
ATOM     26  C   UNL     1      -0.922   3.750  24.884  0.00  0.00    +0.130 A 
ENDBRANCH  15  17
BRANCH  10   3
ATOM      3  O   UNL     1      -4.942  -1.033  25.431  0.00  0.00    -0.485 OA
BRANCH   3  16
ATOM     16  C   UNL     1      -4.881   0.329  25.313  0.00  0.00    +0.121 A 
ATOM     18  C   UNL     1      -5.574   1.138  26.214  0.00  0.00    +0.047 A 
ATOM     19  C   UNL     1      -4.125   0.907  24.294  0.00  0.00    +0.047 A 
ATOM     20  C   UNL     1      -4.756   3.105  25.074  0.00  0.00    +0.088 A 
ATOM     21  C   UNL     1      -5.512   2.526  26.094  0.00  0.00    +0.030 A 
ATOM     22  C   UNL     1      -4.063   2.296  24.175  0.00  0.00    +0.030 A 
BRANCH  20   1
ATOM      1  S   UNL     1      -4.681   4.844  24.922  0.00  0.00    -0.006 S 
ATOM      5  O   UNL     1      -4.092   5.179  23.633  0.00  0.00    -0.170 OA
ATOM      6  O   UNL     1      -5.984   5.381  25.283  0.00  0.00    -0.170 OA
ATOM     24  C   UNL     1      -3.518   5.346  26.169  0.00  0.00    +0.200 C 
ENDBRANCH  20   1
ENDBRANCH   3  16
ENDBRANCH  10   3
TORSDOF 4
ENDMDL
MODEL 7
REMARK VINA RESULT:       1.9      1.733      3.820
REMARK  Name = 75367689
REMARK  5 active torsions:
REMARK  status: ('A' for Active; 'I' for Inactive)
REMARK    1  A    between atoms: S_1  and  C_20
REMARK    2  A    between atoms: S_1  and  C_24
REMARK    3  A    between atoms: O_3  and  C_10
REMARK    4  A    between atoms: O_3  and  C_16
REMARK    5  A    between atoms: C_15  and  C_17
REMARK                            x       y       z     vdW  Elec       q    Type
REMARK                         _______ _______ _______ _____ _____    ______ ____
ROOT
ATOM      2  O   UNL     1      -0.411  -3.046  25.293  0.00  0.00    -0.375 OA
ATOM      4  O   UNL     1      -4.965  -1.783  24.302  0.00  0.00    -0.268 OA
ATOM      7  N   UNL     1      -2.687  -1.303  24.025  0.00  0.00    -0.290 N 
ATOM     10  C   UNL     1      -0.196  -0.822  24.313  0.00  0.00    +0.216 C 
ATOM     11  C   UNL     1      -1.609  -0.307  24.020  0.00  0.00    +0.155 C 
ATOM     12  C   UNL     1      -0.119  -1.681  25.574  0.00  0.00    +0.206 C 
ATOM     13  C   UNL     1      -2.337  -2.709  23.818  0.00  0.00    +0.136 C 
ATOM     14  C   UNL     1      -1.792  -3.332  25.098  0.00  0.00    +0.179 C 
ATOM     15  C   UNL     1      -4.035  -0.979  24.257  0.00  0.00    +0.267 C 
ENDROOT
BRANCH  15  17
ATOM      8  N   UNL     1      -5.220   0.703  25.490  0.00  0.00    -0.247 NA
ATOM      9  N   UNL     1      -4.205   2.724  23.831  0.00  0.00    -0.259 NA
ATOM     17  C   UNL     1      -4.386   0.434  24.465  0.00  0.00    +0.144 A 
ATOM     23  C   UNL     1      -3.888   1.427  23.650  0.00  0.00    +0.143 A 
ATOM     25  C   UNL     1      -5.537   2.001  25.670  0.00  0.00    +0.131 A 
ATOM     26  C   UNL     1      -5.038   2.994  24.855  0.00  0.00    +0.130 A 
ENDBRANCH  15  17
BRANCH  10   3
ATOM      3  O   UNL     1       0.634   0.328  24.482  0.00  0.00    -0.485 OA
BRANCH   3  16
ATOM     16  C   UNL     1      -0.008   1.524  24.655  0.00  0.00    +0.121 A 
ATOM     18  C   UNL     1      -0.629   1.812  25.871  0.00  0.00    +0.047 A 
ATOM     19  C   UNL     1      -0.041   2.455  23.617  0.00  0.00    +0.047 A 
ATOM     20  C   UNL     1      -1.317   3.962  25.010  0.00  0.00    +0.088 A 
ATOM     21  C   UNL     1      -1.283   3.030  26.048  0.00  0.00    +0.030 A 
ATOM     22  C   UNL     1      -0.696   3.674  23.795  0.00  0.00    +0.030 A 
BRANCH  20   1
ATOM      1  S   UNL     1      -2.140   5.487  25.230  0.00  0.00    -0.006 S 
ATOM      5  O   UNL     1      -3.020   5.384  26.386  0.00  0.00    -0.170 OA
ATOM      6  O   UNL     1      -1.144   6.546  25.171  0.00  0.00    -0.170 OA
ATOM     24  C   UNL     1      -3.182   5.636  23.797  0.00  0.00    +0.200 C 
ENDBRANCH  20   1
ENDBRANCH   3  16
ENDBRANCH  10   3
TORSDOF 4
ENDMDL
MODEL 8
REMARK VINA RESULT:       2.0      2.499      4.577
REMARK  Name = 75367689
REMARK  5 active torsions:
REMARK  status: ('A' for Active; 'I' for Inactive)
REMARK    1  A    between atoms: S_1  and  C_20
REMARK    2  A    between atoms: S_1  and  C_24
REMARK    3  A    between atoms: O_3  and  C_10
REMARK    4  A    between atoms: O_3  and  C_16
REMARK    5  A    between atoms: C_15  and  C_17
REMARK                            x       y       z     vdW  Elec       q    Type
REMARK                         _______ _______ _______ _____ _____    ______ ____
ROOT
ATOM      2  O   UNL     1       0.962  -1.130  21.945  0.00  0.00    -0.375 OA
ATOM      4  O   UNL     1       1.609   3.312  23.722  0.00  0.00    -0.268 OA
ATOM      7  N   UNL     1       0.819   1.138  24.103  0.00  0.00    -0.290 N 
ATOM     10  C   UNL     1      -0.334  -1.138  24.013  0.00  0.00    +0.216 C 
ATOM     11  C   UNL     1      -0.239   0.263  24.623  0.00  0.00    +0.155 C 
ATOM     12  C   UNL     1      -0.356  -1.129  22.485  0.00  0.00    +0.206 C 
ATOM     13  C   UNL     1       1.971   0.521  23.445  0.00  0.00    +0.136 C 
ATOM     14  C   UNL     1       1.636   0.122  22.013  0.00  0.00    +0.179 C 
ATOM     15  C   UNL     1       0.763   2.540  24.172  0.00  0.00    +0.267 C 
ENDROOT
BRANCH  15  17
ATOM      8  N   UNL     1      -0.785   4.364  24.365  0.00  0.00    -0.247 NA
ATOM      9  N   UNL     1      -2.106   3.100  26.492  0.00  0.00    -0.259 NA
ATOM     17  C   UNL     1      -0.396   3.161  24.833  0.00  0.00    +0.144 A 
ATOM     23  C   UNL     1      -1.045   2.540  25.877  0.00  0.00    +0.143 A 
ATOM     25  C   UNL     1      -1.846   4.923  24.980  0.00  0.00    +0.131 A 
ATOM     26  C   UNL     1      -2.495   4.302  26.024  0.00  0.00    +0.130 A 
ENDBRANCH  15  17
BRANCH  10   3
ATOM      3  O   UNL     1      -1.550  -1.714  24.492  0.00  0.00    -0.485 OA
BRANCH   3  16
ATOM     16  C   UNL     1      -2.585  -0.850  24.721  0.00  0.00    +0.121 A 
ATOM     18  C   UNL     1      -2.845   0.182  23.819  0.00  0.00    +0.047 A 
ATOM     19  C   UNL     1      -3.381  -1.003  25.856  0.00  0.00    +0.047 A 
ATOM     20  C   UNL     1      -4.697   0.911  25.189  0.00  0.00    +0.088 A 
ATOM     21  C   UNL     1      -3.900   1.062  24.054  0.00  0.00    +0.030 A 
ATOM     22  C   UNL     1      -4.437  -0.120  26.090  0.00  0.00    +0.030 A 
BRANCH  20   1
ATOM      1  S   UNL     1      -6.016   2.017  25.484  0.00  0.00    -0.006 S 
ATOM      5  O   UNL     1      -7.041   1.809  24.469  0.00  0.00    -0.170 OA
ATOM      6  O   UNL     1      -6.367   1.931  26.893  0.00  0.00    -0.170 OA
ATOM     24  C   UNL     1      -5.317   3.626  25.192  0.00  0.00    +0.200 C 
ENDBRANCH  20   1
ENDBRANCH   3  16
ENDBRANCH  10   3
TORSDOF 4
ENDMDL
