MODEL 1
REMARK VINA RESULT:      -6.0      0.000      0.000
REMARK  Name = 75536708
REMARK  9 active torsions:
REMARK  status: ('A' for Active; 'I' for Inactive)
REMARK    1  A    between atoms: S_1  and  N_8
REMARK    2  A    between atoms: S_1  and  C_16
REMARK    3  A    between atoms: O_4  and  C_10
REMARK    4  A    between atoms: N_7  and  C_9
REMARK    5  A    between atoms: N_7  and  C_14
REMARK    6  A    between atoms: N_8  and  C_13
REMARK    7  A    between atoms: C_11  and  C_13
REMARK    8  A    between atoms: C_14  and  C_15
REMARK    9  A    between atoms: C_25  and  C_27
REMARK                            x       y       z     vdW  Elec       q    Type
REMARK                         _______ _______ _______ _____ _____    ______ ____
ROOT
ATOM      3  O   UNL     1      -0.733   3.449  25.668  0.00  0.00    -0.371 OA
ATOM      9  C   UNL     1      -0.110   1.726  24.157  0.00  0.00    +0.111 C 
ATOM     10  C   UNL     1      -1.588   2.024  23.985  0.00  0.00    +0.164 C 
ATOM     11  C   UNL     1      -1.676   3.422  24.584  0.00  0.00    +0.164 C 
ATOM     12  C   UNL     1       0.163   2.333  25.523  0.00  0.00    +0.181 C 
ENDROOT
BRANCH  10   4
ATOM      4  O   UNL     1      -1.995   2.004  22.630  0.00  0.00    -0.388 OA
ATOM     30  H   UNL     1      -2.305   1.107  22.418  0.00  0.00    +0.210 HD
ENDBRANCH  10   4
BRANCH   9   7
ATOM      7  N   UNL     1       0.210   0.309  24.093  0.00  0.00    -0.305 NA
ATOM     28  H   UNL     1      -0.654  -0.230  24.133  0.00  0.00    +0.123 HD
BRANCH   7  14
ATOM     14  C   UNL     1       0.911  -0.016  22.856  0.00  0.00    +0.116 C 
BRANCH  14  15
ATOM      2  F   UNL     1       6.498  -0.151  23.573  0.00  0.00    -0.205 F 
ATOM     15  C   UNL     1       2.404  -0.051  23.048  0.00  0.00    -0.033 A 
ATOM     17  C   UNL     1       3.178   1.058  22.706  0.00  0.00    +0.008 A 
ATOM     18  C   UNL     1       3.012  -1.194  23.566  0.00  0.00    +0.008 A 
ATOM     21  C   UNL     1       4.560   1.024  22.885  0.00  0.00    +0.038 A 
ATOM     22  C   UNL     1       4.396  -1.228  23.744  0.00  0.00    +0.038 A 
ATOM     26  C   UNL     1       5.170  -0.119  23.404  0.00  0.00    +0.123 A 
ENDBRANCH  14  15
ENDBRANCH   7  14
ENDBRANCH   9   7
BRANCH  11  13
ATOM     13  C   UNL     1      -3.062   3.766  25.101  0.00  0.00    +0.140 C 
BRANCH  13   8
ATOM      8  N   UNL     1      -4.078   3.028  24.326  0.00  0.00    -0.187 NA
ATOM     29  H   UNL     1      -4.360   3.458  23.437  0.00  0.00    +0.148 HD
BRANCH   8   1
ATOM      1  S   UNL     1      -5.187   2.014  25.124  0.00  0.00    +0.058 S 
ATOM      5  O   UNL     1      -6.427   1.974  24.372  0.00  0.00    -0.153 OA
ATOM      6  O   UNL     1      -5.201   2.347  26.535  0.00  0.00    -0.153 OA
BRANCH   1  16
ATOM     16  C   UNL     1      -4.407   0.435  24.973  0.00  0.00    +0.105 A 
ATOM     19  C   UNL     1      -3.364   0.089  25.833  0.00  0.00    +0.029 A 
ATOM     20  C   UNL     1      -4.832  -0.462  23.993  0.00  0.00    +0.029 A 
ATOM     23  C   UNL     1      -2.747  -1.156  25.712  0.00  0.00    +0.005 A 
ATOM     24  C   UNL     1      -4.214  -1.707  23.873  0.00  0.00    +0.005 A 
ATOM     25  C   UNL     1      -3.172  -2.054  24.732  0.00  0.00    -0.050 A 
ATOM     27  C   UNL     1      -2.511  -3.385  24.604  0.00  0.00    +0.044 C 
ENDBRANCH   1  16
ENDBRANCH   8   1
ENDBRANCH  13   8
ENDBRANCH  11  13
TORSDOF 8
ENDMDL
MODEL 2
REMARK VINA RESULT:      -5.1      1.866      3.888
REMARK  Name = 75536708
REMARK  9 active torsions:
REMARK  status: ('A' for Active; 'I' for Inactive)
REMARK    1  A    between atoms: S_1  and  N_8
REMARK    2  A    between atoms: S_1  and  C_16
REMARK    3  A    between atoms: O_4  and  C_10
REMARK    4  A    between atoms: N_7  and  C_9
REMARK    5  A    between atoms: N_7  and  C_14
REMARK    6  A    between atoms: N_8  and  C_13
REMARK    7  A    between atoms: C_11  and  C_13
REMARK    8  A    between atoms: C_14  and  C_15
REMARK    9  A    between atoms: C_25  and  C_27
REMARK                            x       y       z     vdW  Elec       q    Type
REMARK                         _______ _______ _______ _____ _____    ______ ____
ROOT
ATOM      3  O   UNL     1      -1.959  -2.545  24.132  0.00  0.00    -0.371 OA
ATOM      9  C   UNL     1      -0.190  -1.005  24.504  0.00  0.00    +0.111 C 
ATOM     10  C   UNL     1      -1.361  -0.636  25.395  0.00  0.00    +0.164 C 
ATOM     11  C   UNL     1      -2.128  -1.952  25.431  0.00  0.00    +0.164 C 
ATOM     12  C   UNL     1      -0.865  -1.888  23.469  0.00  0.00    +0.181 C 
ENDROOT
BRANCH  10   4
ATOM      4  O   UNL     1      -0.957  -0.226  26.687  0.00  0.00    -0.388 OA
ATOM     30  H   UNL     1      -1.203  -0.922  27.320  0.00  0.00    +0.210 HD
ENDBRANCH  10   4
BRANCH   9   7
ATOM      7  N   UNL     1       0.482   0.143  23.918  0.00  0.00    -0.305 NA
ATOM     28  H   UNL     1       1.106   0.554  24.611  0.00  0.00    +0.123 HD
BRANCH   7  14
ATOM     14  C   UNL     1       1.264  -0.245  22.750  0.00  0.00    +0.116 C 
BRANCH  14  15
ATOM      2  F   UNL     1       6.802  -0.062  23.771  0.00  0.00    -0.205 F 
ATOM     15  C   UNL     1       2.744  -0.196  23.024  0.00  0.00    -0.033 A 
ATOM     17  C   UNL     1       3.466   0.965  22.746  0.00  0.00    +0.008 A 
ATOM     18  C   UNL     1       3.392  -1.312  23.553  0.00  0.00    +0.008 A 
ATOM     21  C   UNL     1       4.836   1.010  23.000  0.00  0.00    +0.038 A 
ATOM     22  C   UNL     1       4.763  -1.266  23.806  0.00  0.00    +0.038 A 
ATOM     26  C   UNL     1       5.485  -0.106  23.529  0.00  0.00    +0.123 A 
ENDBRANCH  14  15
ENDBRANCH   7  14
ENDBRANCH   9   7
BRANCH  11  13
ATOM     13  C   UNL     1      -3.607  -1.777  25.727  0.00  0.00    +0.140 C 
BRANCH  13   8
ATOM      8  N   UNL     1      -3.906  -0.346  25.929  0.00  0.00    -0.187 NA
ATOM     29  H   UNL     1      -4.184  -0.078  26.881  0.00  0.00    +0.148 HD
BRANCH   8   1
ATOM      1  S   UNL     1      -4.457   0.601  24.627  0.00  0.00    +0.058 S 
ATOM      5  O   UNL     1      -5.816   1.032  24.890  0.00  0.00    -0.153 OA
ATOM      6  O   UNL     1      -4.133  -0.071  23.384  0.00  0.00    -0.153 OA
BRANCH   1  16
ATOM     16  C   UNL     1      -3.405   2.017  24.739  0.00  0.00    +0.105 A 
ATOM     19  C   UNL     1      -3.685   3.022  25.666  0.00  0.00    +0.029 A 
ATOM     20  C   UNL     1      -2.297   2.131  23.900  0.00  0.00    +0.029 A 
ATOM     23  C   UNL     1      -2.857   4.140  25.753  0.00  0.00    +0.005 A 
ATOM     24  C   UNL     1      -1.468   3.249  23.987  0.00  0.00    +0.005 A 
ATOM     25  C   UNL     1      -1.747   4.254  24.913  0.00  0.00    -0.050 A 
ATOM     27  C   UNL     1      -0.861   5.450  25.006  0.00  0.00    +0.044 C 
ENDBRANCH   1  16
ENDBRANCH   8   1
ENDBRANCH  13   8
ENDBRANCH  11  13
TORSDOF 8
ENDMDL
MODEL 3
REMARK VINA RESULT:      -3.9      4.176      7.246
REMARK  Name = 75536708
REMARK  9 active torsions:
REMARK  status: ('A' for Active; 'I' for Inactive)
REMARK    1  A    between atoms: S_1  and  N_8
REMARK    2  A    between atoms: S_1  and  C_16
REMARK    3  A    between atoms: O_4  and  C_10
REMARK    4  A    between atoms: N_7  and  C_9
REMARK    5  A    between atoms: N_7  and  C_14
REMARK    6  A    between atoms: N_8  and  C_13
REMARK    7  A    between atoms: C_11  and  C_13
REMARK    8  A    between atoms: C_14  and  C_15
REMARK    9  A    between atoms: C_25  and  C_27
REMARK                            x       y       z     vdW  Elec       q    Type
REMARK                         _______ _______ _______ _____ _____    ______ ____
ROOT
ATOM      3  O   UNL     1      -1.602  -1.393  26.436  0.00  0.00    -0.371 OA
ATOM      9  C   UNL     1      -3.555  -1.781  25.141  0.00  0.00    +0.111 C 
ATOM     10  C   UNL     1      -2.339  -2.201  24.338  0.00  0.00    +0.164 C 
ATOM     11  C   UNL     1      -1.309  -2.392  25.444  0.00  0.00    +0.164 C 
ATOM     12  C   UNL     1      -2.926  -0.885  26.195  0.00  0.00    +0.181 C 
ENDROOT
BRANCH  10   4
ATOM      4  O   UNL     1      -2.553  -3.392  23.606  0.00  0.00    -0.388 OA
ATOM     30  H   UNL     1      -1.926  -3.410  22.862  0.00  0.00    +0.210 HD
ENDBRANCH  10   4
BRANCH   9   7
ATOM      7  N   UNL     1      -4.569  -1.100  24.352  0.00  0.00    -0.305 NA
ATOM     28  H   UNL     1      -5.315  -0.783  24.971  0.00  0.00    +0.123 HD
BRANCH   7  14
ATOM     14  C   UNL     1      -4.008   0.054  23.659  0.00  0.00    +0.116 C 
BRANCH  14  15
ATOM      2  F   UNL     1      -5.836   4.914  25.846  0.00  0.00    -0.205 F 
ATOM     15  C   UNL     1      -4.496   1.352  24.244  0.00  0.00    -0.033 A 
ATOM     17  C   UNL     1      -5.383   1.343  25.321  0.00  0.00    +0.008 A 
ATOM     18  C   UNL     1      -4.062   2.565  23.708  0.00  0.00    +0.008 A 
ATOM     21  C   UNL     1      -5.834   2.546  25.862  0.00  0.00    +0.038 A 
ATOM     22  C   UNL     1      -4.515   3.768  24.250  0.00  0.00    +0.038 A 
ATOM     26  C   UNL     1      -5.401   3.759  25.327  0.00  0.00    +0.123 A 
ENDBRANCH  14  15
ENDBRANCH   7  14
ENDBRANCH   9   7
BRANCH  11  13
ATOM     13  C   UNL     1       0.123  -2.234  24.965  0.00  0.00    +0.140 C 
BRANCH  13   8
ATOM      8  N   UNL     1       0.524  -0.817  25.062  0.00  0.00    -0.187 NA
ATOM     29  H   UNL     1       0.329  -0.358  25.961  0.00  0.00    +0.148 HD
BRANCH   8   1
ATOM      1  S   UNL     1       0.599   0.145  23.660  0.00  0.00    +0.058 S 
ATOM      5  O   UNL     1      -0.287  -0.406  22.653  0.00  0.00    -0.153 OA
ATOM      6  O   UNL     1       1.989   0.410  23.343  0.00  0.00    -0.153 OA
BRANCH   1  16
ATOM     16  C   UNL     1      -0.100   1.666  24.228  0.00  0.00    +0.105 A 
ATOM     19  C   UNL     1      -0.671   1.738  25.500  0.00  0.00    +0.029 A 
ATOM     20  C   UNL     1      -0.084   2.792  23.406  0.00  0.00    +0.029 A 
ATOM     23  C   UNL     1      -1.225   2.937  25.948  0.00  0.00    +0.005 A 
ATOM     24  C   UNL     1      -0.638   3.991  23.854  0.00  0.00    +0.005 A 
ATOM     25  C   UNL     1      -1.209   4.064  25.124  0.00  0.00    -0.050 A 
ATOM     27  C   UNL     1      -1.801   5.346  25.603  0.00  0.00    +0.044 C 
ENDBRANCH   1  16
ENDBRANCH   8   1
ENDBRANCH  13   8
ENDBRANCH  11  13
TORSDOF 8
ENDMDL
MODEL 4
REMARK VINA RESULT:      -3.9     15.510     18.744
REMARK  Name = 75536708
REMARK  9 active torsions:
REMARK  status: ('A' for Active; 'I' for Inactive)
REMARK    1  A    between atoms: S_1  and  N_8
REMARK    2  A    between atoms: S_1  and  C_16
REMARK    3  A    between atoms: O_4  and  C_10
REMARK    4  A    between atoms: N_7  and  C_9
REMARK    5  A    between atoms: N_7  and  C_14
REMARK    6  A    between atoms: N_8  and  C_13
REMARK    7  A    between atoms: C_11  and  C_13
REMARK    8  A    between atoms: C_14  and  C_15
REMARK    9  A    between atoms: C_25  and  C_27
REMARK                            x       y       z     vdW  Elec       q    Type
REMARK                         _______ _______ _______ _____ _____    ______ ____
ROOT
ATOM      3  O   UNL     1      12.543  -4.731  31.886  0.00  0.00    -0.371 OA
ATOM      9  C   UNL     1      12.026  -6.891  32.726  0.00  0.00    +0.111 C 
ATOM     10  C   UNL     1      13.284  -6.977  31.882  0.00  0.00    +0.164 C 
ATOM     11  C   UNL     1      13.742  -5.525  31.890  0.00  0.00    +0.164 C 
ATOM     12  C   UNL     1      11.437  -5.572  32.255  0.00  0.00    +0.181 C 
ENDROOT
BRANCH  10   4
ATOM      4  O   UNL     1      14.257  -7.840  32.439  0.00  0.00    -0.388 OA
ATOM     30  H   UNL     1      13.875  -8.265  33.225  0.00  0.00    +0.210 HD
ENDBRANCH  10   4
BRANCH   9   7
ATOM      7  N   UNL     1      11.121  -8.014  32.541  0.00  0.00    -0.305 NA
ATOM     28  H   UNL     1      11.413  -8.780  33.148  0.00  0.00    +0.123 HD
BRANCH   7  14
ATOM     14  C   UNL     1       9.750  -7.645  32.873  0.00  0.00    +0.116 C 
BRANCH  14  15
ATOM      2  F   UNL     1       5.994 -10.781  30.082  0.00  0.00    -0.205 F 
ATOM     15  C   UNL     1       8.746  -8.483  32.129  0.00  0.00    -0.033 A 
ATOM     17  C   UNL     1       9.014  -9.828  31.871  0.00  0.00    +0.008 A 
ATOM     18  C   UNL     1       7.549  -7.914  31.694  0.00  0.00    +0.008 A 
ATOM     21  C   UNL     1       8.084 -10.603  31.181  0.00  0.00    +0.038 A 
ATOM     22  C   UNL     1       6.619  -8.691  31.003  0.00  0.00    +0.038 A 
ATOM     26  C   UNL     1       6.886 -10.035  30.746  0.00  0.00    +0.123 A 
ENDBRANCH  14  15
ENDBRANCH   7  14
ENDBRANCH   9   7
BRANCH  11  13
ATOM     13  C   UNL     1      14.602  -5.160  30.693  0.00  0.00    +0.140 C 
BRANCH  13   8
ATOM      8  N   UNL     1      14.830  -6.359  29.863  0.00  0.00    -0.187 NA
ATOM     29  H   UNL     1      14.163  -7.129  29.999  0.00  0.00    +0.148 HD
BRANCH   8   1
ATOM      1  S   UNL     1      16.398  -6.732  29.317  0.00  0.00    +0.058 S 
ATOM      5  O   UNL     1      17.104  -7.464  30.350  0.00  0.00    -0.153 OA
ATOM      6  O   UNL     1      16.989  -5.544  28.731  0.00  0.00    -0.153 OA
BRANCH   1  16
ATOM     16  C   UNL     1      16.062  -7.850  27.990  0.00  0.00    +0.105 A 
ATOM     19  C   UNL     1      16.101  -9.227  28.212  0.00  0.00    +0.029 A 
ATOM     20  C   UNL     1      15.761  -7.356  26.721  0.00  0.00    +0.029 A 
ATOM     23  C   UNL     1      15.838 -10.109  27.165  0.00  0.00    +0.005 A 
ATOM     24  C   UNL     1      15.498  -8.239  25.673  0.00  0.00    +0.005 A 
ATOM     25  C   UNL     1      15.536  -9.615  25.895  0.00  0.00    -0.050 A 
ATOM     27  C   UNL     1      15.255 -10.559  24.775  0.00  0.00    +0.044 C 
ENDBRANCH   1  16
ENDBRANCH   8   1
ENDBRANCH  13   8
ENDBRANCH  11  13
TORSDOF 8
ENDMDL
MODEL 5
REMARK VINA RESULT:      -3.5      3.540      5.725
REMARK  Name = 75536708
REMARK  9 active torsions:
REMARK  status: ('A' for Active; 'I' for Inactive)
REMARK    1  A    between atoms: S_1  and  N_8
REMARK    2  A    between atoms: S_1  and  C_16
REMARK    3  A    between atoms: O_4  and  C_10
REMARK    4  A    between atoms: N_7  and  C_9
REMARK    5  A    between atoms: N_7  and  C_14
REMARK    6  A    between atoms: N_8  and  C_13
REMARK    7  A    between atoms: C_11  and  C_13
REMARK    8  A    between atoms: C_14  and  C_15
REMARK    9  A    between atoms: C_25  and  C_27
REMARK                            x       y       z     vdW  Elec       q    Type
REMARK                         _______ _______ _______ _____ _____    ______ ____
ROOT
ATOM      3  O   UNL     1       0.654   0.660  22.717  0.00  0.00    -0.371 OA
ATOM      9  C   UNL     1      -0.182  -0.750  24.437  0.00  0.00    +0.111 C 
ATOM     10  C   UNL     1      -0.097   0.672  24.961  0.00  0.00    +0.164 C 
ATOM     11  C   UNL     1      -0.078   1.463  23.659  0.00  0.00    +0.164 C 
ATOM     12  C   UNL     1       0.739  -0.681  23.229  0.00  0.00    +0.181 C 
ENDROOT
BRANCH  10   4
ATOM      4  O   UNL     1      -1.200   1.021  25.774  0.00  0.00    -0.388 OA
ATOM     30  H   UNL     1      -1.066   0.630  26.655  0.00  0.00    +0.210 HD
ENDBRANCH  10   4
BRANCH   9   7
ATOM      7  N   UNL     1       0.228  -1.754  25.404  0.00  0.00    -0.305 NA
ATOM     28  H   UNL     1       0.405  -1.300  26.301  0.00  0.00    +0.123 HD
BRANCH   7  14
ATOM     14  C   UNL     1      -0.808  -2.765  25.584  0.00  0.00    +0.116 C 
BRANCH  14  15
ATOM      2  F   UNL     1      -5.877  -0.893  23.989  0.00  0.00    -0.205 F 
ATOM     15  C   UNL     1      -2.161  -2.264  25.158  0.00  0.00    -0.033 A 
ATOM     17  C   UNL     1      -2.783  -1.238  25.871  0.00  0.00    +0.008 A 
ATOM     18  C   UNL     1      -2.796  -2.827  24.051  0.00  0.00    +0.008 A 
ATOM     21  C   UNL     1      -4.037  -0.775  25.475  0.00  0.00    +0.038 A 
ATOM     22  C   UNL     1      -4.051  -2.363  23.655  0.00  0.00    +0.038 A 
ATOM     26  C   UNL     1      -4.671  -1.338  24.367  0.00  0.00    +0.123 A 
ENDBRANCH  14  15
ENDBRANCH   7  14
ENDBRANCH   9   7
BRANCH  11  13
ATOM     13  C   UNL     1       0.582   2.824  23.794  0.00  0.00    +0.140 C 
BRANCH  13   8
ATOM      8  N   UNL     1      -0.445   3.881  23.734  0.00  0.00    -0.187 NA
ATOM     29  H   UNL     1      -0.372   4.531  22.940  0.00  0.00    +0.148 HD
BRANCH   8   1
ATOM      1  S   UNL     1      -1.190   4.429  25.162  0.00  0.00    +0.058 S 
ATOM      5  O   UNL     1      -1.358   5.868  25.094  0.00  0.00    -0.153 OA
ATOM      6  O   UNL     1      -0.525   3.826  26.302  0.00  0.00    -0.153 OA
BRANCH   1  16
ATOM     16  C   UNL     1      -2.789   3.687  25.044  0.00  0.00    +0.105 A 
ATOM     19  C   UNL     1      -3.682   3.784  26.112  0.00  0.00    +0.029 A 
ATOM     20  C   UNL     1      -3.157   3.002  23.886  0.00  0.00    +0.029 A 
ATOM     23  C   UNL     1      -4.944   3.196  26.020  0.00  0.00    +0.005 A 
ATOM     24  C   UNL     1      -4.419   2.414  23.795  0.00  0.00    +0.005 A 
ATOM     25  C   UNL     1      -5.312   2.511  24.861  0.00  0.00    -0.050 A 
ATOM     27  C   UNL     1      -6.661   1.883  24.764  0.00  0.00    +0.044 C 
ENDBRANCH   1  16
ENDBRANCH   8   1
ENDBRANCH  13   8
ENDBRANCH  11  13
TORSDOF 8
ENDMDL
MODEL 6
REMARK VINA RESULT:      -3.5      2.691      6.799
REMARK  Name = 75536708
REMARK  9 active torsions:
REMARK  status: ('A' for Active; 'I' for Inactive)
REMARK    1  A    between atoms: S_1  and  N_8
REMARK    2  A    between atoms: S_1  and  C_16
REMARK    3  A    between atoms: O_4  and  C_10
REMARK    4  A    between atoms: N_7  and  C_9
REMARK    5  A    between atoms: N_7  and  C_14
REMARK    6  A    between atoms: N_8  and  C_13
REMARK    7  A    between atoms: C_11  and  C_13
REMARK    8  A    between atoms: C_14  and  C_15
REMARK    9  A    between atoms: C_25  and  C_27
REMARK                            x       y       z     vdW  Elec       q    Type
REMARK                         _______ _______ _______ _____ _____    ______ ____
ROOT
ATOM      3  O   UNL     1      -1.732   2.757  23.014  0.00  0.00    -0.371 OA
ATOM      9  C   UNL     1      -3.297   3.077  24.772  0.00  0.00    +0.111 C 
ATOM     10  C   UNL     1      -1.926   2.823  25.371  0.00  0.00    +0.164 C 
ATOM     11  C   UNL     1      -1.023   3.172  24.195  0.00  0.00    +0.164 C 
ATOM     12  C   UNL     1      -3.112   2.546  23.360  0.00  0.00    +0.181 C 
ENDROOT
BRANCH  10   4
ATOM      4  O   UNL     1      -1.663   3.637  26.497  0.00  0.00    -0.388 OA
ATOM     30  H   UNL     1      -0.831   3.339  26.902  0.00  0.00    +0.210 HD
ENDBRANCH  10   4
BRANCH   9   7
ATOM      7  N   UNL     1      -4.377   2.418  25.487  0.00  0.00    -0.305 NA
ATOM     28  H   UNL     1      -5.055   3.119  25.786  0.00  0.00    +0.123 HD
BRANCH   7  14
ATOM     14  C   UNL     1      -5.052   1.442  24.639  0.00  0.00    +0.116 C 
BRANCH  14  15
ATOM      2  F   UNL     1      -2.796  -3.696  25.143  0.00  0.00    -0.205 F 
ATOM     15  C   UNL     1      -4.448   0.069  24.773  0.00  0.00    -0.033 A 
ATOM     17  C   UNL     1      -4.600  -0.863  23.746  0.00  0.00    +0.008 A 
ATOM     18  C   UNL     1      -3.740  -0.270  25.925  0.00  0.00    +0.008 A 
ATOM     21  C   UNL     1      -4.041  -2.134  23.871  0.00  0.00    +0.038 A 
ATOM     22  C   UNL     1      -3.181  -1.543  26.050  0.00  0.00    +0.038 A 
ATOM     26  C   UNL     1      -3.331  -2.474  25.023  0.00  0.00    +0.123 A 
ENDBRANCH  14  15
ENDBRANCH   7  14
ENDBRANCH   9   7
BRANCH  11  13
ATOM     13  C   UNL     1       0.328   2.481  24.250  0.00  0.00    +0.140 C 
BRANCH  13   8
ATOM      8  N   UNL     1       0.145   1.063  24.613  0.00  0.00    -0.187 NA
ATOM     29  H   UNL     1       0.267   0.837  25.609  0.00  0.00    +0.148 HD
BRANCH   8   1
ATOM      1  S   UNL     1       0.443  -0.157  23.465  0.00  0.00    +0.058 S 
ATOM      5  O   UNL     1      -0.060   0.269  22.173  0.00  0.00    -0.153 OA
ATOM      6  O   UNL     1       0.041  -1.435  24.019  0.00  0.00    -0.153 OA
BRANCH   1  16
ATOM     16  C   UNL     1       2.208  -0.159  23.389  0.00  0.00    +0.105 A 
ATOM     19  C   UNL     1       2.923  -1.278  23.818  0.00  0.00    +0.029 A 
ATOM     20  C   UNL     1       2.888   0.959  22.905  0.00  0.00    +0.029 A 
ATOM     23  C   UNL     1       4.316  -1.279  23.761  0.00  0.00    +0.005 A 
ATOM     24  C   UNL     1       4.281   0.958  22.848  0.00  0.00    +0.005 A 
ATOM     25  C   UNL     1       4.996  -0.161  23.276  0.00  0.00    -0.050 A 
ATOM     27  C   UNL     1       6.486  -0.163  23.215  0.00  0.00    +0.044 C 
ENDBRANCH   1  16
ENDBRANCH   8   1
ENDBRANCH  13   8
ENDBRANCH  11  13
TORSDOF 8
ENDMDL
MODEL 7
REMARK VINA RESULT:      -3.1      3.711      6.003
REMARK  Name = 75536708
REMARK  9 active torsions:
REMARK  status: ('A' for Active; 'I' for Inactive)
REMARK    1  A    between atoms: S_1  and  N_8
REMARK    2  A    between atoms: S_1  and  C_16
REMARK    3  A    between atoms: O_4  and  C_10
REMARK    4  A    between atoms: N_7  and  C_9
REMARK    5  A    between atoms: N_7  and  C_14
REMARK    6  A    between atoms: N_8  and  C_13
REMARK    7  A    between atoms: C_11  and  C_13
REMARK    8  A    between atoms: C_14  and  C_15
REMARK    9  A    between atoms: C_25  and  C_27
REMARK                            x       y       z     vdW  Elec       q    Type
REMARK                         _______ _______ _______ _____ _____    ______ ____
ROOT
ATOM      3  O   UNL     1      -0.575   4.932  24.227  0.00  0.00    -0.371 OA
ATOM      9  C   UNL     1      -1.888   4.311  26.106  0.00  0.00    +0.111 C 
ATOM     10  C   UNL     1      -1.146   3.090  25.597  0.00  0.00    +0.164 C 
ATOM     11  C   UNL     1      -0.017   3.741  24.808  0.00  0.00    +0.164 C 
ATOM     12  C   UNL     1      -1.808   5.236  24.903  0.00  0.00    +0.181 C 
ENDROOT
BRANCH  10   4
ATOM      4  O   UNL     1      -0.655   2.273  26.642  0.00  0.00    -0.388 OA
ATOM     30  H   UNL     1      -0.129   2.829  27.242  0.00  0.00    +0.210 HD
ENDBRANCH  10   4
BRANCH   9   7
ATOM      7  N   UNL     1      -3.255   4.033  26.516  0.00  0.00    -0.305 NA
ATOM     28  H   UNL     1      -3.583   4.790  27.116  0.00  0.00    +0.123 HD
BRANCH   7  14
ATOM     14  C   UNL     1      -4.140   3.931  25.361  0.00  0.00    +0.116 C 
BRANCH  14  15
ATOM      2  F   UNL     1      -4.306  -1.312  23.303  0.00  0.00    -0.205 F 
ATOM     15  C   UNL     1      -4.185   2.530  24.811  0.00  0.00    -0.033 A 
ATOM     17  C   UNL     1      -4.997   1.569  25.413  0.00  0.00    +0.008 A 
ATOM     18  C   UNL     1      -3.413   2.193  23.699  0.00  0.00    +0.008 A 
ATOM     21  C   UNL     1      -5.039   0.273  24.903  0.00  0.00    +0.038 A 
ATOM     22  C   UNL     1      -3.454   0.895  23.189  0.00  0.00    +0.038 A 
ATOM     26  C   UNL     1      -4.267  -0.065  23.791  0.00  0.00    +0.123 A 
ENDBRANCH  14  15
ENDBRANCH   7  14
ENDBRANCH   9   7
BRANCH  11  13
ATOM     13  C   UNL     1       0.542   2.850  23.712  0.00  0.00    +0.140 C 
BRANCH  13   8
ATOM      8  N   UNL     1       1.050   1.598  24.304  0.00  0.00    -0.187 NA
ATOM     29  H   UNL     1       1.760   1.707  25.039  0.00  0.00    +0.148 HD
BRANCH   8   1
ATOM      1  S   UNL     1       1.042   0.160  23.394  0.00  0.00    +0.058 S 
ATOM      5  O   UNL     1       2.289  -0.549  23.606  0.00  0.00    -0.153 OA
ATOM      6  O   UNL     1       0.592   0.457  22.047  0.00  0.00    -0.153 OA
BRANCH   1  16
ATOM     16  C   UNL     1      -0.248  -0.758  24.179  0.00  0.00    +0.105 A 
ATOM     19  C   UNL     1      -0.778  -0.316  25.391  0.00  0.00    +0.029 A 
ATOM     20  C   UNL     1      -0.734  -1.924  23.588  0.00  0.00    +0.029 A 
ATOM     23  C   UNL     1      -1.795  -1.041  26.013  0.00  0.00    +0.005 A 
ATOM     24  C   UNL     1      -1.750  -2.650  24.210  0.00  0.00    +0.005 A 
ATOM     25  C   UNL     1      -2.281  -2.209  25.422  0.00  0.00    -0.050 A 
ATOM     27  C   UNL     1      -3.368  -2.984  26.087  0.00  0.00    +0.044 C 
ENDBRANCH   1  16
ENDBRANCH   8   1
ENDBRANCH  13   8
ENDBRANCH  11  13
TORSDOF 8
ENDMDL
MODEL 8
REMARK VINA RESULT:      -3.0      2.977      7.118
REMARK  Name = 75536708
REMARK  9 active torsions:
REMARK  status: ('A' for Active; 'I' for Inactive)
REMARK    1  A    between atoms: S_1  and  N_8
REMARK    2  A    between atoms: S_1  and  C_16
REMARK    3  A    between atoms: O_4  and  C_10
REMARK    4  A    between atoms: N_7  and  C_9
REMARK    5  A    between atoms: N_7  and  C_14
REMARK    6  A    between atoms: N_8  and  C_13
REMARK    7  A    between atoms: C_11  and  C_13
REMARK    8  A    between atoms: C_14  and  C_15
REMARK    9  A    between atoms: C_25  and  C_27
REMARK                            x       y       z     vdW  Elec       q    Type
REMARK                         _______ _______ _______ _____ _____    ______ ____
ROOT
ATOM      3  O   UNL     1      -1.817  -0.753  25.846  0.00  0.00    -0.371 OA
ATOM      9  C   UNL     1      -4.021  -0.396  25.034  0.00  0.00    +0.111 C 
ATOM     10  C   UNL     1      -3.270  -1.278  24.054  0.00  0.00    +0.164 C 
ATOM     11  C   UNL     1      -2.155  -1.818  24.941  0.00  0.00    +0.164 C 
ATOM     12  C   UNL     1      -2.877   0.219  25.824  0.00  0.00    +0.181 C 
ENDROOT
BRANCH  10   4
ATOM      4  O   UNL     1      -4.074  -2.315  23.527  0.00  0.00    -0.388 OA
ATOM     30  H   UNL     1      -3.488  -3.014  23.189  0.00  0.00    +0.210 HD
ENDBRANCH  10   4
BRANCH   9   7
ATOM      7  N   UNL     1      -4.866   0.599  24.395  0.00  0.00    -0.305 NA
ATOM     28  H   UNL     1      -5.757   0.170  24.146  0.00  0.00    +0.123 HD
BRANCH   7  14
ATOM     14  C   UNL     1      -5.118   1.726  25.285  0.00  0.00    +0.116 C 
BRANCH  14  15
ATOM      2  F   UNL     1      -0.993   5.558  25.047  0.00  0.00    -0.205 F 
ATOM     15  C   UNL     1      -4.016   2.750  25.221  0.00  0.00    -0.033 A 
ATOM     17  C   UNL     1      -3.226   2.854  24.076  0.00  0.00    +0.008 A 
ATOM     18  C   UNL     1      -3.785   3.594  26.307  0.00  0.00    +0.008 A 
ATOM     21  C   UNL     1      -2.206   3.803  24.018  0.00  0.00    +0.038 A 
ATOM     22  C   UNL     1      -2.764   4.543  26.248  0.00  0.00    +0.038 A 
ATOM     26  C   UNL     1      -1.975   4.648  25.104  0.00  0.00    +0.123 A 
ENDBRANCH  14  15
ENDBRANCH   7  14
ENDBRANCH   9   7
BRANCH  11  13
ATOM     13  C   UNL     1      -0.921  -2.240  24.163  0.00  0.00    +0.140 C 
BRANCH  13   8
ATOM      8  N   UNL     1       0.178  -1.292  24.425  0.00  0.00    -0.187 NA
ATOM     29  H   UNL     1       0.380  -1.105  25.416  0.00  0.00    +0.148 HD
BRANCH   8   1
ATOM      1  S   UNL     1       0.561  -0.092  23.281  0.00  0.00    +0.058 S 
ATOM      5  O   UNL     1       0.133   1.200  23.780  0.00  0.00    -0.153 OA
ATOM      6  O   UNL     1       0.141  -0.542  21.967  0.00  0.00    -0.153 OA
BRANCH   1  16
ATOM     16  C   UNL     1       2.327  -0.126  23.298  0.00  0.00    +0.105 A 
ATOM     19  C   UNL     1       2.998  -1.265  23.746  0.00  0.00    +0.029 A 
ATOM     20  C   UNL     1       3.051   0.986  22.868  0.00  0.00    +0.029 A 
ATOM     23  C   UNL     1       4.392  -1.292  23.762  0.00  0.00    +0.005 A 
ATOM     24  C   UNL     1       4.446   0.959  22.884  0.00  0.00    +0.005 A 
ATOM     25  C   UNL     1       5.116  -0.179  23.331  0.00  0.00    -0.050 A 
ATOM     27  C   UNL     1       6.608  -0.208  23.348  0.00  0.00    +0.044 C 
ENDBRANCH   1  16
ENDBRANCH   8   1
ENDBRANCH  13   8
ENDBRANCH  11  13
TORSDOF 8
ENDMDL
MODEL 9
REMARK VINA RESULT:      -3.0      3.022      4.087
REMARK  Name = 75536708
REMARK  9 active torsions:
REMARK  status: ('A' for Active; 'I' for Inactive)
REMARK    1  A    between atoms: S_1  and  N_8
REMARK    2  A    between atoms: S_1  and  C_16
REMARK    3  A    between atoms: O_4  and  C_10
REMARK    4  A    between atoms: N_7  and  C_9
REMARK    5  A    between atoms: N_7  and  C_14
REMARK    6  A    between atoms: N_8  and  C_13
REMARK    7  A    between atoms: C_11  and  C_13
REMARK    8  A    between atoms: C_14  and  C_15
REMARK    9  A    between atoms: C_25  and  C_27
REMARK                            x       y       z     vdW  Elec       q    Type
REMARK                         _______ _______ _______ _____ _____    ______ ____
ROOT
ATOM      3  O   UNL     1      -0.752   3.037  26.408  0.00  0.00    -0.371 OA
ATOM      9  C   UNL     1       0.242   2.145  24.443  0.00  0.00    +0.111 C 
ATOM     10  C   UNL     1      -0.572   3.371  24.073  0.00  0.00    +0.164 C 
ATOM     11  C   UNL     1      -0.667   4.078  25.419  0.00  0.00    +0.164 C 
ATOM     12  C   UNL     1      -0.338   1.798  25.804  0.00  0.00    +0.181 C 
ENDROOT
BRANCH  10   4
ATOM      4  O   UNL     1       0.065   4.175  23.099  0.00  0.00    -0.388 OA
ATOM     30  H   UNL     1       0.070   5.094  23.417  0.00  0.00    +0.210 HD
ENDBRANCH  10   4
BRANCH   9   7
ATOM      7  N   UNL     1       0.127   1.058  23.486  0.00  0.00    -0.305 NA
ATOM     28  H   UNL     1       0.679   1.283  22.658  0.00  0.00    +0.123 HD
BRANCH   7  14
ATOM     14  C   UNL     1       0.616  -0.195  24.051  0.00  0.00    +0.116 C 
BRANCH  14  15
ATOM      2  F   UNL     1      -3.576  -3.369  26.075  0.00  0.00    -0.205 F 
ATOM     15  C   UNL     1      -0.505  -1.042  24.592  0.00  0.00    -0.033 A 
ATOM     17  C   UNL     1      -1.138  -0.685  25.783  0.00  0.00    +0.008 A 
ATOM     18  C   UNL     1      -0.909  -2.185  23.902  0.00  0.00    +0.008 A 
ATOM     21  C   UNL     1      -2.175  -1.471  26.282  0.00  0.00    +0.038 A 
ATOM     22  C   UNL     1      -1.948  -2.971  24.403  0.00  0.00    +0.038 A 
ATOM     26  C   UNL     1      -2.580  -2.614  25.593  0.00  0.00    +0.123 A 
ENDBRANCH  14  15
ENDBRANCH   7  14
ENDBRANCH   9   7
BRANCH  11  13
ATOM     13  C   UNL     1      -1.874   4.992  25.533  0.00  0.00    +0.140 C 
BRANCH  13   8
ATOM      8  N   UNL     1      -3.044   4.215  25.985  0.00  0.00    -0.187 NA
ATOM     29  H   UNL     1      -2.843   3.444  26.635  0.00  0.00    +0.148 HD
BRANCH   8   1
ATOM      1  S   UNL     1      -4.426   4.104  24.999  0.00  0.00    +0.058 S 
ATOM      5  O   UNL     1      -4.204   4.850  23.776  0.00  0.00    -0.153 OA
ATOM      6  O   UNL     1      -5.603   4.361  25.807  0.00  0.00    -0.153 OA
BRANCH   1  16
ATOM     16  C   UNL     1      -4.444   2.384  24.594  0.00  0.00    +0.105 A 
ATOM     19  C   UNL     1      -5.377   1.537  25.194  0.00  0.00    +0.029 A 
ATOM     20  C   UNL     1      -3.525   1.873  23.677  0.00  0.00    +0.029 A 
ATOM     23  C   UNL     1      -5.390   0.178  24.876  0.00  0.00    +0.005 A 
ATOM     24  C   UNL     1      -3.538   0.515  23.360  0.00  0.00    +0.005 A 
ATOM     25  C   UNL     1      -4.470  -0.332  23.959  0.00  0.00    -0.050 A 
ATOM     27  C   UNL     1      -4.484  -1.785  23.619  0.00  0.00    +0.044 C 
ENDBRANCH   1  16
ENDBRANCH   8   1
ENDBRANCH  13   8
ENDBRANCH  11  13
TORSDOF 8
ENDMDL
MODEL 10
REMARK VINA RESULT:      -2.6      2.532      5.118
REMARK  Name = 75536708
REMARK  9 active torsions:
REMARK  status: ('A' for Active; 'I' for Inactive)
REMARK    1  A    between atoms: S_1  and  N_8
REMARK    2  A    between atoms: S_1  and  C_16
REMARK    3  A    between atoms: O_4  and  C_10
REMARK    4  A    between atoms: N_7  and  C_9
REMARK    5  A    between atoms: N_7  and  C_14
REMARK    6  A    between atoms: N_8  and  C_13
REMARK    7  A    between atoms: C_11  and  C_13
REMARK    8  A    between atoms: C_14  and  C_15
REMARK    9  A    between atoms: C_25  and  C_27
REMARK                            x       y       z     vdW  Elec       q    Type
REMARK                         _______ _______ _______ _____ _____    ______ ____
ROOT
ATOM      3  O   UNL     1      -6.268   1.971  25.835  0.00  0.00    -0.371 OA
ATOM      9  C   UNL     1      -5.052   3.892  25.149  0.00  0.00    +0.111 C 
ATOM     10  C   UNL     1      -4.468   2.669  24.467  0.00  0.00    +0.164 C 
ATOM     11  C   UNL     1      -5.630   1.690  24.577  0.00  0.00    +0.164 C 
ATOM     12  C   UNL     1      -5.824   3.260  26.294  0.00  0.00    +0.181 C 
ENDROOT
BRANCH  10   4
ATOM      4  O   UNL     1      -4.110   2.913  23.121  0.00  0.00    -0.388 OA
ATOM     30  H   UNL     1      -4.058   3.875  22.988  0.00  0.00    +0.210 HD
ENDBRANCH  10   4
BRANCH   9   7
ATOM      7  N   UNL     1      -4.049   4.843  25.599  0.00  0.00    -0.305 NA
ATOM     28  H   UNL     1      -4.515   5.623  26.065  0.00  0.00    +0.123 HD
BRANCH   7  14
ATOM     14  C   UNL     1      -3.119   4.223  26.535  0.00  0.00    +0.116 C 
BRANCH  14  15
ATOM      2  F   UNL     1       1.566   2.434  23.968  0.00  0.00    -0.205 F 
ATOM     15  C   UNL     1      -1.868   3.744  25.849  0.00  0.00    -0.033 A 
ATOM     17  C   UNL     1      -1.156   2.663  26.369  0.00  0.00    +0.008 A 
ATOM     18  C   UNL     1      -1.418   4.384  24.694  0.00  0.00    +0.008 A 
ATOM     21  C   UNL     1       0.003   2.220  25.733  0.00  0.00    +0.038 A 
ATOM     22  C   UNL     1      -0.258   3.941  24.058  0.00  0.00    +0.038 A 
ATOM     26  C   UNL     1       0.452   2.860  24.577  0.00  0.00    +0.123 A 
ENDBRANCH  14  15
ENDBRANCH   7  14
ENDBRANCH   9   7
BRANCH  11  13
ATOM     13  C   UNL     1      -5.195   0.235  24.537  0.00  0.00    +0.140 C 
BRANCH  13   8
ATOM      8  N   UNL     1      -4.161  -0.001  25.563  0.00  0.00    -0.187 NA
ATOM     29  H   UNL     1      -3.698   0.839  25.932  0.00  0.00    +0.148 HD
BRANCH   8   1
ATOM      1  S   UNL     1      -3.309  -1.474  25.591  0.00  0.00    +0.058 S 
ATOM      5  O   UNL     1      -4.033  -2.461  24.813  0.00  0.00    -0.153 OA
ATOM      6  O   UNL     1      -2.916  -1.766  26.956  0.00  0.00    -0.153 OA
BRANCH   1  16
ATOM     16  C   UNL     1      -1.837  -1.056  24.708  0.00  0.00    +0.105 A 
ATOM     19  C   UNL     1      -1.878  -0.093  23.699  0.00  0.00    +0.029 A 
ATOM     20  C   UNL     1      -0.634  -1.691  25.016  0.00  0.00    +0.029 A 
ATOM     23  C   UNL     1      -0.717   0.235  23.000  0.00  0.00    +0.005 A 
ATOM     24  C   UNL     1       0.528  -1.363  24.317  0.00  0.00    +0.005 A 
ATOM     25  C   UNL     1       0.486  -0.400  23.309  0.00  0.00    -0.050 A 
ATOM     27  C   UNL     1       1.729  -0.049  22.562  0.00  0.00    +0.044 C 
ENDBRANCH   1  16
ENDBRANCH   8   1
ENDBRANCH  13   8
ENDBRANCH  11  13
TORSDOF 8
ENDMDL
