MODEL 1
REMARK VINA RESULT:      -3.2      0.000      0.000
REMARK  Name = 56775473
REMARK  6 active torsions:
REMARK  status: ('A' for Active; 'I' for Inactive)
REMARK    1  A    between atoms: N_5  and  C_8
REMARK    2  A    between atoms: N_5  and  C_9
REMARK    3  A    between atoms: C_8  and  C_12
REMARK    4  A    between atoms: C_12  and  C_17
REMARK    5  A    between atoms: C_18  and  C_21
REMARK    6  A    between atoms: C_20  and  C_22
REMARK                            x       y       z     vdW  Elec       q    Type
REMARK                         _______ _______ _______ _____ _____    ______ ____
ROOT
ATOM      2  O   UNL     1      12.447  -5.671  31.067  0.00  0.00    -0.376 OA
ATOM      8  C   UNL     1      13.979  -6.901  31.901  0.00  0.00    +0.072 C 
ATOM     10  C   UNL     1      13.167  -5.681  32.321  0.00  0.00    +0.184 C 
ATOM     11  C   UNL     1      13.246  -6.769  30.571  0.00  0.00    +0.184 C 
ENDROOT
BRANCH   8   5
ATOM      5  N   UNL     1      13.464  -8.076  32.609  0.00  0.00    -0.304 NA
ATOM     28  H   UNL     1      12.466  -8.052  32.820  0.00  0.00    +0.123 HD
BRANCH   5   9
ATOM      4  O   UNL     1      17.023 -10.781  28.388  0.00  0.00    -0.276 OA
ATOM      6  N   UNL     1      15.032 -10.549  29.562  0.00  0.00    -0.302 N 
ATOM      9  C   UNL     1      13.793  -9.280  31.850  0.00  0.00    +0.057 C 
ATOM     13  C   UNL     1      15.316  -9.435  31.743  0.00  0.00    +0.037 C 
ATOM     14  C   UNL     1      13.162  -9.212  30.454  0.00  0.00    +0.037 C 
ATOM     15  C   UNL     1      15.681 -10.635  30.872  0.00  0.00    +0.109 C 
ATOM     16  C   UNL     1      13.570 -10.417  29.607  0.00  0.00    +0.109 C 
ATOM     18  C   UNL     1      15.799 -10.634  28.400  0.00  0.00    +0.212 C 
ATOM     21  C   UNL     1      15.057 -10.533  27.091  0.00  0.00    +0.109 C 
ENDBRANCH   5   9
ENDBRANCH   8   5
BRANCH   8  12
ATOM     12  C   UNL     1      15.475  -6.818  31.918  0.00  0.00    +0.085 C 
BRANCH  12  17
ATOM      3  O   UNL     1      17.063  -5.142  29.140  0.00  0.00    -0.354 OA
ATOM      7  N   UNL     1      16.753  -5.263  30.488  0.00  0.00    -0.083 NA
ATOM     17  C   UNL     1      16.004  -6.366  30.573  0.00  0.00    +0.086 A 
ATOM     19  C   UNL     1      15.810  -6.977  29.323  0.00  0.00    +0.076 A 
ATOM     20  C   UNL     1      16.497  -6.168  28.456  0.00  0.00    +0.167 A 
BRANCH  20  22
ATOM      1  F   UNL     1      17.405  -6.213  22.967  0.00  0.00    -0.205 F 
ATOM     22  C   UNL     1      16.732  -6.180  27.041  0.00  0.00    +0.020 A 
ATOM     23  C   UNL     1      17.029  -4.991  26.373  0.00  0.00    +0.014 A 
ATOM     24  C   UNL     1      16.663  -7.379  26.333  0.00  0.00    +0.014 A 
ATOM     25  C   UNL     1      17.255  -5.003  24.997  0.00  0.00    +0.039 A 
ATOM     26  C   UNL     1      16.891  -7.391  24.957  0.00  0.00    +0.039 A 
ATOM     27  C   UNL     1      17.187  -6.202  24.289  0.00  0.00    +0.123 A 
ENDBRANCH  20  22
ENDBRANCH  12  17
ENDBRANCH   8  12
TORSDOF 5
ENDMDL
MODEL 2
REMARK VINA RESULT:      -2.2     18.762     20.376
REMARK  Name = 56775473
REMARK  6 active torsions:
REMARK  status: ('A' for Active; 'I' for Inactive)
REMARK    1  A    between atoms: N_5  and  C_8
REMARK    2  A    between atoms: N_5  and  C_9
REMARK    3  A    between atoms: C_8  and  C_12
REMARK    4  A    between atoms: C_12  and  C_17
REMARK    5  A    between atoms: C_18  and  C_21
REMARK    6  A    between atoms: C_20  and  C_22
REMARK                            x       y       z     vdW  Elec       q    Type
REMARK                         _______ _______ _______ _____ _____    ______ ____
ROOT
ATOM      2  O   UNL     1      -6.358   4.262  25.844  0.00  0.00    -0.376 OA
ATOM      8  C   UNL     1      -4.314   3.801  25.442  0.00  0.00    +0.072 C 
ATOM     10  C   UNL     1      -5.549   3.069  25.953  0.00  0.00    +0.184 C 
ATOM     11  C   UNL     1      -5.205   5.037  25.443  0.00  0.00    +0.184 C 
ENDROOT
BRANCH   8   5
ATOM      5  N   UNL     1      -4.067   3.397  24.054  0.00  0.00    -0.304 NA
ATOM     28  H   UNL     1      -3.131   3.599  23.704  0.00  0.00    +0.123 HD
BRANCH   5   9
ATOM      4  O   UNL     1      -3.318  -2.349  26.109  0.00  0.00    -0.276 OA
ATOM      6  N   UNL     1      -3.733  -0.799  24.429  0.00  0.00    -0.302 N 
ATOM      9  C   UNL     1      -4.370   1.975  23.905  0.00  0.00    +0.057 C 
ATOM     13  C   UNL     1      -4.612   1.341  25.280  0.00  0.00    +0.037 C 
ATOM     14  C   UNL     1      -3.218   1.265  23.182  0.00  0.00    +0.037 C 
ATOM     15  C   UNL     1      -4.836  -0.164  25.153  0.00  0.00    +0.109 C 
ATOM     16  C   UNL     1      -3.469  -0.240  23.097  0.00  0.00    +0.109 C 
ATOM     18  C   UNL     1      -3.053  -1.874  25.002  0.00  0.00    +0.212 C 
ATOM     21  C   UNL     1      -1.929  -2.471  24.194  0.00  0.00    +0.109 C 
ENDBRANCH   5   9
ENDBRANCH   8   5
BRANCH   8  12
ATOM     12  C   UNL     1      -3.071   3.799  26.279  0.00  0.00    +0.085 C 
BRANCH  12  17
ATOM      3  O   UNL     1      -0.166   3.715  24.133  0.00  0.00    -0.354 OA
ATOM      7  N   UNL     1      -1.197   4.383  24.779  0.00  0.00    -0.083 NA
ATOM     17  C   UNL     1      -1.861   3.433  25.445  0.00  0.00    +0.086 A 
ATOM     19  C   UNL     1      -1.299   2.159  25.258  0.00  0.00    +0.076 A 
ATOM     20  C   UNL     1      -0.236   2.391  24.426  0.00  0.00    +0.167 A 
BRANCH  20  22
ATOM      1  F   UNL     1       3.676  -0.808  22.099  0.00  0.00    -0.205 F 
ATOM     22  C   UNL     1       0.773   1.567  23.827  0.00  0.00    +0.020 A 
ATOM     23  C   UNL     1       2.077   2.045  23.691  0.00  0.00    +0.014 A 
ATOM     24  C   UNL     1       0.451   0.286  23.379  0.00  0.00    +0.014 A 
ATOM     25  C   UNL     1       3.056   1.243  23.107  0.00  0.00    +0.039 A 
ATOM     26  C   UNL     1       1.431  -0.517  22.796  0.00  0.00    +0.039 A 
ATOM     27  C   UNL     1       2.734  -0.037  22.660  0.00  0.00    +0.123 A 
ENDBRANCH  20  22
ENDBRANCH  12  17
ENDBRANCH   8  12
TORSDOF 5
ENDMDL
MODEL 3
REMARK VINA RESULT:      -2.1      1.550      2.051
REMARK  Name = 56775473
REMARK  6 active torsions:
REMARK  status: ('A' for Active; 'I' for Inactive)
REMARK    1  A    between atoms: N_5  and  C_8
REMARK    2  A    between atoms: N_5  and  C_9
REMARK    3  A    between atoms: C_8  and  C_12
REMARK    4  A    between atoms: C_12  and  C_17
REMARK    5  A    between atoms: C_18  and  C_21
REMARK    6  A    between atoms: C_20  and  C_22
REMARK                            x       y       z     vdW  Elec       q    Type
REMARK                         _______ _______ _______ _____ _____    ______ ____
ROOT
ATOM      2  O   UNL     1      12.903  -6.429  30.454  0.00  0.00    -0.376 OA
ATOM      8  C   UNL     1      14.739  -7.297  31.108  0.00  0.00    +0.072 C 
ATOM     10  C   UNL     1      13.742  -6.264  31.620  0.00  0.00    +0.184 C 
ATOM     11  C   UNL     1      13.855  -7.346  29.868  0.00  0.00    +0.184 C 
ENDROOT
BRANCH   8   5
ATOM      5  N   UNL     1      14.561  -8.540  31.865  0.00  0.00    -0.304 NA
ATOM     28  H   UNL     1      13.648  -8.651  32.306  0.00  0.00    +0.123 HD
BRANCH   5   9
ATOM      4  O   UNL     1      17.391 -10.711  26.857  0.00  0.00    -0.276 OA
ATOM      6  N   UNL     1      15.690 -10.741  28.438  0.00  0.00    -0.302 N 
ATOM      9  C   UNL     1      14.847  -9.679  30.996  0.00  0.00    +0.057 C 
ATOM     13  C   UNL     1      16.317  -9.653  30.559  0.00  0.00    +0.037 C 
ATOM     14  C   UNL     1      13.923  -9.652  29.771  0.00  0.00    +0.037 C 
ATOM     15  C   UNL     1      16.613 -10.781  29.573  0.00  0.00    +0.109 C 
ATOM     16  C   UNL     1      14.267 -10.781  28.800  0.00  0.00    +0.109 C 
ATOM     18  C   UNL     1      16.190 -10.708  27.136  0.00  0.00    +0.212 C 
ATOM     21  C   UNL     1      15.175 -10.664  26.023  0.00  0.00    +0.109 C 
ENDBRANCH   5   9
ENDBRANCH   8   5
BRANCH   8  12
ATOM     12  C   UNL     1      16.178  -6.905  30.961  0.00  0.00    +0.085 C 
BRANCH  12  17
ATOM      3  O   UNL     1      17.110  -6.863  27.471  0.00  0.00    -0.354 OA
ATOM      7  N   UNL     1      16.915  -7.511  28.683  0.00  0.00    -0.083 NA
ATOM     17  C   UNL     1      16.496  -6.559  29.521  0.00  0.00    +0.086 A 
ATOM     19  C   UNL     1      16.410  -5.302  28.900  0.00  0.00    +0.076 A 
ATOM     20  C   UNL     1      16.806  -5.548  27.612  0.00  0.00    +0.167 A 
BRANCH  20  22
ATOM      1  F   UNL     1      17.402  -2.427  23.045  0.00  0.00    -0.205 F 
ATOM     22  C   UNL     1      16.958  -4.744  26.434  0.00  0.00    +0.020 A 
ATOM     23  C   UNL     1      16.898  -5.335  25.172  0.00  0.00    +0.014 A 
ATOM     24  C   UNL     1      17.168  -3.370  26.551  0.00  0.00    +0.014 A 
ATOM     25  C   UNL     1      17.049  -4.552  24.027  0.00  0.00    +0.039 A 
ATOM     26  C   UNL     1      17.317  -2.587  25.406  0.00  0.00    +0.039 A 
ATOM     27  C   UNL     1      17.257  -3.179  24.144  0.00  0.00    +0.123 A 
ENDBRANCH  20  22
ENDBRANCH  12  17
ENDBRANCH   8  12
TORSDOF 5
ENDMDL
MODEL 4
REMARK VINA RESULT:      -1.9     17.031     18.591
REMARK  Name = 56775473
REMARK  6 active torsions:
REMARK  status: ('A' for Active; 'I' for Inactive)
REMARK    1  A    between atoms: N_5  and  C_8
REMARK    2  A    between atoms: N_5  and  C_9
REMARK    3  A    between atoms: C_8  and  C_12
REMARK    4  A    between atoms: C_12  and  C_17
REMARK    5  A    between atoms: C_18  and  C_21
REMARK    6  A    between atoms: C_20  and  C_22
REMARK                            x       y       z     vdW  Elec       q    Type
REMARK                         _______ _______ _______ _____ _____    ______ ____
ROOT
ATOM      2  O   UNL     1      -2.174   5.021  25.329  0.00  0.00    -0.376 OA
ATOM      8  C   UNL     1      -1.645   3.036  24.754  0.00  0.00    +0.072 C 
ATOM     10  C   UNL     1      -0.975   4.404  24.808  0.00  0.00    +0.184 C 
ATOM     11  C   UNL     1      -2.895   3.774  25.215  0.00  0.00    +0.184 C 
ENDROOT
BRANCH   8   5
ATOM      5  N   UNL     1      -1.140   2.220  25.863  0.00  0.00    -0.304 NA
ATOM     28  H   UNL     1      -0.966   2.729  26.730  0.00  0.00    +0.123 HD
BRANCH   5   9
ATOM      4  O   UNL     1      -2.922  -3.491  24.444  0.00  0.00    -0.276 OA
ATOM      6  N   UNL     1      -3.325  -1.341  25.226  0.00  0.00    -0.302 N 
ATOM      9  C   UNL     1      -2.060   1.111  26.103  0.00  0.00    +0.057 C 
ATOM     13  C   UNL     1      -1.299  -0.221  26.073  0.00  0.00    +0.037 C 
ATOM     14  C   UNL     1      -3.176   1.115  25.051  0.00  0.00    +0.037 C 
ATOM     15  C   UNL     1      -2.258  -1.400  26.227  0.00  0.00    +0.109 C 
ATOM     16  C   UNL     1      -4.098  -0.092  25.224  0.00  0.00    +0.109 C 
ATOM     18  C   UNL     1      -3.563  -2.438  24.398  0.00  0.00    +0.212 C 
ATOM     21  C   UNL     1      -4.677  -2.297  23.393  0.00  0.00    +0.109 C 
ENDBRANCH   5   9
ENDBRANCH   8   5
BRANCH   8  12
ATOM     12  C   UNL     1      -1.676   2.294  23.452  0.00  0.00    +0.085 C 
BRANCH  12  17
ATOM      3  O   UNL     1       0.738  -0.319  22.819  0.00  0.00    -0.354 OA
ATOM      7  N   UNL     1      -0.558   0.179  22.836  0.00  0.00    -0.083 NA
ATOM     17  C   UNL     1      -0.443   1.428  23.297  0.00  0.00    +0.086 A 
ATOM     19  C   UNL     1       0.889   1.770  23.584  0.00  0.00    +0.076 A 
ATOM     20  C   UNL     1       1.591   0.637  23.267  0.00  0.00    +0.167 A 
BRANCH  20  22
ATOM      1  F   UNL     1       6.966  -0.795  23.418  0.00  0.00    -0.205 F 
ATOM     22  C   UNL     1       2.976   0.267  23.305  0.00  0.00    +0.020 A 
ATOM     23  C   UNL     1       3.343  -1.031  23.659  0.00  0.00    +0.014 A 
ATOM     24  C   UNL     1       3.958   1.206  22.988  0.00  0.00    +0.014 A 
ATOM     25  C   UNL     1       4.691  -1.389  23.698  0.00  0.00    +0.039 A 
ATOM     26  C   UNL     1       5.305   0.848  23.026  0.00  0.00    +0.039 A 
ATOM     27  C   UNL     1       5.671  -0.451  23.381  0.00  0.00    +0.123 A 
ENDBRANCH  20  22
ENDBRANCH  12  17
ENDBRANCH   8  12
TORSDOF 5
ENDMDL
MODEL 5
REMARK VINA RESULT:      -1.9     17.564     19.423
REMARK  Name = 56775473
REMARK  6 active torsions:
REMARK  status: ('A' for Active; 'I' for Inactive)
REMARK    1  A    between atoms: N_5  and  C_8
REMARK    2  A    between atoms: N_5  and  C_9
REMARK    3  A    between atoms: C_8  and  C_12
REMARK    4  A    between atoms: C_12  and  C_17
REMARK    5  A    between atoms: C_18  and  C_21
REMARK    6  A    between atoms: C_20  and  C_22
REMARK                            x       y       z     vdW  Elec       q    Type
REMARK                         _______ _______ _______ _____ _____    ______ ____
ROOT
ATOM      2  O   UNL     1      -3.034  -3.192  25.233  0.00  0.00    -0.376 OA
ATOM      8  C   UNL     1      -2.958  -1.156  24.599  0.00  0.00    +0.072 C 
ATOM     10  C   UNL     1      -2.313  -2.479  24.202  0.00  0.00    +0.184 C 
ATOM     11  C   UNL     1      -3.608  -1.959  25.719  0.00  0.00    +0.184 C 
ENDROOT
BRANCH   8   5
ATOM      5  N   UNL     1      -3.982  -0.815  23.606  0.00  0.00    -0.304 NA
ATOM     28  H   UNL     1      -4.821  -1.394  23.633  0.00  0.00    +0.123 HD
BRANCH   5   9
ATOM      4  O   UNL     1      -2.171   4.929  24.843  0.00  0.00    -0.276 OA
ATOM      6  N   UNL     1      -3.766   3.242  24.770  0.00  0.00    -0.302 N 
ATOM      9  C   UNL     1      -4.335   0.596  23.743  0.00  0.00    +0.057 C 
ATOM     13  C   UNL     1      -3.236   1.476  23.134  0.00  0.00    +0.037 C 
ATOM     14  C   UNL     1      -4.544   0.946  25.222  0.00  0.00    +0.037 C 
ATOM     15  C   UNL     1      -3.541   2.957  23.352  0.00  0.00    +0.109 C 
ATOM     16  C   UNL     1      -4.822   2.438  25.399  0.00  0.00    +0.109 C 
ATOM     18  C   UNL     1      -3.028   4.242  25.403  0.00  0.00    +0.212 C 
ATOM     21  C   UNL     1      -3.317   4.473  26.865  0.00  0.00    +0.109 C 
ENDBRANCH   5   9
ENDBRANCH   8   5
BRANCH   8  12
ATOM     12  C   UNL     1      -2.078   0.004  24.951  0.00  0.00    +0.085 C 
BRANCH  12  17
ATOM      3  O   UNL     1       0.587  -0.248  22.525  0.00  0.00    -0.354 OA
ATOM      7  N   UNL     1      -0.756  -0.211  22.876  0.00  0.00    -0.083 NA
ATOM     17  C   UNL     1      -0.762  -0.074  24.205  0.00  0.00    +0.086 A 
ATOM     19  C   UNL     1       0.535  -0.019  24.742  0.00  0.00    +0.076 A 
ATOM     20  C   UNL     1       1.347  -0.133  23.644  0.00  0.00    +0.167 A 
BRANCH  20  22
ATOM      1  F   UNL     1       6.853  -0.206  22.850  0.00  0.00    -0.205 F 
ATOM     22  C   UNL     1       2.766  -0.153  23.438  0.00  0.00    +0.020 A 
ATOM     23  C   UNL     1       3.516  -1.256  23.847  0.00  0.00    +0.014 A 
ATOM     24  C   UNL     1       3.397   0.933  22.831  0.00  0.00    +0.014 A 
ATOM     25  C   UNL     1       4.896  -1.273  23.649  0.00  0.00    +0.039 A 
ATOM     26  C   UNL     1       4.778   0.915  22.632  0.00  0.00    +0.039 A 
ATOM     27  C   UNL     1       5.527  -0.189  23.041  0.00  0.00    +0.123 A 
ENDBRANCH  20  22
ENDBRANCH  12  17
ENDBRANCH   8  12
TORSDOF 5
ENDMDL
MODEL 6
REMARK VINA RESULT:      -1.4     17.571     19.092
REMARK  Name = 56775473
REMARK  6 active torsions:
REMARK  status: ('A' for Active; 'I' for Inactive)
REMARK    1  A    between atoms: N_5  and  C_8
REMARK    2  A    between atoms: N_5  and  C_9
REMARK    3  A    between atoms: C_8  and  C_12
REMARK    4  A    between atoms: C_12  and  C_17
REMARK    5  A    between atoms: C_18  and  C_21
REMARK    6  A    between atoms: C_20  and  C_22
REMARK                            x       y       z     vdW  Elec       q    Type
REMARK                         _______ _______ _______ _____ _____    ______ ____
ROOT
ATOM      2  O   UNL     1      -3.241   4.249  25.216  0.00  0.00    -0.376 OA
ATOM      8  C   UNL     1      -3.635   2.393  24.240  0.00  0.00    +0.072 C 
ATOM     10  C   UNL     1      -2.791   2.889  25.408  0.00  0.00    +0.184 C 
ATOM     11  C   UNL     1      -3.990   3.862  24.042  0.00  0.00    +0.184 C 
ENDROOT
BRANCH   8   5
ATOM      5  N   UNL     1      -4.808   1.692  24.771  0.00  0.00    -0.304 NA
ATOM     28  H   UNL     1      -5.618   1.671  24.151  0.00  0.00    +0.123 HD
BRANCH   5   9
ATOM      4  O   UNL     1      -0.386  -2.553  25.251  0.00  0.00    -0.276 OA
ATOM      6  N   UNL     1      -2.601  -1.906  24.983  0.00  0.00    -0.302 N 
ATOM      9  C   UNL     1      -4.426   0.334  25.153  0.00  0.00    +0.057 C 
ATOM     13  C   UNL     1      -3.066   0.350  25.862  0.00  0.00    +0.037 C 
ATOM     14  C   UNL     1      -4.375  -0.567  23.913  0.00  0.00    +0.037 C 
ATOM     15  C   UNL     1      -2.604  -1.070  26.185  0.00  0.00    +0.109 C 
ATOM     16  C   UNL     1      -3.886  -1.969  24.274  0.00  0.00    +0.109 C 
ATOM     18  C   UNL     1      -1.444  -2.594  24.618  0.00  0.00    +0.212 C 
ATOM     21  C   UNL     1      -1.521  -3.431  23.366  0.00  0.00    +0.109 C 
ENDBRANCH   5   9
ENDBRANCH   8   5
BRANCH   8  12
ATOM     12  C   UNL     1      -2.966   1.649  23.125  0.00  0.00    +0.085 C 
BRANCH  12  17
ATOM      3  O   UNL     1       0.497   2.369  23.863  0.00  0.00    -0.354 OA
ATOM      7  N   UNL     1      -0.850   2.706  23.836  0.00  0.00    -0.083 NA
ATOM     17  C   UNL     1      -1.463   1.642  23.310  0.00  0.00    +0.086 A 
ATOM     19  C   UNL     1      -0.562   0.613  22.988  0.00  0.00    +0.076 A 
ATOM     20  C   UNL     1       0.656   1.121  23.356  0.00  0.00    +0.167 A 
BRANCH  20  22
ATOM      1  F   UNL     1       5.884  -0.778  23.222  0.00  0.00    -0.205 F 
ATOM     22  C   UNL     1       2.003   0.630  23.320  0.00  0.00    +0.020 A 
ATOM     23  C   UNL     1       2.266  -0.713  23.591  0.00  0.00    +0.014 A 
ATOM     24  C   UNL     1       3.053   1.498  23.017  0.00  0.00    +0.014 A 
ATOM     25  C   UNL     1       3.576  -1.188  23.558  0.00  0.00    +0.039 A 
ATOM     26  C   UNL     1       4.364   1.022  22.984  0.00  0.00    +0.039 A 
ATOM     27  C   UNL     1       4.625  -0.321  23.254  0.00  0.00    +0.123 A 
ENDBRANCH  20  22
ENDBRANCH  12  17
ENDBRANCH   8  12
TORSDOF 5
ENDMDL
MODEL 7
REMARK VINA RESULT:      -1.0     18.303     20.210
REMARK  Name = 56775473
REMARK  6 active torsions:
REMARK  status: ('A' for Active; 'I' for Inactive)
REMARK    1  A    between atoms: N_5  and  C_8
REMARK    2  A    between atoms: N_5  and  C_9
REMARK    3  A    between atoms: C_8  and  C_12
REMARK    4  A    between atoms: C_12  and  C_17
REMARK    5  A    between atoms: C_18  and  C_21
REMARK    6  A    between atoms: C_20  and  C_22
REMARK                            x       y       z     vdW  Elec       q    Type
REMARK                         _______ _______ _______ _____ _____    ______ ____
ROOT
ATOM      2  O   UNL     1       2.009  -0.438  21.023  0.00  0.00    -0.376 OA
ATOM      8  C   UNL     1       1.774   0.345  22.994  0.00  0.00    +0.072 C 
ATOM     10  C   UNL     1       0.902   0.123  21.764  0.00  0.00    +0.184 C 
ATOM     11  C   UNL     1       2.912  -0.168  22.119  0.00  0.00    +0.184 C 
ENDROOT
BRANCH   8   5
ATOM      5  N   UNL     1       1.449  -0.677  23.993  0.00  0.00    -0.304 NA
ATOM     28  H   UNL     1       2.058  -0.691  24.812  0.00  0.00    +0.123 HD
BRANCH   5   9
ATOM      4  O   UNL     1      -3.789  -3.348  25.793  0.00  0.00    -0.276 OA
ATOM      6  N   UNL     1      -2.592  -1.639  24.771  0.00  0.00    -0.302 N 
ATOM      9  C   UNL     1       0.054  -0.526  24.401  0.00  0.00    +0.057 C 
ATOM     13  C   UNL     1      -0.263  -1.479  25.560  0.00  0.00    +0.037 C 
ATOM     14  C   UNL     1      -0.875  -0.800  23.212  0.00  0.00    +0.037 C 
ATOM     15  C   UNL     1      -1.740  -1.405  25.938  0.00  0.00    +0.109 C 
ATOM     16  C   UNL     1      -2.342  -0.740  23.636  0.00  0.00    +0.109 C 
ATOM     18  C   UNL     1      -3.574  -2.629  24.814  0.00  0.00    +0.212 C 
ATOM     21  C   UNL     1      -4.407  -2.809  23.571  0.00  0.00    +0.109 C 
ENDBRANCH   5   9
ENDBRANCH   8   5
BRANCH   8  12
ATOM     12  C   UNL     1       1.869   1.723  23.577  0.00  0.00    +0.085 C 
BRANCH  12  17
ATOM      3  O   UNL     1      -0.687   2.420  26.032  0.00  0.00    -0.354 OA
ATOM      7  N   UNL     1       0.603   2.055  25.671  0.00  0.00    -0.083 NA
ATOM     17  C   UNL     1       0.606   2.074  24.335  0.00  0.00    +0.086 A 
ATOM     19  C   UNL     1      -0.642   2.440  23.803  0.00  0.00    +0.076 A 
ATOM     20  C   UNL     1      -1.419   2.647  24.912  0.00  0.00    +0.167 A 
BRANCH  20  22
ATOM      1  F   UNL     1      -6.708   4.157  25.750  0.00  0.00    -0.205 F 
ATOM     22  C   UNL     1      -2.782   3.038  25.127  0.00  0.00    +0.020 A 
ATOM     23  C   UNL     1      -3.074   4.146  25.923  0.00  0.00    +0.014 A 
ATOM     24  C   UNL     1      -3.817   2.308  24.543  0.00  0.00    +0.014 A 
ATOM     25  C   UNL     1      -4.400   4.524  26.133  0.00  0.00    +0.039 A 
ATOM     26  C   UNL     1      -5.143   2.686  24.753  0.00  0.00    +0.039 A 
ATOM     27  C   UNL     1      -5.434   3.795  25.548  0.00  0.00    +0.123 A 
ENDBRANCH  20  22
ENDBRANCH  12  17
ENDBRANCH   8  12
TORSDOF 5
ENDMDL
MODEL 8
REMARK VINA RESULT:       0.6     16.877     18.724
REMARK  Name = 56775473
REMARK  6 active torsions:
REMARK  status: ('A' for Active; 'I' for Inactive)
REMARK    1  A    between atoms: N_5  and  C_8
REMARK    2  A    between atoms: N_5  and  C_9
REMARK    3  A    between atoms: C_8  and  C_12
REMARK    4  A    between atoms: C_12  and  C_17
REMARK    5  A    between atoms: C_18  and  C_21
REMARK    6  A    between atoms: C_20  and  C_22
REMARK                            x       y       z     vdW  Elec       q    Type
REMARK                         _______ _______ _______ _____ _____    ______ ____
ROOT
ATOM      2  O   UNL     1      -2.820  -2.987  25.814  0.00  0.00    -0.376 OA
ATOM      8  C   UNL     1      -2.176  -1.271  24.722  0.00  0.00    +0.072 C 
ATOM     10  C   UNL     1      -3.496  -1.869  25.195  0.00  0.00    +0.184 C 
ATOM     11  C   UNL     1      -1.545  -2.525  25.316  0.00  0.00    +0.184 C 
ENDROOT
BRANCH   8   5
ATOM      5  N   UNL     1      -1.845  -0.126  25.576  0.00  0.00    -0.304 NA
ATOM     28  H   UNL     1      -0.969  -0.209  26.091  0.00  0.00    +0.123 HD
BRANCH   5   9
ATOM      4  O   UNL     1      -0.296   5.803  25.062  0.00  0.00    -0.276 OA
ATOM      6  N   UNL     1      -1.638   3.972  24.564  0.00  0.00    -0.302 N 
ATOM      9  C   UNL     1      -1.845   1.093  24.769  0.00  0.00    +0.057 C 
ATOM     13  C   UNL     1      -0.497   1.813  24.903  0.00  0.00    +0.037 C 
ATOM     14  C   UNL     1      -2.991   2.013  25.205  0.00  0.00    +0.037 C 
ATOM     15  C   UNL     1      -0.511   3.138  24.143  0.00  0.00    +0.109 C 
ATOM     16  C   UNL     1      -2.955   3.335  24.440  0.00  0.00    +0.109 C 
ATOM     18  C   UNL     1      -1.411   5.278  25.001  0.00  0.00    +0.212 C 
ATOM     21  C   UNL     1      -2.623   6.071  25.420  0.00  0.00    +0.109 C 
ENDBRANCH   5   9
ENDBRANCH   8   5
BRANCH   8  12
ATOM     12  C   UNL     1      -1.991  -0.984  23.263  0.00  0.00    +0.085 C 
BRANCH  12  17
ATOM      3  O   UNL     1       1.200  -0.170  21.779  0.00  0.00    -0.354 OA
ATOM      7  N   UNL     1      -0.178  -0.325  21.721  0.00  0.00    -0.083 NA
ATOM     17  C   UNL     1      -0.535  -0.716  22.948  0.00  0.00    +0.086 A 
ATOM     19  C   UNL     1       0.566  -0.824  23.814  0.00  0.00    +0.076 A 
ATOM     20  C   UNL     1       1.633  -0.470  23.030  0.00  0.00    +0.167 A 
BRANCH  20  22
ATOM      1  F   UNL     1       7.116  -0.024  23.860  0.00  0.00    -0.205 F 
ATOM     22  C   UNL     1       3.046  -0.355  23.245  0.00  0.00    +0.020 A 
ATOM     23  C   UNL     1       3.696   0.852  22.983  0.00  0.00    +0.014 A 
ATOM     24  C   UNL     1       3.772  -1.449  23.715  0.00  0.00    +0.014 A 
ATOM     25  C   UNL     1       5.070   0.963  23.191  0.00  0.00    +0.039 A 
ATOM     26  C   UNL     1       5.146  -1.338  23.923  0.00  0.00    +0.039 A 
ATOM     27  C   UNL     1       5.795  -0.131  23.661  0.00  0.00    +0.123 A 
ENDBRANCH  20  22
ENDBRANCH  12  17
ENDBRANCH   8  12
TORSDOF 5
ENDMDL
