MODEL 1
REMARK VINA RESULT:       1.5      0.000      0.000
REMARK  Name = 9424317
REMARK  3 active torsions:
REMARK  status: ('A' for Active; 'I' for Inactive)
REMARK    1  A    between atoms: N_6  and  C_9
REMARK    2  A    between atoms: N_8  and  C_23
REMARK    3  A    between atoms: C_23  and  C_24
REMARK                            x       y       z     vdW  Elec       q    Type
REMARK                         _______ _______ _______ _____ _____    ______ ____
ROOT
ATOM      1 BR   UNL     1      -7.378   0.898  28.106  0.00  0.00    -0.050 Br
ATOM      2  O   UNL     1      -1.940   2.491  22.079  0.00  0.00    -0.273 OA
ATOM      3  O   UNL     1      -3.516  -1.380  25.199  0.00  0.00    -0.270 OA
ATOM      5  N   UNL     1      -2.037   0.242  24.442  0.00  0.00    -0.286 N 
ATOM      7  N   UNL     1      -3.857   2.281  23.306  0.00  0.00    -0.283 N 
ATOM      9  C   UNL     1       0.597   0.994  23.431  0.00  0.00    +0.078 C 
ATOM     10  C   UNL     1      -1.713   1.660  24.333  0.00  0.00    +0.164 C 
ATOM     11  C   UNL     1      -0.212   1.971  24.283  0.00  0.00    +0.054 C 
ATOM     12  C   UNL     1       0.296  -0.434  23.875  0.00  0.00    +0.041 C 
ATOM     13  C   UNL     1      -1.190  -0.727  23.743  0.00  0.00    +0.111 C 
ATOM     14  C   UNL     1      -2.492   2.156  23.128  0.00  0.00    +0.238 C 
ATOM     15  C   UNL     1      -3.242  -0.196  24.992  0.00  0.00    +0.249 C 
ATOM     16  C   UNL     1      -4.299   0.808  25.285  0.00  0.00    +0.059 A 
ATOM     17  C   UNL     1      -4.623   1.871  24.422  0.00  0.00    +0.046 A 
ATOM     19  C   UNL     1      -5.128   0.530  26.386  0.00  0.00    +0.030 A 
ATOM     20  C   UNL     1      -5.810   2.589  24.646  0.00  0.00    +0.025 A 
ATOM     21  C   UNL     1      -6.275   1.287  26.620  0.00  0.00    +0.019 A 
ATOM     22  C   UNL     1      -6.623   2.307  25.743  0.00  0.00    +0.017 A 
ATOM     27  H   UNL     1      -4.349   2.817  22.596  0.00  0.00    +0.155 HD
ENDROOT
BRANCH   9   6
ATOM      4  O   UNL     1       2.750  -0.424  22.133  0.00  0.00    -0.253 OA
ATOM      6  N   UNL     1       2.010   1.275  23.532  0.00  0.00    -0.296 N 
ATOM      8  N   UNL     1       4.262   1.020  23.140  0.00  0.00    -0.296 N 
ATOM     18  C   UNL     1       2.985   0.535  22.867  0.00  0.00    +0.300 C 
ATOM     26  H   UNL     1       2.303   2.093  24.057  0.00  0.00    +0.151 HD
ATOM     28  H   UNL     1       4.357   1.830  23.745  0.00  0.00    +0.151 HD
BRANCH   8  23
ATOM     23  C   UNL     1       5.457   0.436  22.579  0.00  0.00    +0.132 C 
BRANCH  23  24
ATOM     24  C   UNL     1       6.082  -0.463  23.595  0.00  0.00    -0.016 C 
ATOM     25  C   UNL     1       5.389  -1.291  24.385  0.00  0.00    +0.005 C 
ENDBRANCH  23  24
ENDBRANCH   8  23
ENDBRANCH   9   6
TORSDOF 3
ENDMDL
MODEL 2
REMARK VINA RESULT:       3.5      1.983      2.638
REMARK  Name = 9424317
REMARK  3 active torsions:
REMARK  status: ('A' for Active; 'I' for Inactive)
REMARK    1  A    between atoms: N_6  and  C_9
REMARK    2  A    between atoms: N_8  and  C_23
REMARK    3  A    between atoms: C_23  and  C_24
REMARK                            x       y       z     vdW  Elec       q    Type
REMARK                         _______ _______ _______ _____ _____    ______ ____
ROOT
ATOM      1 BR   UNL     1      -6.874   5.725  25.312  0.00  0.00    -0.050 Br
ATOM      2  O   UNL     1      -2.344  -1.172  24.726  0.00  0.00    -0.273 OA
ATOM      3  O   UNL     1      -2.075   3.714  26.530  0.00  0.00    -0.270 OA
ATOM      5  N   UNL     1      -1.557   1.975  25.082  0.00  0.00    -0.286 N 
ATOM      7  N   UNL     1      -4.013   0.327  25.164  0.00  0.00    -0.283 N 
ATOM      9  C   UNL     1       0.420   0.248  23.803  0.00  0.00    +0.078 C 
ATOM     10  C   UNL     1      -1.994   1.102  23.999  0.00  0.00    +0.164 C 
ATOM     11  C   UNL     1      -0.871   0.619  23.073  0.00  0.00    +0.054 C 
ATOM     12  C   UNL     1       0.841   1.404  24.704  0.00  0.00    +0.041 C 
ATOM     13  C   UNL     1      -0.256   1.722  25.706  0.00  0.00    +0.111 C 
ATOM     14  C   UNL     1      -2.767  -0.017  24.674  0.00  0.00    +0.238 C 
ATOM     15  C   UNL     1      -2.423   2.886  25.686  0.00  0.00    +0.249 C 
ATOM     16  C   UNL     1      -3.871   2.821  25.354  0.00  0.00    +0.059 A 
ATOM     17  C   UNL     1      -4.588   1.616  25.234  0.00  0.00    +0.046 A 
ATOM     19  C   UNL     1      -4.566   4.043  25.372  0.00  0.00    +0.030 A 
ATOM     20  C   UNL     1      -5.992   1.663  25.201  0.00  0.00    +0.025 A 
ATOM     21  C   UNL     1      -5.957   4.071  25.287  0.00  0.00    +0.019 A 
ATOM     22  C   UNL     1      -6.670   2.881  25.215  0.00  0.00    +0.017 A 
ATOM     27  H   UNL     1      -4.622  -0.450  25.410  0.00  0.00    +0.155 HD
ENDROOT
BRANCH   9   6
ATOM      4  O   UNL     1       3.169   1.124  23.887  0.00  0.00    -0.253 OA
ATOM      6  N   UNL     1       1.465  -0.076  22.861  0.00  0.00    -0.296 N 
ATOM      8  N   UNL     1       3.573  -0.069  21.939  0.00  0.00    -0.296 N 
ATOM     18  C   UNL     1       2.772   0.394  22.980  0.00  0.00    +0.300 C 
ATOM     26  H   UNL     1       1.258  -0.732  22.115  0.00  0.00    +0.151 HD
ATOM     28  H   UNL     1       3.161  -0.684  21.243  0.00  0.00    +0.151 HD
BRANCH   8  23
ATOM     23  C   UNL     1       4.971   0.267  21.818  0.00  0.00    +0.132 C 
BRANCH  23  24
ATOM     24  C   UNL     1       5.631   0.089  23.145  0.00  0.00    -0.016 C 
ATOM     25  C   UNL     1       5.473  -0.993  23.918  0.00  0.00    +0.005 C 
ENDBRANCH  23  24
ENDBRANCH   8  23
ENDBRANCH   9   6
TORSDOF 3
ENDMDL
MODEL 3
REMARK VINA RESULT:       3.7      1.081      1.167
REMARK  Name = 9424317
REMARK  3 active torsions:
REMARK  status: ('A' for Active; 'I' for Inactive)
REMARK    1  A    between atoms: N_6  and  C_9
REMARK    2  A    between atoms: N_8  and  C_23
REMARK    3  A    between atoms: C_23  and  C_24
REMARK                            x       y       z     vdW  Elec       q    Type
REMARK                         _______ _______ _______ _____ _____    ______ ____
ROOT
ATOM      1 BR   UNL     1      -7.452   1.896  27.656  0.00  0.00    -0.050 Br
ATOM      2  O   UNL     1      -1.142   1.995  22.308  0.00  0.00    -0.273 OA
ATOM      3  O   UNL     1      -4.442  -1.314  24.624  0.00  0.00    -0.270 OA
ATOM      5  N   UNL     1      -2.375  -0.327  24.241  0.00  0.00    -0.286 N 
ATOM      7  N   UNL     1      -3.125   2.400  23.371  0.00  0.00    -0.283 N 
ATOM      9  C   UNL     1       0.446  -0.557  23.523  0.00  0.00    +0.078 C 
ATOM     10  C   UNL     1      -1.522   0.844  24.395  0.00  0.00    +0.164 C 
ATOM     11  C   UNL     1      -0.022   0.537  24.483  0.00  0.00    +0.054 C 
ATOM     12  C   UNL     1      -0.431  -1.792  23.699  0.00  0.00    +0.041 C 
ATOM     13  C   UNL     1      -1.888  -1.450  23.435  0.00  0.00    +0.111 C 
ATOM     14  C   UNL     1      -1.901   1.768  23.251  0.00  0.00    +0.238 C 
ATOM     15  C   UNL     1      -3.712  -0.321  24.639  0.00  0.00    +0.249 C 
ATOM     16  C   UNL     1      -4.330   0.972  25.040  0.00  0.00    +0.059 A 
ATOM     17  C   UNL     1      -4.116   2.182  24.355  0.00  0.00    +0.046 A 
ATOM     19  C   UNL     1      -5.327   0.900  26.028  0.00  0.00    +0.030 A 
ATOM     20  C   UNL     1      -4.954   3.275  24.631  0.00  0.00    +0.025 A 
ATOM     21  C   UNL     1      -6.116   2.011  26.324  0.00  0.00    +0.019 A 
ATOM     22  C   UNL     1      -5.938   3.194  25.616  0.00  0.00    +0.017 A 
ATOM     27  H   UNL     1      -3.285   3.178  22.737  0.00  0.00    +0.155 HD
ENDROOT
BRANCH   9   6
ATOM      4  O   UNL     1       2.723   0.457  22.069  0.00  0.00    -0.253 OA
ATOM      6  N   UNL     1       1.835  -0.877  23.751  0.00  0.00    -0.296 N 
ATOM      8  N   UNL     1       4.112  -0.814  23.426  0.00  0.00    -0.296 N 
ATOM     18  C   UNL     1       2.875  -0.337  22.996  0.00  0.00    +0.300 C 
ATOM     26  H   UNL     1       2.073  -1.467  24.541  0.00  0.00    +0.151 HD
ATOM     28  H   UNL     1       4.141  -1.455  24.213  0.00  0.00    +0.151 HD
BRANCH   8  23
ATOM     23  C   UNL     1       5.358  -0.416  22.817  0.00  0.00    +0.132 C 
BRANCH  23  24
ATOM     24  C   UNL     1       6.149   0.381  23.801  0.00  0.00    -0.016 C 
ATOM     25  C   UNL     1       5.666   0.810  24.973  0.00  0.00    +0.005 C 
ENDBRANCH  23  24
ENDBRANCH   8  23
ENDBRANCH   9   6
TORSDOF 3
ENDMDL
