MODEL 1
REMARK VINA RESULT:      -7.3      0.000      0.000
REMARK  Name = 75536553
REMARK  8 active torsions:
REMARK  status: ('A' for Active; 'I' for Inactive)
REMARK    1  A    between atoms: O_2  and  C_7
REMARK    2  A    between atoms: N_4  and  C_6
REMARK    3  A    between atoms: N_4  and  C_17
REMARK    4  A    between atoms: N_5  and  C_15
REMARK    5  A    between atoms: C_8  and  C_15
REMARK    6  A    between atoms: C_9  and  C_16
REMARK    7  A    between atoms: C_17  and  C_18
REMARK    8  A    between atoms: C_17  and  C_19
REMARK                            x       y       z     vdW  Elec       q    Type
REMARK                         _______ _______ _______ _____ _____    ______ ____
ROOT
ATOM      1  O   UNL     1      -4.357   3.761  25.877  0.00  0.00    -0.371 OA
ATOM      6  C   UNL     1      -2.343   3.901  24.626  0.00  0.00    +0.111 C 
ATOM      7  C   UNL     1      -3.100   2.655  24.206  0.00  0.00    +0.164 C 
ATOM      8  C   UNL     1      -4.510   2.999  24.667  0.00  0.00    +0.165 C 
ATOM     12  C   UNL     1      -2.994   4.213  25.963  0.00  0.00    +0.181 C 
ENDROOT
BRANCH   7   2
ATOM      2  O   UNL     1      -3.043   2.425  22.812  0.00  0.00    -0.388 OA
ATOM     22  H   UNL     1      -3.105   3.282  22.358  0.00  0.00    +0.210 HD
ENDBRANCH   7   2
BRANCH   6   4
ATOM      4  N   UNL     1      -0.907   3.704  24.728  0.00  0.00    -0.307 NA
ATOM     20  H   UNL     1      -0.500   4.396  25.358  0.00  0.00    +0.123 HD
BRANCH   4  17
ATOM     17  C   UNL     1      -0.593   2.360  25.199  0.00  0.00    +0.048 C 
ATOM     18  C   UNL     1       0.319   1.669  24.190  0.00  0.00    +0.023 C 
ATOM     19  C   UNL     1       0.061   2.421  26.576  0.00  0.00    +0.023 C 
ENDBRANCH   4  17
ENDBRANCH   6   4
BRANCH   8  15
ATOM     15  C   UNL     1      -5.368   1.776  24.936  0.00  0.00    +0.138 C 
BRANCH  15   5
ATOM      3  O   UNL     1      -4.288  -0.538  23.554  0.00  0.00    -0.276 OA
ATOM      5  N   UNL     1      -4.592   0.708  25.499  0.00  0.00    -0.313 N 
ATOM     16  C   UNL     1      -4.114  -0.367  24.758  0.00  0.00    +0.216 C 
ATOM     21  H   UNL     1      -4.386   0.753  26.493  0.00  0.00    +0.149 HD
BRANCH  16   9
ATOM      9  C   UNL     1      -3.312  -1.325  25.585  0.00  0.00    +0.075 C 
ATOM     10  C   UNL     1      -3.054  -2.620  24.812  0.00  0.00    +0.013 C 
ATOM     11  C   UNL     1      -1.934  -0.732  25.900  0.00  0.00    +0.013 C 
ATOM     13  C   UNL     1      -1.641  -2.466  24.267  0.00  0.00    +0.001 C 
ATOM     14  C   UNL     1      -0.917  -1.748  25.391  0.00  0.00    +0.001 C 
ENDBRANCH  16   9
ENDBRANCH  15   5
ENDBRANCH   8  15
TORSDOF 6
ENDMDL
MODEL 2
REMARK VINA RESULT:      -7.0      2.040      5.205
REMARK  Name = 75536553
REMARK  8 active torsions:
REMARK  status: ('A' for Active; 'I' for Inactive)
REMARK    1  A    between atoms: O_2  and  C_7
REMARK    2  A    between atoms: N_4  and  C_6
REMARK    3  A    between atoms: N_4  and  C_17
REMARK    4  A    between atoms: N_5  and  C_15
REMARK    5  A    between atoms: C_8  and  C_15
REMARK    6  A    between atoms: C_9  and  C_16
REMARK    7  A    between atoms: C_17  and  C_18
REMARK    8  A    between atoms: C_17  and  C_19
REMARK                            x       y       z     vdW  Elec       q    Type
REMARK                         _______ _______ _______ _____ _____    ______ ____
ROOT
ATOM      1  O   UNL     1      -0.710   1.020  26.030  0.00  0.00    -0.371 OA
ATOM      6  C   UNL     1      -0.647  -0.984  24.757  0.00  0.00    +0.111 C 
ATOM      7  C   UNL     1      -0.433   0.199  23.830  0.00  0.00    +0.164 C 
ATOM      8  C   UNL     1       0.019   1.266  24.816  0.00  0.00    +0.165 C 
ATOM     12  C   UNL     1      -1.262  -0.307  25.971  0.00  0.00    +0.181 C 
ENDROOT
BRANCH   7   2
ATOM      2  O   UNL     1       0.546  -0.053  22.840  0.00  0.00    -0.388 OA
ATOM     22  H   UNL     1       0.132  -0.562  22.124  0.00  0.00    +0.210 HD
ENDBRANCH   7   2
BRANCH   6   4
ATOM      4  N   UNL     1      -1.498  -2.019  24.194  0.00  0.00    -0.307 NA
ATOM     20  H   UNL     1      -1.135  -2.941  24.433  0.00  0.00    +0.123 HD
BRANCH   4  17
ATOM     17  C   UNL     1      -2.871  -1.887  24.670  0.00  0.00    +0.048 C 
ATOM     18  C   UNL     1      -3.728  -1.257  23.578  0.00  0.00    +0.023 C 
ATOM     19  C   UNL     1      -3.420  -3.250  25.081  0.00  0.00    +0.023 C 
ENDBRANCH   4  17
ENDBRANCH   6   4
BRANCH   8  15
ATOM     15  C   UNL     1      -0.250   2.681  24.334  0.00  0.00    +0.138 C 
BRANCH  15   5
ATOM      3  O   UNL     1      -1.990   4.485  25.800  0.00  0.00    -0.276 OA
ATOM      5  N   UNL     1      -1.652   2.902  24.124  0.00  0.00    -0.313 N 
ATOM     16  C   UNL     1      -2.410   3.790  24.878  0.00  0.00    +0.216 C 
ATOM     21  H   UNL     1      -2.102   2.377  23.380  0.00  0.00    +0.149 HD
BRANCH  16   9
ATOM      9  C   UNL     1      -3.841   3.847  24.434  0.00  0.00    +0.075 C 
ATOM     10  C   UNL     1      -4.232   2.558  23.710  0.00  0.00    +0.013 C 
ATOM     11  C   UNL     1      -4.771   3.957  25.647  0.00  0.00    +0.013 C 
ATOM     13  C   UNL     1      -4.966   1.736  24.759  0.00  0.00    +0.001 C 
ATOM     14  C   UNL     1      -5.740   2.785  25.536  0.00  0.00    +0.001 C 
ENDBRANCH  16   9
ENDBRANCH  15   5
ENDBRANCH   8  15
TORSDOF 6
ENDMDL
MODEL 3
REMARK VINA RESULT:      -6.8      1.827      3.797
REMARK  Name = 75536553
REMARK  8 active torsions:
REMARK  status: ('A' for Active; 'I' for Inactive)
REMARK    1  A    between atoms: O_2  and  C_7
REMARK    2  A    between atoms: N_4  and  C_6
REMARK    3  A    between atoms: N_4  and  C_17
REMARK    4  A    between atoms: N_5  and  C_15
REMARK    5  A    between atoms: C_8  and  C_15
REMARK    6  A    between atoms: C_9  and  C_16
REMARK    7  A    between atoms: C_17  and  C_18
REMARK    8  A    between atoms: C_17  and  C_19
REMARK                            x       y       z     vdW  Elec       q    Type
REMARK                         _______ _______ _______ _____ _____    ______ ____
ROOT
ATOM      1  O   UNL     1      -1.193   1.879  23.212  0.00  0.00    -0.371 OA
ATOM      6  C   UNL     1      -2.964   3.403  23.638  0.00  0.00    +0.111 C 
ATOM      7  C   UNL     1      -2.238   3.113  24.939  0.00  0.00    +0.164 C 
ATOM      8  C   UNL     1      -0.901   2.602  24.420  0.00  0.00    +0.165 C 
ATOM     12  C   UNL     1      -2.517   2.235  22.776  0.00  0.00    +0.181 C 
ENDROOT
BRANCH   7   2
ATOM      2  O   UNL     1      -2.085   4.262  25.748  0.00  0.00    -0.388 OA
ATOM     22  H   UNL     1      -2.611   4.981  25.360  0.00  0.00    +0.210 HD
ENDBRANCH   7   2
BRANCH   6   4
ATOM      4  N   UNL     1      -4.408   3.481  23.781  0.00  0.00    -0.307 NA
ATOM     20  H   UNL     1      -4.865   2.976  23.023  0.00  0.00    +0.123 HD
BRANCH   4  17
ATOM     17  C   UNL     1      -4.839   2.943  25.067  0.00  0.00    +0.048 C 
ATOM     18  C   UNL     1      -5.692   3.979  25.791  0.00  0.00    +0.023 C 
ATOM     19  C   UNL     1      -5.611   1.642  24.862  0.00  0.00    +0.023 C 
ENDBRANCH   4  17
ENDBRANCH   6   4
BRANCH   8  15
ATOM     15  C   UNL     1      -0.185   1.692  25.402  0.00  0.00    +0.138 C 
BRANCH  15   5
ATOM      3  O   UNL     1      -0.027  -0.886  24.075  0.00  0.00    -0.276 OA
ATOM      5  N   UNL     1      -0.960   0.517  25.684  0.00  0.00    -0.313 N 
ATOM     16  C   UNL     1      -0.816  -0.681  24.993  0.00  0.00    +0.216 C 
ATOM     21  H   UNL     1      -1.645   0.577  26.433  0.00  0.00    +0.149 HD
BRANCH  16   9
ATOM      9  C   UNL     1      -1.730  -1.754  25.505  0.00  0.00    +0.075 C 
ATOM     10  C   UNL     1      -3.087  -1.165  25.893  0.00  0.00    +0.013 C 
ATOM     11  C   UNL     1      -2.007  -2.785  24.406  0.00  0.00    +0.013 C 
ATOM     13  C   UNL     1      -3.989  -1.466  24.704  0.00  0.00    +0.001 C 
ATOM     14  C   UNL     1      -3.523  -2.840  24.259  0.00  0.00    +0.001 C 
ENDBRANCH  16   9
ENDBRANCH  15   5
ENDBRANCH   8  15
TORSDOF 6
ENDMDL
MODEL 4
REMARK VINA RESULT:      -6.2      1.880      4.754
REMARK  Name = 75536553
REMARK  8 active torsions:
REMARK  status: ('A' for Active; 'I' for Inactive)
REMARK    1  A    between atoms: O_2  and  C_7
REMARK    2  A    between atoms: N_4  and  C_6
REMARK    3  A    between atoms: N_4  and  C_17
REMARK    4  A    between atoms: N_5  and  C_15
REMARK    5  A    between atoms: C_8  and  C_15
REMARK    6  A    between atoms: C_9  and  C_16
REMARK    7  A    between atoms: C_17  and  C_18
REMARK    8  A    between atoms: C_17  and  C_19
REMARK                            x       y       z     vdW  Elec       q    Type
REMARK                         _______ _______ _______ _____ _____    ______ ____
ROOT
ATOM      1  O   UNL     1      -2.887  -2.470  24.298  0.00  0.00    -0.371 OA
ATOM      6  C   UNL     1      -0.890  -1.443  25.070  0.00  0.00    +0.111 C 
ATOM      7  C   UNL     1      -1.995  -0.404  25.024  0.00  0.00    +0.164 C 
ATOM      8  C   UNL     1      -3.232  -1.291  25.044  0.00  0.00    +0.165 C 
ATOM     12  C   UNL     1      -1.456  -2.524  24.165  0.00  0.00    +0.181 C 
ENDROOT
BRANCH   7   2
ATOM      2  O   UNL     1      -1.961   0.478  26.129  0.00  0.00    -0.388 OA
ATOM     22  H   UNL     1      -1.056   0.820  26.220  0.00  0.00    +0.210 HD
ENDBRANCH   7   2
BRANCH   6   4
ATOM      4  N   UNL     1       0.399  -0.944  24.618  0.00  0.00    -0.307 NA
ATOM     20  H   UNL     1       0.978  -1.715  24.287  0.00  0.00    +0.123 HD
BRANCH   4  17
ATOM     17  C   UNL     1       0.237   0.046  23.560  0.00  0.00    +0.048 C 
ATOM     18  C   UNL     1       0.506   1.438  24.122  0.00  0.00    +0.023 C 
ATOM     19  C   UNL     1       1.174  -0.266  22.396  0.00  0.00    +0.023 C 
ENDBRANCH   4  17
ENDBRANCH   6   4
BRANCH   8  15
ATOM     15  C   UNL     1      -4.453  -0.631  24.427  0.00  0.00    +0.138 C 
BRANCH  15   5
ATOM      3  O   UNL     1      -5.891   1.519  25.745  0.00  0.00    -0.276 OA
ATOM      5  N   UNL     1      -4.254   0.780  24.261  0.00  0.00    -0.313 N 
ATOM     16  C   UNL     1      -4.994   1.744  24.937  0.00  0.00    +0.216 C 
ATOM     21  H   UNL     1      -3.530   1.078  23.613  0.00  0.00    +0.149 HD
BRANCH  16   9
ATOM      9  C   UNL     1      -4.566   3.140  24.599  0.00  0.00    +0.075 C 
ATOM     10  C   UNL     1      -4.475   3.997  25.863  0.00  0.00    +0.013 C 
ATOM     11  C   UNL     1      -3.162   3.132  23.983  0.00  0.00    +0.013 C 
ATOM     13  C   UNL     1      -2.993   4.011  26.210  0.00  0.00    +0.001 C 
ATOM     14  C   UNL     1      -2.323   4.065  24.849  0.00  0.00    +0.001 C 
ENDBRANCH  16   9
ENDBRANCH  15   5
ENDBRANCH   8  15
TORSDOF 6
ENDMDL
MODEL 5
REMARK VINA RESULT:      -6.1      2.124      3.822
REMARK  Name = 75536553
REMARK  8 active torsions:
REMARK  status: ('A' for Active; 'I' for Inactive)
REMARK    1  A    between atoms: O_2  and  C_7
REMARK    2  A    between atoms: N_4  and  C_6
REMARK    3  A    between atoms: N_4  and  C_17
REMARK    4  A    between atoms: N_5  and  C_15
REMARK    5  A    between atoms: C_8  and  C_15
REMARK    6  A    between atoms: C_9  and  C_16
REMARK    7  A    between atoms: C_17  and  C_18
REMARK    8  A    between atoms: C_17  and  C_19
REMARK                            x       y       z     vdW  Elec       q    Type
REMARK                         _______ _______ _______ _____ _____    ______ ____
ROOT
ATOM      1  O   UNL     1      -0.857   1.126  22.866  0.00  0.00    -0.371 OA
ATOM      6  C   UNL     1      -0.763   3.075  24.221  0.00  0.00    +0.111 C 
ATOM      7  C   UNL     1      -0.249   1.892  25.020  0.00  0.00    +0.164 C 
ATOM      8  C   UNL     1       0.116   0.922  23.905  0.00  0.00    +0.165 C 
ATOM     12  C   UNL     1      -1.525   2.377  23.106  0.00  0.00    +0.181 C 
ENDROOT
BRANCH   7   2
ATOM      2  O   UNL     1       0.869   2.219  25.821  0.00  0.00    -0.388 OA
ATOM     22  H   UNL     1       0.991   1.515  26.479  0.00  0.00    +0.210 HD
ENDBRANCH   7   2
BRANCH   6   4
ATOM      4  N   UNL     1      -1.596   3.983  24.992  0.00  0.00    -0.307 NA
ATOM     20  H   UNL     1      -1.738   4.852  24.479  0.00  0.00    +0.123 HD
BRANCH   4  17
ATOM     17  C   UNL     1      -2.884   3.376  25.307  0.00  0.00    +0.048 C 
ATOM     18  C   UNL     1      -3.352   3.860  26.676  0.00  0.00    +0.023 C 
ATOM     19  C   UNL     1      -3.906   3.716  24.226  0.00  0.00    +0.023 C 
ENDBRANCH   4  17
ENDBRANCH   6   4
BRANCH   8  15
ATOM     15  C   UNL     1       0.098  -0.531  24.346  0.00  0.00    +0.138 C 
BRANCH  15   5
ATOM      3  O   UNL     1      -1.280  -0.780  26.891  0.00  0.00    -0.276 OA
ATOM      5  N   UNL     1      -1.243  -0.991  24.570  0.00  0.00    -0.313 N 
ATOM     16  C   UNL     1      -1.824  -1.079  25.831  0.00  0.00    +0.216 C 
ATOM     21  H   UNL     1      -1.787  -1.263  23.756  0.00  0.00    +0.149 HD
BRANCH  16   9
ATOM      9  C   UNL     1      -3.241  -1.565  25.779  0.00  0.00    +0.075 C 
ATOM     10  C   UNL     1      -4.182  -0.438  25.347  0.00  0.00    +0.013 C 
ATOM     11  C   UNL     1      -3.386  -2.672  24.729  0.00  0.00    +0.013 C 
ATOM     13  C   UNL     1      -4.421  -0.687  23.864  0.00  0.00    +0.001 C 
ATOM     14  C   UNL     1      -4.478  -2.201  23.775  0.00  0.00    +0.001 C 
ENDBRANCH  16   9
ENDBRANCH  15   5
ENDBRANCH   8  15
TORSDOF 6
ENDMDL
MODEL 6
REMARK VINA RESULT:      -5.5      1.599      2.429
REMARK  Name = 75536553
REMARK  8 active torsions:
REMARK  status: ('A' for Active; 'I' for Inactive)
REMARK    1  A    between atoms: O_2  and  C_7
REMARK    2  A    between atoms: N_4  and  C_6
REMARK    3  A    between atoms: N_4  and  C_17
REMARK    4  A    between atoms: N_5  and  C_15
REMARK    5  A    between atoms: C_8  and  C_15
REMARK    6  A    between atoms: C_9  and  C_16
REMARK    7  A    between atoms: C_17  and  C_18
REMARK    8  A    between atoms: C_17  and  C_19
REMARK                            x       y       z     vdW  Elec       q    Type
REMARK                         _______ _______ _______ _____ _____    ______ ____
ROOT
ATOM      1  O   UNL     1      -1.743   3.018  26.290  0.00  0.00    -0.371 OA
ATOM      6  C   UNL     1       0.175   2.510  24.984  0.00  0.00    +0.111 C 
ATOM      7  C   UNL     1      -1.015   2.695  24.062  0.00  0.00    +0.164 C 
ATOM      8  C   UNL     1      -1.953   3.501  24.951  0.00  0.00    +0.165 C 
ATOM     12  C   UNL     1      -0.512   2.275  26.319  0.00  0.00    +0.181 C 
ENDROOT
BRANCH   7   2
ATOM      2  O   UNL     1      -0.685   3.393  22.877  0.00  0.00    -0.388 OA
ATOM     22  H   UNL     1      -1.503   3.554  22.379  0.00  0.00    +0.210 HD
ENDBRANCH   7   2
BRANCH   6   4
ATOM      4  N   UNL     1       1.049   1.415  24.597  0.00  0.00    -0.307 NA
ATOM     20  H   UNL     1       1.383   0.922  25.424  0.00  0.00    +0.123 HD
BRANCH   4  17
ATOM     17  C   UNL     1       0.362   0.485  23.707  0.00  0.00    +0.048 C 
ATOM     18  C   UNL     1       1.313   0.048  22.598  0.00  0.00    +0.023 C 
ATOM     19  C   UNL     1      -0.153  -0.716  24.494  0.00  0.00    +0.023 C 
ENDBRANCH   4  17
ENDBRANCH   6   4
BRANCH   8  15
ATOM     15  C   UNL     1      -3.416   3.349  24.574  0.00  0.00    +0.138 C 
BRANCH  15   5
ATOM      3  O   UNL     1      -3.286   0.855  23.092  0.00  0.00    -0.276 OA
ATOM      5  N   UNL     1      -3.926   2.069  24.975  0.00  0.00    -0.313 N 
ATOM     16  C   UNL     1      -3.819   0.922  24.196  0.00  0.00    +0.216 C 
ATOM     21  H   UNL     1      -4.387   2.011  25.878  0.00  0.00    +0.149 HD
BRANCH  16   9
ATOM      9  C   UNL     1      -4.413  -0.283  24.861  0.00  0.00    +0.075 C 
ATOM     10  C   UNL     1      -4.527  -1.444  23.871  0.00  0.00    +0.013 C 
ATOM     11  C   UNL     1      -3.501  -0.771  25.992  0.00  0.00    +0.013 C 
ATOM     13  C   UNL     1      -3.319  -2.321  24.168  0.00  0.00    +0.001 C 
ATOM     14  C   UNL     1      -3.194  -2.231  25.678  0.00  0.00    +0.001 C 
ENDBRANCH  16   9
ENDBRANCH  15   5
ENDBRANCH   8  15
TORSDOF 6
ENDMDL
MODEL 7
REMARK VINA RESULT:      -4.8      1.520      2.098
REMARK  Name = 75536553
REMARK  8 active torsions:
REMARK  status: ('A' for Active; 'I' for Inactive)
REMARK    1  A    between atoms: O_2  and  C_7
REMARK    2  A    between atoms: N_4  and  C_6
REMARK    3  A    between atoms: N_4  and  C_17
REMARK    4  A    between atoms: N_5  and  C_15
REMARK    5  A    between atoms: C_8  and  C_15
REMARK    6  A    between atoms: C_9  and  C_16
REMARK    7  A    between atoms: C_17  and  C_18
REMARK    8  A    between atoms: C_17  and  C_19
REMARK                            x       y       z     vdW  Elec       q    Type
REMARK                         _______ _______ _______ _____ _____    ______ ____
ROOT
ATOM      1  O   UNL     1      -5.780   2.068  25.708  0.00  0.00    -0.371 OA
ATOM      6  C   UNL     1      -4.316   3.773  24.937  0.00  0.00    +0.111 C 
ATOM      7  C   UNL     1      -3.842   2.434  24.402  0.00  0.00    +0.164 C 
ATOM      8  C   UNL     1      -5.113   1.604  24.522  0.00  0.00    +0.165 C 
ATOM     12  C   UNL     1      -5.215   3.337  26.082  0.00  0.00    +0.181 C 
ENDROOT
BRANCH   7   2
ATOM      2  O   UNL     1      -3.387   2.510  23.065  0.00  0.00    -0.388 OA
ATOM     22  H   UNL     1      -4.151   2.688  22.492  0.00  0.00    +0.210 HD
ENDBRANCH   7   2
BRANCH   6   4
ATOM      4  N   UNL     1      -3.235   4.645  25.366  0.00  0.00    -0.307 NA
ATOM     20  H   UNL     1      -3.330   4.861  26.358  0.00  0.00    +0.123 HD
BRANCH   4  17
ATOM     17  C   UNL     1      -1.935   4.034  25.113  0.00  0.00    +0.048 C 
ATOM     18  C   UNL     1      -0.929   5.118  24.740  0.00  0.00    +0.023 C 
ATOM     19  C   UNL     1      -1.471   3.253  26.340  0.00  0.00    +0.023 C 
ENDBRANCH   4  17
ENDBRANCH   6   4
BRANCH   8  15
ATOM     15  C   UNL     1      -4.846   0.113  24.634  0.00  0.00    +0.138 C 
BRANCH  15   5
ATOM      3  O   UNL     1      -3.634  -2.440  25.304  0.00  0.00    -0.276 OA
ATOM      5  N   UNL     1      -3.462  -0.150  24.906  0.00  0.00    -0.313 N 
ATOM     16  C   UNL     1      -2.967  -1.411  25.220  0.00  0.00    +0.216 C 
ATOM     21  H   UNL     1      -2.819   0.635  24.860  0.00  0.00    +0.149 HD
BRANCH  16   9
ATOM      9  C   UNL     1      -1.483  -1.411  25.432  0.00  0.00    +0.075 C 
ATOM     10  C   UNL     1      -0.761  -1.913  24.180  0.00  0.00    +0.013 C 
ATOM     11  C   UNL     1      -0.981   0.016  25.674  0.00  0.00    +0.013 C 
ATOM     13  C   UNL     1      -0.298  -0.648  23.471  0.00  0.00    +0.001 C 
ATOM     14  C   UNL     1       0.092   0.265  24.620  0.00  0.00    +0.001 C 
ENDBRANCH  16   9
ENDBRANCH  15   5
ENDBRANCH   8  15
TORSDOF 6
ENDMDL
MODEL 8
REMARK VINA RESULT:      -4.8      1.312      4.649
REMARK  Name = 75536553
REMARK  8 active torsions:
REMARK  status: ('A' for Active; 'I' for Inactive)
REMARK    1  A    between atoms: O_2  and  C_7
REMARK    2  A    between atoms: N_4  and  C_6
REMARK    3  A    between atoms: N_4  and  C_17
REMARK    4  A    between atoms: N_5  and  C_15
REMARK    5  A    between atoms: C_8  and  C_15
REMARK    6  A    between atoms: C_9  and  C_16
REMARK    7  A    between atoms: C_17  and  C_18
REMARK    8  A    between atoms: C_17  and  C_19
REMARK                            x       y       z     vdW  Elec       q    Type
REMARK                         _______ _______ _______ _____ _____    ______ ____
ROOT
ATOM      1  O   UNL     1      -3.942   1.956  23.157  0.00  0.00    -0.371 OA
ATOM      6  C   UNL     1      -4.733   0.309  24.675  0.00  0.00    +0.111 C 
ATOM      7  C   UNL     1      -4.828   1.674  25.332  0.00  0.00    +0.164 C 
ATOM      8  C   UNL     1      -4.810   2.588  24.114  0.00  0.00    +0.165 C 
ATOM     12  C   UNL     1      -3.751   0.586  23.549  0.00  0.00    +0.181 C 
ENDROOT
BRANCH   7   2
ATOM      2  O   UNL     1      -6.011   1.833  26.092  0.00  0.00    -0.388 OA
ATOM     22  H   UNL     1      -6.669   2.288  25.541  0.00  0.00    +0.210 HD
ENDBRANCH   7   2
BRANCH   6   4
ATOM      4  N   UNL     1      -4.284  -0.741  25.574  0.00  0.00    -0.307 NA
ATOM     20  H   UNL     1      -5.016  -1.439  25.693  0.00  0.00    +0.123 HD
BRANCH   4  17
ATOM     17  C   UNL     1      -3.069  -1.376  25.074  0.00  0.00    +0.048 C 
ATOM     18  C   UNL     1      -1.924  -1.118  26.048  0.00  0.00    +0.023 C 
ATOM     19  C   UNL     1      -3.297  -2.872  24.879  0.00  0.00    +0.023 C 
ENDBRANCH   4  17
ENDBRANCH   6   4
BRANCH   8  15
ATOM     15  C   UNL     1      -4.303   3.986  24.422  0.00  0.00    +0.138 C 
BRANCH  15   5
ATOM      3  O   UNL     1      -2.765   3.955  26.885  0.00  0.00    -0.276 OA
ATOM      5  N   UNL     1      -2.875   4.005  24.558  0.00  0.00    -0.313 N 
ATOM     16  C   UNL     1      -2.220   3.988  25.784  0.00  0.00    +0.216 C 
ATOM     21  H   UNL     1      -2.324   4.030  23.704  0.00  0.00    +0.149 HD
BRANCH  16   9
ATOM      9  C   UNL     1      -0.728   3.988  25.640  0.00  0.00    +0.075 C 
ATOM     10  C   UNL     1      -0.121   2.763  26.325  0.00  0.00    +0.013 C 
ATOM     11  C   UNL     1      -0.336   3.892  24.162  0.00  0.00    +0.013 C 
ATOM     13  C   UNL     1       0.130   1.776  25.193  0.00  0.00    +0.001 C 
ATOM     14  C   UNL     1       0.570   2.672  24.050  0.00  0.00    +0.001 C 
ENDBRANCH  16   9
ENDBRANCH  15   5
ENDBRANCH   8  15
TORSDOF 6
ENDMDL
MODEL 9
REMARK VINA RESULT:      -4.6      2.223      4.654
REMARK  Name = 75536553
REMARK  8 active torsions:
REMARK  status: ('A' for Active; 'I' for Inactive)
REMARK    1  A    between atoms: O_2  and  C_7
REMARK    2  A    between atoms: N_4  and  C_6
REMARK    3  A    between atoms: N_4  and  C_17
REMARK    4  A    between atoms: N_5  and  C_15
REMARK    5  A    between atoms: C_8  and  C_15
REMARK    6  A    between atoms: C_9  and  C_16
REMARK    7  A    between atoms: C_17  and  C_18
REMARK    8  A    between atoms: C_17  and  C_19
REMARK                            x       y       z     vdW  Elec       q    Type
REMARK                         _______ _______ _______ _____ _____    ______ ____
ROOT
ATOM      1  O   UNL     1      -1.569  -2.197  24.711  0.00  0.00    -0.371 OA
ATOM      6  C   UNL     1       0.097  -0.529  24.422  0.00  0.00    +0.111 C 
ATOM      7  C   UNL     1      -1.048   0.050  25.232  0.00  0.00    +0.164 C 
ATOM      8  C   UNL     1      -1.708  -1.218  25.755  0.00  0.00    +0.165 C 
ATOM     12  C   UNL     1      -0.566  -1.740  23.787  0.00  0.00    +0.181 C 
ENDROOT
BRANCH   7   2
ATOM      2  O   UNL     1      -0.605   0.886  26.284  0.00  0.00    -0.388 OA
ATOM     22  H   UNL     1      -1.071   0.628  27.096  0.00  0.00    +0.210 HD
ENDBRANCH   7   2
BRANCH   6   4
ATOM      4  N   UNL     1       0.645   0.395  23.443  0.00  0.00    -0.307 NA
ATOM     20  H   UNL     1       0.880   1.281  23.888  0.00  0.00    +0.123 HD
BRANCH   4  17
ATOM     17  C   UNL     1       1.827  -0.164  22.796  0.00  0.00    +0.048 C 
ATOM     18  C   UNL     1       1.514  -0.458  21.333  0.00  0.00    +0.023 C 
ATOM     19  C   UNL     1       3.004   0.799  22.924  0.00  0.00    +0.023 C 
ENDBRANCH   4  17
ENDBRANCH   6   4
BRANCH   8  15
ATOM     15  C   UNL     1      -3.177  -1.034  26.092  0.00  0.00    +0.138 C 
BRANCH  15   5
ATOM      3  O   UNL     1      -4.059  -0.423  23.393  0.00  0.00    -0.276 OA
ATOM      5  N   UNL     1      -3.672   0.220  25.599  0.00  0.00    -0.313 N 
ATOM     16  C   UNL     1      -4.074   0.423  24.283  0.00  0.00    +0.216 C 
ATOM     21  H   UNL     1      -3.729   0.992  26.257  0.00  0.00    +0.149 HD
BRANCH  16   9
ATOM      9  C   UNL     1      -4.571   1.816  24.041  0.00  0.00    +0.075 C 
ATOM     10  C   UNL     1      -5.874   2.063  24.805  0.00  0.00    +0.013 C 
ATOM     11  C   UNL     1      -3.562   2.841  24.572  0.00  0.00    +0.013 C 
ATOM     13  C   UNL     1      -5.447   2.818  26.056  0.00  0.00    +0.001 C 
ATOM     14  C   UNL     1      -4.334   3.717  25.551  0.00  0.00    +0.001 C 
ENDBRANCH  16   9
ENDBRANCH  15   5
ENDBRANCH   8  15
TORSDOF 6
ENDMDL
MODEL 10
REMARK VINA RESULT:      -4.6      1.910      5.397
REMARK  Name = 75536553
REMARK  8 active torsions:
REMARK  status: ('A' for Active; 'I' for Inactive)
REMARK    1  A    between atoms: O_2  and  C_7
REMARK    2  A    between atoms: N_4  and  C_6
REMARK    3  A    between atoms: N_4  and  C_17
REMARK    4  A    between atoms: N_5  and  C_15
REMARK    5  A    between atoms: C_8  and  C_15
REMARK    6  A    between atoms: C_9  and  C_16
REMARK    7  A    between atoms: C_17  and  C_18
REMARK    8  A    between atoms: C_17  and  C_19
REMARK                            x       y       z     vdW  Elec       q    Type
REMARK                         _______ _______ _______ _____ _____    ______ ____
ROOT
ATOM      1  O   UNL     1       0.501  -0.386  24.282  0.00  0.00    -0.371 OA
ATOM      6  C   UNL     1      -1.738  -0.818  23.618  0.00  0.00    +0.111 C 
ATOM      7  C   UNL     1      -1.505   0.682  23.624  0.00  0.00    +0.164 C 
ATOM      8  C   UNL     1       0.014   0.742  23.534  0.00  0.00    +0.165 C 
ATOM     12  C   UNL     1      -0.587  -1.305  24.482  0.00  0.00    +0.181 C 
ENDROOT
BRANCH   7   2
ATOM      2  O   UNL     1      -2.123   1.335  22.532  0.00  0.00    -0.388 OA
ATOM     22  H   UNL     1      -2.923   0.839  22.293  0.00  0.00    +0.210 HD
ENDBRANCH   7   2
BRANCH   6   4
ATOM      4  N   UNL     1      -3.039  -1.207  24.137  0.00  0.00    -0.307 NA
ATOM     20  H   UNL     1      -3.057  -2.209  24.325  0.00  0.00    +0.123 HD
BRANCH   4  17
ATOM     17  C   UNL     1      -3.364  -0.468  25.351  0.00  0.00    +0.048 C 
ATOM     18  C   UNL     1      -4.688   0.264  25.161  0.00  0.00    +0.023 C 
ATOM     19  C   UNL     1      -3.427  -1.416  26.546  0.00  0.00    +0.023 C 
ENDBRANCH   4  17
ENDBRANCH   6   4
BRANCH   8  15
ATOM     15  C   UNL     1       0.598   2.024  24.101  0.00  0.00    +0.138 C 
BRANCH  15   5
ATOM      3  O   UNL     1      -0.555   2.640  26.695  0.00  0.00    -0.276 OA
ATOM      5  N   UNL     1      -0.431   2.981  24.393  0.00  0.00    -0.313 N 
ATOM     16  C   UNL     1      -0.925   3.211  25.672  0.00  0.00    +0.216 C 
ATOM     21  H   UNL     1      -0.809   3.513  23.614  0.00  0.00    +0.149 HD
BRANCH  16   9
ATOM      9  C   UNL     1      -1.976   4.279  25.700  0.00  0.00    +0.075 C 
ATOM     10  C   UNL     1      -2.558   4.499  24.302  0.00  0.00    +0.013 C 
ATOM     11  C   UNL     1      -3.148   3.849  26.590  0.00  0.00    +0.013 C 
ATOM     13  C   UNL     1      -3.864   3.716  24.303  0.00  0.00    +0.001 C 
ATOM     14  C   UNL     1      -4.391   3.930  25.710  0.00  0.00    +0.001 C 
ENDBRANCH  16   9
ENDBRANCH  15   5
ENDBRANCH   8  15
TORSDOF 6
ENDMDL
