MODEL 1
REMARK VINA RESULT:       4.0      0.000      0.000
REMARK  Name = 11884147
REMARK  9 active torsions:
REMARK  status: ('A' for Active; 'I' for Inactive)
REMARK    1  A    between atoms: O_3  and  C_13
REMARK    2  A    between atoms: O_3  and  C_17
REMARK    3  A    between atoms: O_6  and  C_24
REMARK    4  A    between atoms: O_6  and  C_31
REMARK    5  A    between atoms: N_8  and  C_12
REMARK    6  A    between atoms: N_9  and  C_21
REMARK    7  A    between atoms: C_16  and  C_18
REMARK    8  A    between atoms: C_29  and  C_30
REMARK    9  A    between atoms: C_30  and  C_32
REMARK                            x       y       z     vdW  Elec       q    Type
REMARK                         _______ _______ _______ _____ _____    ______ ____
ROOT
ATOM      1  O   UNL     1      -3.557   3.315  24.233  0.00  0.00    -0.368 OA
ATOM      2  O   UNL     1      -2.739   5.506  26.217  0.00  0.00    -0.368 OA
ATOM     10  C   UNL     1      -2.099   4.269  25.842  0.00  0.00    +0.173 C 
ATOM     11  C   UNL     1      -3.200   3.251  25.624  0.00  0.00    +0.192 C 
ATOM     12  C   UNL     1      -1.460   4.407  24.479  0.00  0.00    +0.130 C 
ATOM     13  C   UNL     1      -4.307   3.775  26.508  0.00  0.00    +0.235 C 
ATOM     14  C   UNL     1      -2.636   4.177  23.547  0.00  0.00    +0.185 C 
ATOM     15  C   UNL     1      -4.147   5.272  26.368  0.00  0.00    +0.207 C 
ENDROOT
BRANCH  12   8
ATOM      4  O   UNL     1      -1.725   1.916  23.076  0.00  0.00    -0.270 OA
ATOM      8  N   UNL     1      -0.431   3.416  24.281  0.00  0.00    -0.304 N 
ATOM     16  C   UNL     1      -0.655   2.236  23.585  0.00  0.00    +0.244 C 
ATOM     33  H   UNL     1       0.449   3.561  24.766  0.00  0.00    +0.149 HD
BRANCH  16  18
ATOM     18  C   UNL     1       0.501   1.306  23.492  0.00  0.00    +0.037 A 
ATOM     19  C   UNL     1       1.782   1.809  23.267  0.00  0.00    +0.016 A 
ATOM     20  C   UNL     1       0.304  -0.067  23.628  0.00  0.00    +0.016 A 
ATOM     22  C   UNL     1       2.867   0.936  23.179  0.00  0.00    +0.046 A 
ATOM     23  C   UNL     1       1.388  -0.940  23.540  0.00  0.00    +0.046 A 
ATOM     24  C   UNL     1       2.670  -0.438  23.316  0.00  0.00    +0.120 A 
BRANCH  24   6
ATOM      6  O   UNL     1       3.730  -1.289  23.231  0.00  0.00    -0.495 OA
ATOM     31  C   UNL     1       4.931  -0.896  23.894  0.00  0.00    +0.277 C 
ENDBRANCH  24   6
ENDBRANCH  16  18
ENDBRANCH  12   8
BRANCH  13   3
ATOM      3  O   UNL     1      -5.591   3.339  26.121  0.00  0.00    -0.442 OA
BRANCH   3  17
ATOM      5  O   UNL     1      -6.664   1.755  24.869  0.00  0.00    -0.226 OA
ATOM      9  N   UNL     1      -4.496   1.416  25.687  0.00  0.00    -0.251 N 
ATOM     17  C   UNL     1      -5.672   2.114  25.493  0.00  0.00    +0.405 C 
ATOM     34  H   UNL     1      -3.781   1.885  26.237  0.00  0.00    +0.158 HD
BRANCH   9  21
ATOM     21  C   UNL     1      -4.162   0.126  25.215  0.00  0.00    +0.036 A 
ATOM     25  C   UNL     1      -4.384  -0.205  23.878  0.00  0.00    +0.024 A 
ATOM     26  C   UNL     1      -3.610  -0.814  26.085  0.00  0.00    +0.024 A 
ATOM     27  C   UNL     1      -4.054  -1.478  23.412  0.00  0.00    +0.013 A 
ATOM     28  C   UNL     1      -3.282  -2.087  25.618  0.00  0.00    +0.013 A 
ATOM     29  C   UNL     1      -3.503  -2.419  24.281  0.00  0.00    +0.017 A 
BRANCH  29  30
ATOM      7  O   UNL     1      -3.979  -4.685  23.832  0.00  0.00    -0.292 OA
ATOM     30  C   UNL     1      -3.160  -3.745  23.795  0.00  0.00    +0.160 C 
ATOM     32  C   UNL     1      -1.774  -4.019  23.223  0.00  0.00    +0.091 C 
ENDBRANCH  29  30
ENDBRANCH   9  21
ENDBRANCH   3  17
ENDBRANCH  13   3
TORSDOF 7
ENDMDL
MODEL 2
REMARK VINA RESULT:       5.6      2.043      5.631
REMARK  Name = 11884147
REMARK  9 active torsions:
REMARK  status: ('A' for Active; 'I' for Inactive)
REMARK    1  A    between atoms: O_3  and  C_13
REMARK    2  A    between atoms: O_3  and  C_17
REMARK    3  A    between atoms: O_6  and  C_24
REMARK    4  A    between atoms: O_6  and  C_31
REMARK    5  A    between atoms: N_8  and  C_12
REMARK    6  A    between atoms: N_9  and  C_21
REMARK    7  A    between atoms: C_16  and  C_18
REMARK    8  A    between atoms: C_29  and  C_30
REMARK    9  A    between atoms: C_30  and  C_32
REMARK                            x       y       z     vdW  Elec       q    Type
REMARK                         _______ _______ _______ _____ _____    ______ ____
ROOT
ATOM      1  O   UNL     1      -2.781  -0.733  25.440  0.00  0.00    -0.368 OA
ATOM      2  O   UNL     1      -3.040  -3.677  24.621  0.00  0.00    -0.368 OA
ATOM     10  C   UNL     1      -2.044  -2.682  24.306  0.00  0.00    +0.173 C 
ATOM     11  C   UNL     1      -2.775  -1.364  24.148  0.00  0.00    +0.192 C 
ATOM     12  C   UNL     1      -1.142  -2.455  25.497  0.00  0.00    +0.130 C 
ATOM     13  C   UNL     1      -4.159  -1.806  23.736  0.00  0.00    +0.235 C 
ATOM     14  C   UNL     1      -1.959  -1.491  26.341  0.00  0.00    +0.185 C 
ATOM     15  C   UNL     1      -4.340  -3.076  24.536  0.00  0.00    +0.207 C 
ENDROOT
BRANCH  12   8
ATOM      4  O   UNL     1      -0.652  -0.886  23.143  0.00  0.00    -0.270 OA
ATOM      8  N   UNL     1       0.114  -1.869  25.098  0.00  0.00    -0.304 N 
ATOM     16  C   UNL     1       0.254  -1.123  23.937  0.00  0.00    +0.244 C 
ATOM     33  H   UNL     1       0.932  -2.112  25.649  0.00  0.00    +0.149 HD
BRANCH  16  18
ATOM     18  C   UNL     1       1.619  -0.609  23.653  0.00  0.00    +0.037 A 
ATOM     19  C   UNL     1       1.789   0.688  23.169  0.00  0.00    +0.016 A 
ATOM     20  C   UNL     1       2.730  -1.424  23.871  0.00  0.00    +0.016 A 
ATOM     22  C   UNL     1       3.071   1.170  22.903  0.00  0.00    +0.046 A 
ATOM     23  C   UNL     1       4.012  -0.942  23.605  0.00  0.00    +0.046 A 
ATOM     24  C   UNL     1       4.182   0.355  23.121  0.00  0.00    +0.120 A 
BRANCH  24   6
ATOM      6  O   UNL     1       5.433   0.827  22.863  0.00  0.00    -0.495 OA
ATOM     31  C   UNL     1       6.531   0.009  23.267  0.00  0.00    +0.277 C 
ENDBRANCH  24   6
ENDBRANCH  16  18
ENDBRANCH  12   8
BRANCH  13   3
ATOM      3  O   UNL     1      -5.160  -0.854  24.016  0.00  0.00    -0.442 OA
BRANCH   3  17
ATOM      5  O   UNL     1      -5.226   0.731  25.663  0.00  0.00    -0.226 OA
ATOM      9  N   UNL     1      -3.779   0.919  23.832  0.00  0.00    -0.251 N 
ATOM     17  C   UNL     1      -4.755   0.324  24.607  0.00  0.00    +0.405 C 
ATOM     34  H   UNL     1      -3.516   0.425  22.983  0.00  0.00    +0.158 HD
BRANCH   9  21
ATOM     21  C   UNL     1      -3.096   2.133  24.073  0.00  0.00    +0.036 A 
ATOM     25  C   UNL     1      -3.810   3.274  24.440  0.00  0.00    +0.024 A 
ATOM     26  C   UNL     1      -1.708   2.190  23.945  0.00  0.00    +0.024 A 
ATOM     27  C   UNL     1      -3.136   4.471  24.678  0.00  0.00    +0.013 A 
ATOM     28  C   UNL     1      -1.035   3.388  24.181  0.00  0.00    +0.013 A 
ATOM     29  C   UNL     1      -1.748   4.529  24.549  0.00  0.00    +0.017 A 
BRANCH  29  30
ATOM      7  O   UNL     1       0.198   5.820  24.879  0.00  0.00    -0.292 OA
ATOM     30  C   UNL     1      -1.046   5.777  24.796  0.00  0.00    +0.160 C 
ATOM     32  C   UNL     1      -1.825   7.077  24.965  0.00  0.00    +0.091 C 
ENDBRANCH  29  30
ENDBRANCH   9  21
ENDBRANCH   3  17
ENDBRANCH  13   3
TORSDOF 7
ENDMDL
MODEL 3
REMARK VINA RESULT:       6.9      1.331      2.140
REMARK  Name = 11884147
REMARK  9 active torsions:
REMARK  status: ('A' for Active; 'I' for Inactive)
REMARK    1  A    between atoms: O_3  and  C_13
REMARK    2  A    between atoms: O_3  and  C_17
REMARK    3  A    between atoms: O_6  and  C_24
REMARK    4  A    between atoms: O_6  and  C_31
REMARK    5  A    between atoms: N_8  and  C_12
REMARK    6  A    between atoms: N_9  and  C_21
REMARK    7  A    between atoms: C_16  and  C_18
REMARK    8  A    between atoms: C_29  and  C_30
REMARK    9  A    between atoms: C_30  and  C_32
REMARK                            x       y       z     vdW  Elec       q    Type
REMARK                         _______ _______ _______ _____ _____    ______ ____
ROOT
ATOM      1  O   UNL     1      -2.006   2.467  24.693  0.00  0.00    -0.368 OA
ATOM      2  O   UNL     1      -1.340   5.455  24.502  0.00  0.00    -0.368 OA
ATOM     10  C   UNL     1      -0.502   4.301  24.718  0.00  0.00    +0.173 C 
ATOM     11  C   UNL     1      -1.290   3.340  25.584  0.00  0.00    +0.192 C 
ATOM     12  C   UNL     1      -0.312   3.547  23.421  0.00  0.00    +0.130 C 
ATOM     13  C   UNL     1      -2.224   4.264  26.329  0.00  0.00    +0.235 C 
ATOM     14  C   UNL     1      -1.580   2.715  23.344  0.00  0.00    +0.185 C 
ATOM     15  C   UNL     1      -2.534   5.314  25.287  0.00  0.00    +0.207 C 
ENDROOT
BRANCH  12   8
ATOM      4  O   UNL     1      -0.179   0.740  22.831  0.00  0.00    -0.270 OA
ATOM      8  N   UNL     1       0.862   2.712  23.469  0.00  0.00    -0.304 N 
ATOM     16  C   UNL     1       0.828   1.358  23.165  0.00  0.00    +0.244 C 
ATOM     33  H   UNL     1       1.710   3.129  23.841  0.00  0.00    +0.149 HD
BRANCH  16  18
ATOM     18  C   UNL     1       2.119   0.631  23.287  0.00  0.00    +0.037 A 
ATOM     19  C   UNL     1       2.129  -0.712  23.663  0.00  0.00    +0.016 A 
ATOM     20  C   UNL     1       3.319   1.291  23.027  0.00  0.00    +0.016 A 
ATOM     22  C   UNL     1       3.340  -1.395  23.778  0.00  0.00    +0.046 A 
ATOM     23  C   UNL     1       4.530   0.608  23.141  0.00  0.00    +0.046 A 
ATOM     24  C   UNL     1       4.540  -0.735  23.517  0.00  0.00    +0.120 A 
BRANCH  24   6
ATOM      6  O   UNL     1       5.722  -1.402  23.627  0.00  0.00    -0.495 OA
ATOM     31  C   UNL     1       6.912  -0.663  23.355  0.00  0.00    +0.277 C 
ENDBRANCH  24   6
ENDBRANCH  16  18
ENDBRANCH  12   8
BRANCH  13   3
ATOM      3  O   UNL     1      -3.388   3.625  26.803  0.00  0.00    -0.442 OA
BRANCH   3  17
ATOM      5  O   UNL     1      -4.918   2.859  25.286  0.00  0.00    -0.226 OA
ATOM      9  N   UNL     1      -3.226   1.479  26.131  0.00  0.00    -0.251 N 
ATOM     17  C   UNL     1      -3.940   2.653  25.996  0.00  0.00    +0.405 C 
ATOM     34  H   UNL     1      -2.438   1.504  26.773  0.00  0.00    +0.158 HD
BRANCH   9  21
ATOM     21  C   UNL     1      -3.453   0.242  25.485  0.00  0.00    +0.036 A 
ATOM     25  C   UNL     1      -2.846  -0.918  25.966  0.00  0.00    +0.024 A 
ATOM     26  C   UNL     1      -4.285   0.182  24.367  0.00  0.00    +0.024 A 
ATOM     27  C   UNL     1      -3.071  -2.137  25.328  0.00  0.00    +0.013 A 
ATOM     28  C   UNL     1      -4.508  -1.037  23.728  0.00  0.00    +0.013 A 
ATOM     29  C   UNL     1      -3.902  -2.198  24.209  0.00  0.00    +0.017 A 
BRANCH  29  30
ATOM      7  O   UNL     1      -3.249  -4.347  23.487  0.00  0.00    -0.292 OA
ATOM     30  C   UNL     1      -4.135  -3.470  23.545  0.00  0.00    +0.160 C 
ATOM     32  C   UNL     1      -5.483  -3.762  22.895  0.00  0.00    +0.091 C 
ENDBRANCH  29  30
ENDBRANCH   9  21
ENDBRANCH   3  17
ENDBRANCH  13   3
TORSDOF 7
ENDMDL
