MODEL 1
REMARK VINA RESULT:      -4.3      0.000      0.000
REMARK  Name = 11879564
REMARK  8 active torsions:
REMARK  status: ('A' for Active; 'I' for Inactive)
REMARK    1  A    between atoms: O_3  and  C_18
REMARK    2  A    between atoms: O_3  and  C_21
REMARK    3  A    between atoms: N_6  and  C_14
REMARK    4  A    between atoms: N_7  and  C_15
REMARK    5  A    between atoms: N_11  and  C_27
REMARK    6  A    between atoms: N_11  and  C_30
REMARK    7  A    between atoms: N_11  and  C_31
REMARK    8  A    between atoms: C_19  and  C_20
REMARK                            x       y       z     vdW  Elec       q    Type
REMARK                         _______ _______ _______ _____ _____    ______ ____
ROOT
ATOM      1  O   UNL     1      14.559  -6.089  29.248  0.00  0.00    -0.370 OA
ATOM      2  O   UNL     1      15.328  -8.506  31.107  0.00  0.00    -0.370 OA
ATOM     12  C   UNL     1      14.882  -8.398  29.743  0.00  0.00    +0.176 C 
ATOM     13  C   UNL     1      13.871  -7.270  29.690  0.00  0.00    +0.171 C 
ATOM     14  C   UNL     1      16.025  -7.934  28.861  0.00  0.00    +0.171 C 
ATOM     15  C   UNL     1      13.418  -7.106  31.124  0.00  0.00    +0.130 C 
ATOM     16  C   UNL     1      15.921  -6.414  28.937  0.00  0.00    +0.190 C 
ATOM     17  C   UNL     1      14.653  -7.522  31.902  0.00  0.00    +0.185 C 
ENDROOT
BRANCH  14   6
ATOM      6  N   UNL     1      15.956  -8.494  27.509  0.00  0.00    -0.187 N 
ATOM      8  N   UNL     1      15.202  -9.567  27.249  0.00  0.00    -0.041 NA
ATOM      9  N   UNL     1      16.231  -8.869  25.399  0.00  0.00    -0.071 NA
ATOM     10  N   UNL     1      15.374  -9.793  25.953  0.00  0.00    -0.020 NA
ATOM     18  C   UNL     1      16.578  -8.073  26.384  0.00  0.00    +0.342 A 
BRANCH  18   3
ATOM      3  O   UNL     1      17.393  -7.037  26.311  0.00  0.00    -0.423 OA
BRANCH   3  21
ATOM     21  C   UNL     1      17.344  -6.118  25.272  0.00  0.00    +0.134 A 
ATOM     24  C   UNL     1      17.239  -4.774  25.569  0.00  0.00    +0.069 A 
ATOM     26  C   UNL     1      17.401  -6.576  23.969  0.00  0.00    +0.046 A 
ATOM     27  C   UNL     1      17.190  -3.850  24.525  0.00  0.00    +0.033 A 
ATOM     28  C   UNL     1      17.353  -5.653  22.924  0.00  0.00    +0.005 A 
ATOM     29  C   UNL     1      17.247  -4.290  23.202  0.00  0.00    +0.023 A 
BRANCH  27  11
ATOM     11  N   UNL     1      17.084  -2.472  24.805  0.00  0.00    -0.336 N 
ATOM     30  C   UNL     1      16.685  -1.541  23.768  0.00  0.00    +0.129 C 
ATOM     31  C   UNL     1      17.384  -1.967  26.130  0.00  0.00    +0.129 C 
ENDBRANCH  27  11
ENDBRANCH   3  21
ENDBRANCH  18   3
ENDBRANCH  14   6
BRANCH  15   7
ATOM      4  O   UNL     1      10.928  -6.329  32.324  0.00  0.00    -0.267 OA
ATOM      7  N   UNL     1      12.299  -7.967  31.420  0.00  0.00    -0.301 N 
ATOM     19  C   UNL     1      11.132  -7.497  32.004  0.00  0.00    +0.280 C 
ATOM     32  H   UNL     1      12.391  -8.962  31.236  0.00  0.00    +0.150 HD
BRANCH  19  20
ATOM      5  O   UNL     1      10.365  -9.749  31.860  0.00  0.00    -0.458 OA
ATOM     20  C   UNL     1      10.082  -8.515  32.268  0.00  0.00    +0.189 A 
ATOM     22  C   UNL     1       8.893  -8.376  32.857  0.00  0.00    +0.054 A 
ATOM     23  C   UNL     1       8.337  -9.678  32.827  0.00  0.00    +0.042 A 
ATOM     25  C   UNL     1       9.272 -10.477  32.210  0.00  0.00    +0.196 A 
ENDBRANCH  19  20
ENDBRANCH  15   7
TORSDOF 6
ENDMDL
MODEL 2
REMARK VINA RESULT:      -2.4     16.829     19.833
REMARK  Name = 11879564
REMARK  8 active torsions:
REMARK  status: ('A' for Active; 'I' for Inactive)
REMARK    1  A    between atoms: O_3  and  C_18
REMARK    2  A    between atoms: O_3  and  C_21
REMARK    3  A    between atoms: N_6  and  C_14
REMARK    4  A    between atoms: N_7  and  C_15
REMARK    5  A    between atoms: N_11  and  C_27
REMARK    6  A    between atoms: N_11  and  C_30
REMARK    7  A    between atoms: N_11  and  C_31
REMARK    8  A    between atoms: C_19  and  C_20
REMARK                            x       y       z     vdW  Elec       q    Type
REMARK                         _______ _______ _______ _____ _____    ______ ____
ROOT
ATOM      1  O   UNL     1      -1.207   1.442  22.381  0.00  0.00    -0.370 OA
ATOM      2  O   UNL     1      -0.819   0.015  25.157  0.00  0.00    -0.370 OA
ATOM     12  C   UNL     1      -0.577   1.350  24.678  0.00  0.00    +0.176 C 
ATOM     13  C   UNL     1      -0.082   1.232  23.250  0.00  0.00    +0.171 C 
ATOM     14  C   UNL     1      -1.888   2.105  24.571  0.00  0.00    +0.171 C 
ATOM     15  C   UNL     1       0.405  -0.196  23.140  0.00  0.00    +0.130 C 
ATOM     16  C   UNL     1      -2.364   1.768  23.163  0.00  0.00    +0.190 C 
ATOM     17  C   UNL     1      -0.499  -0.922  24.119  0.00  0.00    +0.185 C 
ENDROOT
BRANCH  14   6
ATOM      6  N   UNL     1      -1.736   3.536  24.849  0.00  0.00    -0.187 N 
ATOM      8  N   UNL     1      -0.712   4.228  24.340  0.00  0.00    -0.041 NA
ATOM      9  N   UNL     1      -2.015   5.553  25.573  0.00  0.00    -0.071 NA
ATOM     10  N   UNL     1      -0.888   5.465  24.787  0.00  0.00    -0.020 NA
ATOM     18  C   UNL     1      -2.525   4.343  25.596  0.00  0.00    +0.342 A 
BRANCH  18   3
ATOM      3  O   UNL     1      -3.616   3.959  26.232  0.00  0.00    -0.423 OA
BRANCH   3  21
ATOM     21  C   UNL     1      -4.424   2.928  25.776  0.00  0.00    +0.134 A 
ATOM     24  C   UNL     1      -3.898   1.653  25.685  0.00  0.00    +0.069 A 
ATOM     26  C   UNL     1      -5.733   3.204  25.427  0.00  0.00    +0.046 A 
ATOM     27  C   UNL     1      -4.711   0.616  25.227  0.00  0.00    +0.033 A 
ATOM     28  C   UNL     1      -6.545   2.167  24.970  0.00  0.00    +0.005 A 
ATOM     29  C   UNL     1      -6.034   0.873  24.870  0.00  0.00    +0.023 A 
BRANCH  27  11
ATOM     11  N   UNL     1      -4.195  -0.693  25.127  0.00  0.00    -0.336 N 
ATOM     30  C   UNL     1      -3.528  -1.308  26.257  0.00  0.00    +0.129 C 
ATOM     31  C   UNL     1      -4.314  -1.435  23.887  0.00  0.00    +0.129 C 
ENDBRANCH  27  11
ENDBRANCH   3  21
ENDBRANCH  18   3
ENDBRANCH  14   6
BRANCH  15   7
ATOM      4  O   UNL     1       2.693   0.085  21.428  0.00  0.00    -0.267 OA
ATOM      7  N   UNL     1       1.791  -0.306  23.528  0.00  0.00    -0.301 N 
ATOM     19  C   UNL     1       2.832  -0.154  22.625  0.00  0.00    +0.280 C 
ATOM     32  H   UNL     1       2.007  -0.551  24.491  0.00  0.00    +0.150 HD
BRANCH  19  20
ATOM      5  O   UNL     1       4.426  -1.471  23.811  0.00  0.00    -0.458 OA
ATOM     20  C   UNL     1       4.201  -0.323  23.176  0.00  0.00    +0.189 A 
ATOM     22  C   UNL     1       5.244   0.508  23.130  0.00  0.00    +0.054 A 
ATOM     23  C   UNL     1       6.270  -0.185  23.818  0.00  0.00    +0.042 A 
ATOM     25  C   UNL     1       5.721  -1.384  24.212  0.00  0.00    +0.196 A 
ENDBRANCH  19  20
ENDBRANCH  15   7
TORSDOF 6
ENDMDL
MODEL 3
REMARK VINA RESULT:      -2.2     17.593     20.517
REMARK  Name = 11879564
REMARK  8 active torsions:
REMARK  status: ('A' for Active; 'I' for Inactive)
REMARK    1  A    between atoms: O_3  and  C_18
REMARK    2  A    between atoms: O_3  and  C_21
REMARK    3  A    between atoms: N_6  and  C_14
REMARK    4  A    between atoms: N_7  and  C_15
REMARK    5  A    between atoms: N_11  and  C_27
REMARK    6  A    between atoms: N_11  and  C_30
REMARK    7  A    between atoms: N_11  and  C_31
REMARK    8  A    between atoms: C_19  and  C_20
REMARK                            x       y       z     vdW  Elec       q    Type
REMARK                         _______ _______ _______ _____ _____    ______ ____
ROOT
ATOM      1  O   UNL     1      -2.551   4.124  26.741  0.00  0.00    -0.370 OA
ATOM      2  O   UNL     1      -2.980   4.539  23.653  0.00  0.00    -0.370 OA
ATOM     12  C   UNL     1      -3.344   3.501  24.581  0.00  0.00    +0.176 C 
ATOM     13  C   UNL     1      -2.205   3.366  25.571  0.00  0.00    +0.171 C 
ATOM     14  C   UNL     1      -4.529   3.948  25.415  0.00  0.00    +0.171 C 
ATOM     15  C   UNL     1      -1.022   3.995  24.869  0.00  0.00    +0.130 C 
ATOM     16  C   UNL     1      -3.871   4.664  26.590  0.00  0.00    +0.190 C 
ATOM     17  C   UNL     1      -1.685   5.048  24.001  0.00  0.00    +0.185 C 
ENDROOT
BRANCH  14   6
ATOM      6  N   UNL     1      -5.410   2.836  25.781  0.00  0.00    -0.187 N 
ATOM      8  N   UNL     1      -6.323   2.973  26.749  0.00  0.00    -0.041 NA
ATOM      9  N   UNL     1      -6.400   0.918  25.889  0.00  0.00    -0.071 NA
ATOM     10  N   UNL     1      -6.927   1.794  26.811  0.00  0.00    -0.020 NA
ATOM     18  C   UNL     1      -5.460   1.587  25.262  0.00  0.00    +0.342 A 
BRANCH  18   3
ATOM      3  O   UNL     1      -4.687   1.138  24.291  0.00  0.00    -0.423 OA
BRANCH   3  21
ATOM     21  C   UNL     1      -4.027  -0.081  24.363  0.00  0.00    +0.134 A 
ATOM     24  C   UNL     1      -2.810  -0.148  25.013  0.00  0.00    +0.069 A 
ATOM     26  C   UNL     1      -4.608  -1.192  23.781  0.00  0.00    +0.046 A 
ATOM     27  C   UNL     1      -2.148  -1.374  25.085  0.00  0.00    +0.033 A 
ATOM     28  C   UNL     1      -3.945  -2.418  23.853  0.00  0.00    +0.005 A 
ATOM     29  C   UNL     1      -2.716  -2.508  24.505  0.00  0.00    +0.023 A 
BRANCH  27  11
ATOM     11  N   UNL     1      -0.905  -1.467  25.744  0.00  0.00    -0.336 N 
ATOM     30  C   UNL     1       0.108  -2.391  25.274  0.00  0.00    +0.129 C 
ATOM     31  C   UNL     1      -0.629  -0.648  26.909  0.00  0.00    +0.129 C 
ENDBRANCH  27  11
ENDBRANCH   3  21
ENDBRANCH  18   3
ENDBRANCH  14   6
BRANCH  15   7
ATOM      4  O   UNL     1       0.790   1.980  25.818  0.00  0.00    -0.267 OA
ATOM      7  N   UNL     1      -0.314   3.027  24.068  0.00  0.00    -0.301 N 
ATOM     19  C   UNL     1       0.545   2.088  24.619  0.00  0.00    +0.280 C 
ATOM     32  H   UNL     1      -0.414   3.068  23.057  0.00  0.00    +0.150 HD
BRANCH  19  20
ATOM      5  O   UNL     1       2.513   1.411  23.457  0.00  0.00    -0.458 OA
ATOM     20  C   UNL     1       1.218   1.178  23.656  0.00  0.00    +0.189 A 
ATOM     22  C   UNL     1       0.716   0.158  22.958  0.00  0.00    +0.054 A 
ATOM     23  C   UNL     1       1.819  -0.330  22.216  0.00  0.00    +0.042 A 
ATOM     25  C   UNL     1       2.889   0.466  22.555  0.00  0.00    +0.196 A 
ENDBRANCH  19  20
ENDBRANCH  15   7
TORSDOF 6
ENDMDL
MODEL 4
REMARK VINA RESULT:      -1.2     17.535     19.840
REMARK  Name = 11879564
REMARK  8 active torsions:
REMARK  status: ('A' for Active; 'I' for Inactive)
REMARK    1  A    between atoms: O_3  and  C_18
REMARK    2  A    between atoms: O_3  and  C_21
REMARK    3  A    between atoms: N_6  and  C_14
REMARK    4  A    between atoms: N_7  and  C_15
REMARK    5  A    between atoms: N_11  and  C_27
REMARK    6  A    between atoms: N_11  and  C_30
REMARK    7  A    between atoms: N_11  and  C_31
REMARK    8  A    between atoms: C_19  and  C_20
REMARK                            x       y       z     vdW  Elec       q    Type
REMARK                         _______ _______ _______ _____ _____    ______ ____
ROOT
ATOM      1  O   UNL     1      -4.639   3.885  23.691  0.00  0.00    -0.370 OA
ATOM      2  O   UNL     1      -4.740   2.779  26.634  0.00  0.00    -0.370 OA
ATOM     12  C   UNL     1      -3.691   2.934  25.661  0.00  0.00    +0.176 C 
ATOM     13  C   UNL     1      -4.291   2.632  24.302  0.00  0.00    +0.171 C 
ATOM     14  C   UNL     1      -3.271   4.390  25.582  0.00  0.00    +0.171 C 
ATOM     15  C   UNL     1      -5.540   1.837  24.613  0.00  0.00    +0.130 C 
ATOM     16  C   UNL     1      -4.223   4.965  24.538  0.00  0.00    +0.190 C 
ATOM     17  C   UNL     1      -5.948   2.393  25.965  0.00  0.00    +0.185 C 
ENDROOT
BRANCH  14   6
ATOM      6  N   UNL     1      -1.847   4.548  25.278  0.00  0.00    -0.187 N 
ATOM      8  N   UNL     1      -1.392   5.657  24.686  0.00  0.00    -0.041 NA
ATOM      9  N   UNL     1       0.282   4.238  25.079  0.00  0.00    -0.071 NA
ATOM     10  N   UNL     1      -0.085   5.462  24.567  0.00  0.00    -0.020 NA
ATOM     18  C   UNL     1      -0.829   3.690  25.516  0.00  0.00    +0.342 A 
BRANCH  18   3
ATOM      3  O   UNL     1      -0.952   2.507  26.089  0.00  0.00    -0.423 OA
BRANCH   3  21
ATOM     21  C   UNL     1      -0.584   1.328  25.457  0.00  0.00    +0.134 A 
ATOM     24  C   UNL     1       0.322   1.379  24.415  0.00  0.00    +0.069 A 
ATOM     26  C   UNL     1      -1.133   0.135  25.890  0.00  0.00    +0.046 A 
ATOM     27  C   UNL     1       0.692   0.193  23.781  0.00  0.00    +0.033 A 
ATOM     28  C   UNL     1      -0.762  -1.050  25.256  0.00  0.00    +0.005 A 
ATOM     29  C   UNL     1       0.150  -1.021  24.201  0.00  0.00    +0.023 A 
BRANCH  27  11
ATOM     11  N   UNL     1       1.615   0.221  22.715  0.00  0.00    -0.336 N 
ATOM     30  C   UNL     1       1.309  -0.442  21.462  0.00  0.00    +0.129 C 
ATOM     31  C   UNL     1       2.886   0.901  22.862  0.00  0.00    +0.129 C 
ENDBRANCH  27  11
ENDBRANCH   3  21
ENDBRANCH  18   3
ENDBRANCH  14   6
BRANCH  15   7
ATOM      4  O   UNL     1      -3.364   0.454  23.349  0.00  0.00    -0.267 OA
ATOM      7  N   UNL     1      -5.253   0.425  24.694  0.00  0.00    -0.301 N 
ATOM     19  C   UNL     1      -4.173  -0.155  24.045  0.00  0.00    +0.280 C 
ATOM     32  H   UNL     1      -5.896  -0.172  25.207  0.00  0.00    +0.150 HD
BRANCH  19  20
ATOM      5  O   UNL     1      -3.568  -2.030  25.386  0.00  0.00    -0.458 OA
ATOM     20  C   UNL     1      -4.031  -1.625  24.206  0.00  0.00    +0.189 A 
ATOM     22  C   UNL     1      -4.298  -2.604  23.340  0.00  0.00    +0.054 A 
ATOM     23  C   UNL     1      -3.970  -3.788  24.044  0.00  0.00    +0.042 A 
ATOM     25  C   UNL     1      -3.531  -3.385  25.284  0.00  0.00    +0.196 A 
ENDBRANCH  19  20
ENDBRANCH  15   7
TORSDOF 6
ENDMDL
