MODEL 1
REMARK VINA RESULT:      -5.2      0.000      0.000
REMARK  Name = 56775465
REMARK  9 active torsions:
REMARK  status: ('A' for Active; 'I' for Inactive)
REMARK    1  A    between atoms: N_4  and  C_6
REMARK    2  A    between atoms: N_4  and  C_11
REMARK    3  A    between atoms: C_6  and  C_9
REMARK    4  A    between atoms: C_9  and  C_10
REMARK    5  A    between atoms: C_11  and  C_15
REMARK    6  A    between atoms: C_12  and  C_14
REMARK    7  A    between atoms: C_12  and  C_16
REMARK    8  A    between atoms: C_12  and  C_17
REMARK    9  A    between atoms: C_12  and  C_18
REMARK                            x       y       z     vdW  Elec       q    Type
REMARK                         _______ _______ _______ _____ _____    ______ ____
ROOT
ATOM      2  O   UNL     1      -6.605   4.513  25.808  0.00  0.00    -0.376 OA
ATOM      6  C   UNL     1      -4.764   3.593  25.244  0.00  0.00    +0.072 C 
ATOM      7  C   UNL     1      -5.298   5.007  25.439  0.00  0.00    +0.184 C 
ATOM      8  C   UNL     1      -6.138   3.147  25.733  0.00  0.00    +0.184 C 
ENDROOT
BRANCH   6   4
ATOM      4  N   UNL     1      -3.782   3.313  26.283  0.00  0.00    -0.302 NA
ATOM     24  H   UNL     1      -4.138   3.363  27.237  0.00  0.00    +0.123 HD
BRANCH   4  11
ATOM     11  C   UNL     1      -2.636   4.205  26.134  0.00  0.00    +0.117 C 
BRANCH  11  15
ATOM      1  F   UNL     1       1.734   1.618  23.692  0.00  0.00    -0.205 F 
ATOM     15  C   UNL     1      -1.468   3.513  25.482  0.00  0.00    -0.033 A 
ATOM     19  C   UNL     1      -0.834   4.100  24.387  0.00  0.00    +0.008 A 
ATOM     20  C   UNL     1      -1.021   2.287  25.973  0.00  0.00    +0.008 A 
ATOM     21  C   UNL     1       0.247   3.459  23.781  0.00  0.00    +0.038 A 
ATOM     22  C   UNL     1       0.061   1.647  25.368  0.00  0.00    +0.038 A 
ATOM     23  C   UNL     1       0.695   2.233  24.272  0.00  0.00    +0.123 A 
ENDBRANCH  11  15
ENDBRANCH   4  11
ENDBRANCH   6   4
BRANCH   6   9
ATOM      9  C   UNL     1      -4.297   3.159  23.847  0.00  0.00    +0.085 C 
BRANCH   9  10
ATOM      3  O   UNL     1      -2.452   0.148  23.314  0.00  0.00    -0.359 OA
ATOM      5  N   UNL     1      -2.760   1.470  23.015  0.00  0.00    -0.083 NA
ATOM     10  C   UNL     1      -3.723   1.803  23.878  0.00  0.00    +0.086 A 
ATOM     13  C   UNL     1      -4.062   0.743  24.737  0.00  0.00    +0.071 A 
ATOM     14  C   UNL     1      -3.234  -0.274  24.341  0.00  0.00    +0.143 A 
BRANCH  14  12
ATOM     12  C   UNL     1      -3.030  -1.723  24.809  0.00  0.00    +0.023 C 
ATOM     16  C   UNL     1      -1.577  -2.162  24.525  0.00  0.00    +0.019 C 
ATOM     17  C   UNL     1      -3.301  -1.822  26.326  0.00  0.00    +0.019 C 
ATOM     18  C   UNL     1      -3.960  -2.743  24.112  0.00  0.00    +0.019 C 
ENDBRANCH  14  12
ENDBRANCH   9  10
ENDBRANCH   6   9
TORSDOF 6
ENDMDL
MODEL 2
REMARK VINA RESULT:      -5.2      2.730      5.091
REMARK  Name = 56775465
REMARK  9 active torsions:
REMARK  status: ('A' for Active; 'I' for Inactive)
REMARK    1  A    between atoms: N_4  and  C_6
REMARK    2  A    between atoms: N_4  and  C_11
REMARK    3  A    between atoms: C_6  and  C_9
REMARK    4  A    between atoms: C_9  and  C_10
REMARK    5  A    between atoms: C_11  and  C_15
REMARK    6  A    between atoms: C_12  and  C_14
REMARK    7  A    between atoms: C_12  and  C_16
REMARK    8  A    between atoms: C_12  and  C_17
REMARK    9  A    between atoms: C_12  and  C_18
REMARK                            x       y       z     vdW  Elec       q    Type
REMARK                         _______ _______ _______ _____ _____    ______ ____
ROOT
ATOM      2  O   UNL     1      -1.938   5.268  25.318  0.00  0.00    -0.376 OA
ATOM      6  C   UNL     1      -1.852   3.141  25.153  0.00  0.00    +0.072 C 
ATOM      7  C   UNL     1      -2.685   4.176  25.901  0.00  0.00    +0.184 C 
ATOM      8  C   UNL     1      -1.175   4.346  24.507  0.00  0.00    +0.184 C 
ENDROOT
BRANCH   6   4
ATOM      4  N   UNL     1      -2.694   2.489  24.159  0.00  0.00    -0.302 NA
ATOM     24  H   UNL     1      -2.996   3.087  23.390  0.00  0.00    +0.123 HD
BRANCH   4  11
ATOM     11  C   UNL     1      -3.858   1.894  24.811  0.00  0.00    +0.117 C 
BRANCH  11  15
ATOM      1  F   UNL     1      -3.689  -3.736  24.671  0.00  0.00    -0.205 F 
ATOM     15  C   UNL     1      -3.813   0.390  24.774  0.00  0.00    -0.033 A 
ATOM     19  C   UNL     1      -4.017  -0.284  23.570  0.00  0.00    +0.008 A 
ATOM     20  C   UNL     1      -3.567  -0.330  25.943  0.00  0.00    +0.008 A 
ATOM     21  C   UNL     1      -3.976  -1.678  23.535  0.00  0.00    +0.038 A 
ATOM     22  C   UNL     1      -3.525  -1.724  25.908  0.00  0.00    +0.038 A 
ATOM     23  C   UNL     1      -3.730  -2.397  24.704  0.00  0.00    +0.123 A 
ENDBRANCH  11  15
ENDBRANCH   4  11
ENDBRANCH   6   4
BRANCH   6   9
ATOM      9  C   UNL     1      -0.998   2.151  25.956  0.00  0.00    +0.085 C 
BRANCH   9  10
ATOM      3  O   UNL     1       0.362  -0.477  23.958  0.00  0.00    -0.359 OA
ATOM      5  N   UNL     1      -0.594   0.039  24.824  0.00  0.00    -0.083 NA
ATOM     10  C   UNL     1      -0.202   1.293  25.063  0.00  0.00    +0.086 A 
ATOM     13  C   UNL     1       0.983   1.621  24.382  0.00  0.00    +0.071 A 
ATOM     14  C   UNL     1       1.296   0.474  23.702  0.00  0.00    +0.143 A 
BRANCH  14  12
ATOM     12  C   UNL     1       2.440   0.077  22.755  0.00  0.00    +0.023 C 
ATOM     16  C   UNL     1       3.235  -1.098  23.363  0.00  0.00    +0.019 C 
ATOM     17  C   UNL     1       1.859  -0.356  21.391  0.00  0.00    +0.019 C 
ATOM     18  C   UNL     1       3.448   1.217  22.480  0.00  0.00    +0.019 C 
ENDBRANCH  14  12
ENDBRANCH   9  10
ENDBRANCH   6   9
TORSDOF 6
ENDMDL
MODEL 3
REMARK VINA RESULT:      -5.1      2.618      4.297
REMARK  Name = 56775465
REMARK  9 active torsions:
REMARK  status: ('A' for Active; 'I' for Inactive)
REMARK    1  A    between atoms: N_4  and  C_6
REMARK    2  A    between atoms: N_4  and  C_11
REMARK    3  A    between atoms: C_6  and  C_9
REMARK    4  A    between atoms: C_9  and  C_10
REMARK    5  A    between atoms: C_11  and  C_15
REMARK    6  A    between atoms: C_12  and  C_14
REMARK    7  A    between atoms: C_12  and  C_16
REMARK    8  A    between atoms: C_12  and  C_17
REMARK    9  A    between atoms: C_12  and  C_18
REMARK                            x       y       z     vdW  Elec       q    Type
REMARK                         _______ _______ _______ _____ _____    ______ ____
ROOT
ATOM      2  O   UNL     1      -0.914   5.554  25.003  0.00  0.00    -0.376 OA
ATOM      6  C   UNL     1      -0.982   3.453  24.633  0.00  0.00    +0.072 C 
ATOM      7  C   UNL     1      -1.733   4.467  25.488  0.00  0.00    +0.184 C 
ATOM      8  C   UNL     1      -0.223   4.664  24.097  0.00  0.00    +0.184 C 
ENDROOT
BRANCH   6   4
ATOM      4  N   UNL     1      -1.874   2.962  23.591  0.00  0.00    -0.302 NA
ATOM     24  H   UNL     1      -1.482   2.967  22.650  0.00  0.00    +0.123 HD
BRANCH   4  11
ATOM     11  C   UNL     1      -3.123   3.719  23.612  0.00  0.00    +0.117 C 
BRANCH  11  15
ATOM      1  F   UNL     1      -7.012   1.260  26.865  0.00  0.00    -0.205 F 
ATOM     15  C   UNL     1      -4.162   3.061  24.482  0.00  0.00    -0.033 A 
ATOM     19  C   UNL     1      -4.853   3.814  25.432  0.00  0.00    +0.008 A 
ATOM     20  C   UNL     1      -4.433   1.701  24.337  0.00  0.00    +0.008 A 
ATOM     21  C   UNL     1      -5.816   3.205  26.237  0.00  0.00    +0.038 A 
ATOM     22  C   UNL     1      -5.397   1.092  25.142  0.00  0.00    +0.038 A 
ATOM     23  C   UNL     1      -6.087   1.845  26.092  0.00  0.00    +0.123 A 
ENDBRANCH  11  15
ENDBRANCH   4  11
ENDBRANCH   6   4
BRANCH   6   9
ATOM      9  C   UNL     1      -0.195   2.332  25.325  0.00  0.00    +0.085 C 
BRANCH   9  10
ATOM      3  O   UNL     1      -0.761  -0.874  23.857  0.00  0.00    -0.359 OA
ATOM      5  N   UNL     1      -0.036   0.303  23.996  0.00  0.00    -0.083 NA
ATOM     10  C   UNL     1      -0.694   1.007  24.921  0.00  0.00    +0.086 A 
ATOM     13  C   UNL     1      -1.831   0.332  25.397  0.00  0.00    +0.071 A 
ATOM     14  C   UNL     1      -1.828  -0.845  24.696  0.00  0.00    +0.143 A 
BRANCH  14  12
ATOM     12  C   UNL     1      -2.750  -2.075  24.677  0.00  0.00    +0.023 C 
ATOM     16  C   UNL     1      -1.980  -3.294  24.125  0.00  0.00    +0.019 C 
ATOM     17  C   UNL     1      -3.231  -2.386  26.111  0.00  0.00    +0.019 C 
ATOM     18  C   UNL     1      -4.012  -1.897  23.802  0.00  0.00    +0.019 C 
ENDBRANCH  14  12
ENDBRANCH   9  10
ENDBRANCH   6   9
TORSDOF 6
ENDMDL
MODEL 4
REMARK VINA RESULT:      -5.1      1.915      5.013
REMARK  Name = 56775465
REMARK  9 active torsions:
REMARK  status: ('A' for Active; 'I' for Inactive)
REMARK    1  A    between atoms: N_4  and  C_6
REMARK    2  A    between atoms: N_4  and  C_11
REMARK    3  A    between atoms: C_6  and  C_9
REMARK    4  A    between atoms: C_9  and  C_10
REMARK    5  A    between atoms: C_11  and  C_15
REMARK    6  A    between atoms: C_12  and  C_14
REMARK    7  A    between atoms: C_12  and  C_16
REMARK    8  A    between atoms: C_12  and  C_17
REMARK    9  A    between atoms: C_12  and  C_18
REMARK                            x       y       z     vdW  Elec       q    Type
REMARK                         _______ _______ _______ _____ _____    ______ ____
ROOT
ATOM      2  O   UNL     1      -2.597  -3.728  24.315  0.00  0.00    -0.376 OA
ATOM      6  C   UNL     1      -2.953  -1.633  24.513  0.00  0.00    +0.072 C 
ATOM      7  C   UNL     1      -3.567  -2.929  25.028  0.00  0.00    +0.184 C 
ATOM      8  C   UNL     1      -1.908  -2.538  23.867  0.00  0.00    +0.184 C 
ENDROOT
BRANCH   6   4
ATOM      4  N   UNL     1      -2.336  -0.928  25.628  0.00  0.00    -0.302 NA
ATOM     24  H   UNL     1      -2.831  -0.091  25.936  0.00  0.00    +0.123 HD
BRANCH   4  11
ATOM     11  C   UNL     1      -0.954  -0.592  25.298  0.00  0.00    +0.117 C 
BRANCH  11  15
ATOM      1  F   UNL     1      -0.265   4.948  24.537  0.00  0.00    -0.205 F 
ATOM     15  C   UNL     1      -0.769   0.888  25.095  0.00  0.00    -0.033 A 
ATOM     19  C   UNL     1      -0.582   1.397  23.810  0.00  0.00    +0.008 A 
ATOM     20  C   UNL     1      -0.787   1.750  26.191  0.00  0.00    +0.008 A 
ATOM     21  C   UNL     1      -0.411   2.769  23.621  0.00  0.00    +0.038 A 
ATOM     22  C   UNL     1      -0.617   3.122  26.003  0.00  0.00    +0.038 A 
ATOM     23  C   UNL     1      -0.428   3.630  24.717  0.00  0.00    +0.123 A 
ENDBRANCH  11  15
ENDBRANCH   4  11
ENDBRANCH   6   4
BRANCH   6   9
ATOM      9  C   UNL     1      -3.794  -0.714  23.616  0.00  0.00    +0.085 C 
BRANCH   9  10
ATOM      3  O   UNL     1      -5.085   1.772  25.830  0.00  0.00    -0.359 OA
ATOM      5  N   UNL     1      -4.927   0.454  25.421  0.00  0.00    -0.083 NA
ATOM     10  C   UNL     1      -4.168   0.521  24.324  0.00  0.00    +0.086 A 
ATOM     13  C   UNL     1      -3.820   1.842  23.996  0.00  0.00    +0.071 A 
ATOM     14  C   UNL     1      -4.422   2.590  24.973  0.00  0.00    +0.143 A 
BRANCH  14  12
ATOM     12  C   UNL     1      -4.487   4.097  25.272  0.00  0.00    +0.023 C 
ATOM     16  C   UNL     1      -3.673   4.410  26.546  0.00  0.00    +0.019 C 
ATOM     17  C   UNL     1      -3.895   4.888  24.085  0.00  0.00    +0.019 C 
ATOM     18  C   UNL     1      -5.921   4.627  25.503  0.00  0.00    +0.019 C 
ENDBRANCH  14  12
ENDBRANCH   9  10
ENDBRANCH   6   9
TORSDOF 6
ENDMDL
MODEL 5
REMARK VINA RESULT:      -5.1      2.678      5.559
REMARK  Name = 56775465
REMARK  9 active torsions:
REMARK  status: ('A' for Active; 'I' for Inactive)
REMARK    1  A    between atoms: N_4  and  C_6
REMARK    2  A    between atoms: N_4  and  C_11
REMARK    3  A    between atoms: C_6  and  C_9
REMARK    4  A    between atoms: C_9  and  C_10
REMARK    5  A    between atoms: C_11  and  C_15
REMARK    6  A    between atoms: C_12  and  C_14
REMARK    7  A    between atoms: C_12  and  C_16
REMARK    8  A    between atoms: C_12  and  C_17
REMARK    9  A    between atoms: C_12  and  C_18
REMARK                            x       y       z     vdW  Elec       q    Type
REMARK                         _______ _______ _______ _____ _____    ______ ____
ROOT
ATOM      2  O   UNL     1      -3.745  -3.685  25.378  0.00  0.00    -0.376 OA
ATOM      6  C   UNL     1      -2.625  -2.149  24.408  0.00  0.00    +0.072 C 
ATOM      7  C   UNL     1      -3.162  -3.533  24.064  0.00  0.00    +0.184 C 
ATOM      8  C   UNL     1      -3.346  -2.343  25.738  0.00  0.00    +0.184 C 
ENDROOT
BRANCH   6   4
ATOM      4  N   UNL     1      -3.346  -1.156  23.624  0.00  0.00    -0.302 NA
ATOM     24  H   UNL     1      -2.761  -0.450  23.178  0.00  0.00    +0.123 HD
BRANCH   4  11
ATOM     11  C   UNL     1      -4.357  -0.508  24.457  0.00  0.00    +0.117 C 
BRANCH  11  15
ATOM      1  F   UNL     1      -4.143   5.106  24.028  0.00  0.00    -0.205 F 
ATOM     15  C   UNL     1      -4.299   0.993  24.342  0.00  0.00    -0.033 A 
ATOM     19  C   UNL     1      -5.023   1.787  25.231  0.00  0.00    +0.008 A 
ATOM     20  C   UNL     1      -3.523   1.587  23.348  0.00  0.00    +0.008 A 
ATOM     21  C   UNL     1      -4.971   3.177  25.124  0.00  0.00    +0.038 A 
ATOM     22  C   UNL     1      -3.469   2.977  23.242  0.00  0.00    +0.038 A 
ATOM     23  C   UNL     1      -4.194   3.772  24.130  0.00  0.00    +0.123 A 
ENDBRANCH  11  15
ENDBRANCH   4  11
ENDBRANCH   6   4
BRANCH   6   9
ATOM      9  C   UNL     1      -1.107  -1.920  24.414  0.00  0.00    +0.085 C 
BRANCH   9  10
ATOM      3  O   UNL     1      -0.033   1.453  23.936  0.00  0.00    -0.359 OA
ATOM      5  N   UNL     1      -0.180   0.138  23.511  0.00  0.00    -0.083 NA
ATOM     10  C   UNL     1      -0.788  -0.487  24.523  0.00  0.00    +0.086 A 
ATOM     13  C   UNL     1      -1.048   0.375  25.603  0.00  0.00    +0.071 A 
ATOM     14  C   UNL     1      -0.554   1.582  25.183  0.00  0.00    +0.143 A 
BRANCH  14  12
ATOM     12  C   UNL     1      -0.479   2.979  25.818  0.00  0.00    +0.023 C 
ATOM     16  C   UNL     1       0.632   3.006  26.888  0.00  0.00    +0.019 C 
ATOM     17  C   UNL     1      -0.161   4.028  24.730  0.00  0.00    +0.019 C 
ATOM     18  C   UNL     1      -1.790   3.423  26.509  0.00  0.00    +0.019 C 
ENDBRANCH  14  12
ENDBRANCH   9  10
ENDBRANCH   6   9
TORSDOF 6
ENDMDL
MODEL 6
REMARK VINA RESULT:      -4.6      2.634      6.170
REMARK  Name = 56775465
REMARK  9 active torsions:
REMARK  status: ('A' for Active; 'I' for Inactive)
REMARK    1  A    between atoms: N_4  and  C_6
REMARK    2  A    between atoms: N_4  and  C_11
REMARK    3  A    between atoms: C_6  and  C_9
REMARK    4  A    between atoms: C_9  and  C_10
REMARK    5  A    between atoms: C_11  and  C_15
REMARK    6  A    between atoms: C_12  and  C_14
REMARK    7  A    between atoms: C_12  and  C_16
REMARK    8  A    between atoms: C_12  and  C_17
REMARK    9  A    between atoms: C_12  and  C_18
REMARK                            x       y       z     vdW  Elec       q    Type
REMARK                         _______ _______ _______ _____ _____    ______ ____
ROOT
ATOM      2  O   UNL     1       1.412  -0.289  21.606  0.00  0.00    -0.376 OA
ATOM      6  C   UNL     1       0.835   0.210  23.600  0.00  0.00    +0.072 C 
ATOM      7  C   UNL     1       0.148  -0.044  22.263  0.00  0.00    +0.184 C 
ATOM      8  C   UNL     1       2.118  -0.154  22.860  0.00  0.00    +0.184 C 
ENDROOT
BRANCH   6   4
ATOM      4  N   UNL     1       0.499  -0.872  24.515  0.00  0.00    -0.302 NA
ATOM     24  H   UNL     1       0.336  -1.777  24.073  0.00  0.00    +0.123 HD
BRANCH   4  11
ATOM     11  C   UNL     1      -0.662  -0.498  25.318  0.00  0.00    +0.117 C 
BRANCH  11  15
ATOM      1  F   UNL     1      -5.356  -3.056  23.538  0.00  0.00    -0.205 F 
ATOM     15  C   UNL     1      -1.917  -1.181  24.842  0.00  0.00    -0.033 A 
ATOM     19  C   UNL     1      -1.881  -2.526  24.474  0.00  0.00    +0.008 A 
ATOM     20  C   UNL     1      -3.114  -0.470  24.770  0.00  0.00    +0.008 A 
ATOM     21  C   UNL     1      -3.043  -3.159  24.033  0.00  0.00    +0.038 A 
ATOM     22  C   UNL     1      -4.277  -1.103  24.330  0.00  0.00    +0.038 A 
ATOM     23  C   UNL     1      -4.240  -2.448  23.961  0.00  0.00    +0.123 A 
ENDBRANCH  11  15
ENDBRANCH   4  11
ENDBRANCH   6   4
BRANCH   6   9
ATOM      9  C   UNL     1       0.719   1.597  24.245  0.00  0.00    +0.085 C 
BRANCH   9  10
ATOM      3  O   UNL     1      -2.630   2.505  23.399  0.00  0.00    -0.359 OA
ATOM      5  N   UNL     1      -1.391   1.956  23.093  0.00  0.00    -0.083 NA
ATOM     10  C   UNL     1      -0.670   2.084  24.210  0.00  0.00    +0.086 A 
ATOM     13  C   UNL     1      -1.394   2.702  25.244  0.00  0.00    +0.071 A 
ATOM     14  C   UNL     1      -2.620   2.947  24.683  0.00  0.00    +0.143 A 
BRANCH  14  12
ATOM     12  C   UNL     1      -3.917   3.590  25.199  0.00  0.00    +0.023 C 
ATOM     16  C   UNL     1      -3.647   4.297  26.545  0.00  0.00    +0.019 C 
ATOM     17  C   UNL     1      -4.426   4.627  24.175  0.00  0.00    +0.019 C 
ATOM     18  C   UNL     1      -5.064   2.580  25.435  0.00  0.00    +0.019 C 
ENDBRANCH  14  12
ENDBRANCH   9  10
ENDBRANCH   6   9
TORSDOF 6
ENDMDL
MODEL 7
REMARK VINA RESULT:      -4.3      2.231      4.122
REMARK  Name = 56775465
REMARK  9 active torsions:
REMARK  status: ('A' for Active; 'I' for Inactive)
REMARK    1  A    between atoms: N_4  and  C_6
REMARK    2  A    between atoms: N_4  and  C_11
REMARK    3  A    between atoms: C_6  and  C_9
REMARK    4  A    between atoms: C_9  and  C_10
REMARK    5  A    between atoms: C_11  and  C_15
REMARK    6  A    between atoms: C_12  and  C_14
REMARK    7  A    between atoms: C_12  and  C_16
REMARK    8  A    between atoms: C_12  and  C_17
REMARK    9  A    between atoms: C_12  and  C_18
REMARK                            x       y       z     vdW  Elec       q    Type
REMARK                         _______ _______ _______ _____ _____    ______ ____
ROOT
ATOM      2  O   UNL     1      -5.806   4.437  25.776  0.00  0.00    -0.376 OA
ATOM      6  C   UNL     1      -4.369   3.077  24.976  0.00  0.00    +0.072 C 
ATOM      7  C   UNL     1      -4.368   4.318  25.861  0.00  0.00    +0.184 C 
ATOM      8  C   UNL     1      -5.888   3.213  25.012  0.00  0.00    +0.184 C 
ENDROOT
BRANCH   6   4
ATOM      4  N   UNL     1      -3.983   1.925  25.780  0.00  0.00    -0.302 NA
ATOM     24  H   UNL     1      -3.020   1.614  25.654  0.00  0.00    +0.123 HD
BRANCH   4  11
ATOM     11  C   UNL     1      -4.900   0.816  25.528  0.00  0.00    +0.117 C 
BRANCH  11  15
ATOM      1  F   UNL     1      -2.164  -3.839  23.917  0.00  0.00    -0.205 F 
ATOM     15  C   UNL     1      -4.168  -0.428  25.097  0.00  0.00    -0.033 A 
ATOM     19  C   UNL     1      -3.058  -0.868  25.817  0.00  0.00    +0.008 A 
ATOM     20  C   UNL     1      -4.602  -1.139  23.979  0.00  0.00    +0.008 A 
ATOM     21  C   UNL     1      -2.380  -2.020  25.418  0.00  0.00    +0.038 A 
ATOM     22  C   UNL     1      -3.925  -2.292  23.580  0.00  0.00    +0.038 A 
ATOM     23  C   UNL     1      -2.814  -2.732  24.300  0.00  0.00    +0.123 A 
ENDBRANCH  11  15
ENDBRANCH   4  11
ENDBRANCH   6   4
BRANCH   6   9
ATOM      9  C   UNL     1      -3.652   3.128  23.621  0.00  0.00    +0.085 C 
BRANCH   9  10
ATOM      3  O   UNL     1      -0.240   2.306  24.281  0.00  0.00    -0.359 OA
ATOM      5  N   UNL     1      -1.351   3.132  24.404  0.00  0.00    -0.083 NA
ATOM     10  C   UNL     1      -2.313   2.522  23.707  0.00  0.00    +0.086 A 
ATOM     13  C   UNL     1      -1.872   1.319  23.128  0.00  0.00    +0.071 A 
ATOM     14  C   UNL     1      -0.562   1.230  23.519  0.00  0.00    +0.143 A 
BRANCH  14  12
ATOM     12  C   UNL     1       0.554   0.202  23.275  0.00  0.00    +0.023 C 
ATOM     16  C   UNL     1       1.930   0.871  23.472  0.00  0.00    +0.019 C 
ATOM     17  C   UNL     1       0.411  -0.967  24.274  0.00  0.00    +0.019 C 
ATOM     18  C   UNL     1       0.541  -0.409  21.854  0.00  0.00    +0.019 C 
ENDBRANCH  14  12
ENDBRANCH   9  10
ENDBRANCH   6   9
TORSDOF 6
ENDMDL
MODEL 8
REMARK VINA RESULT:      -4.2      3.092      5.507
REMARK  Name = 56775465
REMARK  9 active torsions:
REMARK  status: ('A' for Active; 'I' for Inactive)
REMARK    1  A    between atoms: N_4  and  C_6
REMARK    2  A    between atoms: N_4  and  C_11
REMARK    3  A    between atoms: C_6  and  C_9
REMARK    4  A    between atoms: C_9  and  C_10
REMARK    5  A    between atoms: C_11  and  C_15
REMARK    6  A    between atoms: C_12  and  C_14
REMARK    7  A    between atoms: C_12  and  C_16
REMARK    8  A    between atoms: C_12  and  C_17
REMARK    9  A    between atoms: C_12  and  C_18
REMARK                            x       y       z     vdW  Elec       q    Type
REMARK                         _______ _______ _______ _____ _____    ______ ____
ROOT
ATOM      2  O   UNL     1      -2.108  -1.836  25.618  0.00  0.00    -0.376 OA
ATOM      6  C   UNL     1      -0.894  -0.617  24.355  0.00  0.00    +0.072 C 
ATOM      7  C   UNL     1      -1.292  -0.661  25.826  0.00  0.00    +0.184 C 
ATOM      8  C   UNL     1      -1.697  -1.908  24.234  0.00  0.00    +0.184 C 
ENDROOT
BRANCH   6   4
ATOM      4  N   UNL     1       0.523  -0.934  24.241  0.00  0.00    -0.302 NA
ATOM     24  H   UNL     1       1.075  -0.753  25.079  0.00  0.00    +0.123 HD
BRANCH   4  11
ATOM     11  C   UNL     1       1.100  -0.218  23.105  0.00  0.00    +0.117 C 
BRANCH  11  15
ATOM      1  F   UNL     1       6.722   0.012  23.409  0.00  0.00    -0.205 F 
ATOM     15  C   UNL     1       2.602  -0.156  23.187  0.00  0.00    -0.033 A 
ATOM     19  C   UNL     1       3.319  -1.246  23.682  0.00  0.00    +0.008 A 
ATOM     20  C   UNL     1       3.277   0.989  22.766  0.00  0.00    +0.008 A 
ATOM     21  C   UNL     1       4.711  -1.188  23.758  0.00  0.00    +0.038 A 
ATOM     22  C   UNL     1       4.669   1.046  22.841  0.00  0.00    +0.038 A 
ATOM     23  C   UNL     1       5.385  -0.043  23.337  0.00  0.00    +0.123 A 
ENDBRANCH  11  15
ENDBRANCH   4  11
ENDBRANCH   6   4
BRANCH   6   9
ATOM      9  C   UNL     1      -1.306   0.595  23.508  0.00  0.00    +0.085 C 
BRANCH   9  10
ATOM      3  O   UNL     1      -3.263   2.988  25.298  0.00  0.00    -0.359 OA
ATOM      5  N   UNL     1      -2.058   2.522  24.785  0.00  0.00    -0.083 NA
ATOM     10  C   UNL     1      -2.363   1.373  24.176  0.00  0.00    +0.086 A 
ATOM     13  C   UNL     1      -3.732   1.066  24.269  0.00  0.00    +0.071 A 
ATOM     14  C   UNL     1      -4.252   2.112  24.984  0.00  0.00    +0.143 A 
BRANCH  14  12
ATOM     12  C   UNL     1      -5.665   2.468  25.474  0.00  0.00    +0.023 C 
ATOM     16  C   UNL     1      -5.808   4.001  25.581  0.00  0.00    +0.019 C 
ATOM     17  C   UNL     1      -6.712   1.930  24.475  0.00  0.00    +0.019 C 
ATOM     18  C   UNL     1      -6.013   1.878  26.860  0.00  0.00    +0.019 C 
ENDBRANCH  14  12
ENDBRANCH   9  10
ENDBRANCH   6   9
TORSDOF 6
ENDMDL
MODEL 9
REMARK VINA RESULT:      -4.2      2.152      4.829
REMARK  Name = 56775465
REMARK  9 active torsions:
REMARK  status: ('A' for Active; 'I' for Inactive)
REMARK    1  A    between atoms: N_4  and  C_6
REMARK    2  A    between atoms: N_4  and  C_11
REMARK    3  A    between atoms: C_6  and  C_9
REMARK    4  A    between atoms: C_9  and  C_10
REMARK    5  A    between atoms: C_11  and  C_15
REMARK    6  A    between atoms: C_12  and  C_14
REMARK    7  A    between atoms: C_12  and  C_16
REMARK    8  A    between atoms: C_12  and  C_17
REMARK    9  A    between atoms: C_12  and  C_18
REMARK                            x       y       z     vdW  Elec       q    Type
REMARK                         _______ _______ _______ _____ _____    ______ ____
ROOT
ATOM      2  O   UNL     1      -0.302  -2.644  25.136  0.00  0.00    -0.376 OA
ATOM      6  C   UNL     1      -1.147  -0.734  24.697  0.00  0.00    +0.072 C 
ATOM      7  C   UNL     1      -1.581  -2.020  25.391  0.00  0.00    +0.184 C 
ATOM      8  C   UNL     1       0.205  -1.424  24.551  0.00  0.00    +0.184 C 
ENDROOT
BRANCH   6   4
ATOM      4  N   UNL     1      -1.029   0.322  25.694  0.00  0.00    -0.302 NA
ATOM     24  H   UNL     1      -1.899   0.805  25.916  0.00  0.00    +0.123 HD
BRANCH   4  11
ATOM     11  C   UNL     1      -0.019   1.289  25.273  0.00  0.00    +0.117 C 
BRANCH  11  15
ATOM      1  F   UNL     1      -2.070   6.535  25.123  0.00  0.00    -0.205 F 
ATOM     15  C   UNL     1      -0.567   2.691  25.233  0.00  0.00    -0.033 A 
ATOM     19  C   UNL     1      -0.031   3.623  24.345  0.00  0.00    +0.008 A 
ATOM     20  C   UNL     1      -1.610   3.056  26.084  0.00  0.00    +0.008 A 
ATOM     21  C   UNL     1      -0.539   4.922  24.308  0.00  0.00    +0.038 A 
ATOM     22  C   UNL     1      -2.118   4.355  26.046  0.00  0.00    +0.038 A 
ATOM     23  C   UNL     1      -1.582   5.287  25.159  0.00  0.00    +0.123 A 
ENDBRANCH  11  15
ENDBRANCH   4  11
ENDBRANCH   6   4
BRANCH   6   9
ATOM      9  C   UNL     1      -1.891  -0.282  23.433  0.00  0.00    +0.085 C 
BRANCH   9  10
ATOM      3  O   UNL     1      -4.089   2.526  23.628  0.00  0.00    -0.359 OA
ATOM      5  N   UNL     1      -3.005   1.849  23.081  0.00  0.00    -0.083 NA
ATOM     10  C   UNL     1      -2.940   0.699  23.757  0.00  0.00    +0.086 A 
ATOM     13  C   UNL     1      -3.947   0.594  24.732  0.00  0.00    +0.071 A 
ATOM     14  C   UNL     1      -4.641   1.769  24.610  0.00  0.00    +0.143 A 
BRANCH  14  12
ATOM     12  C   UNL     1      -5.861   2.363  25.332  0.00  0.00    +0.023 C 
ATOM     16  C   UNL     1      -5.674   3.886  25.501  0.00  0.00    +0.019 C 
ATOM     17  C   UNL     1      -7.136   2.098  24.503  0.00  0.00    +0.019 C 
ATOM     18  C   UNL     1      -6.102   1.773  26.741  0.00  0.00    +0.019 C 
ENDBRANCH  14  12
ENDBRANCH   9  10
ENDBRANCH   6   9
TORSDOF 6
ENDMDL
MODEL 10
REMARK VINA RESULT:      -4.0      3.119      5.372
REMARK  Name = 56775465
REMARK  9 active torsions:
REMARK  status: ('A' for Active; 'I' for Inactive)
REMARK    1  A    between atoms: N_4  and  C_6
REMARK    2  A    between atoms: N_4  and  C_11
REMARK    3  A    between atoms: C_6  and  C_9
REMARK    4  A    between atoms: C_9  and  C_10
REMARK    5  A    between atoms: C_11  and  C_15
REMARK    6  A    between atoms: C_12  and  C_14
REMARK    7  A    between atoms: C_12  and  C_16
REMARK    8  A    between atoms: C_12  and  C_17
REMARK    9  A    between atoms: C_12  and  C_18
REMARK                            x       y       z     vdW  Elec       q    Type
REMARK                         _______ _______ _______ _____ _____    ______ ____
ROOT
ATOM      2  O   UNL     1       0.096   2.117  25.778  0.00  0.00    -0.376 OA
ATOM      6  C   UNL     1      -0.354   0.792  24.166  0.00  0.00    +0.072 C 
ATOM      7  C   UNL     1       0.532   2.009  24.404  0.00  0.00    +0.184 C 
ATOM      8  C   UNL     1      -0.693   0.913  25.649  0.00  0.00    +0.184 C 
ENDROOT
BRANCH   6   4
ATOM      4  N   UNL     1       0.493  -0.377  23.973  0.00  0.00    -0.302 NA
ATOM     24  H   UNL     1       1.122  -0.587  24.748  0.00  0.00    +0.123 HD
BRANCH   4  11
ATOM     11  C   UNL     1       1.260  -0.234  22.738  0.00  0.00    +0.117 C 
BRANCH  11  15
ATOM      1  F   UNL     1       6.807  -0.083  23.717  0.00  0.00    -0.205 F 
ATOM     15  C   UNL     1       2.742  -0.193  23.000  0.00  0.00    -0.033 A 
ATOM     19  C   UNL     1       3.376  -1.288  23.587  0.00  0.00    +0.008 A 
ATOM     20  C   UNL     1       3.481   0.938  22.654  0.00  0.00    +0.008 A 
ATOM     21  C   UNL     1       4.749  -1.251  23.830  0.00  0.00    +0.038 A 
ATOM     22  C   UNL     1       4.854   0.975  22.896  0.00  0.00    +0.038 A 
ATOM     23  C   UNL     1       5.488  -0.119  23.485  0.00  0.00    +0.123 A 
ENDBRANCH  11  15
ENDBRANCH   4  11
ENDBRANCH   6   4
BRANCH   6   9
ATOM      9  C   UNL     1      -1.488   0.886  23.137  0.00  0.00    +0.085 C 
BRANCH   9  10
ATOM      3  O   UNL     1      -4.617   0.202  24.718  0.00  0.00    -0.359 OA
ATOM      5  N   UNL     1      -3.429  -0.200  24.119  0.00  0.00    -0.083 NA
ATOM     10  C   UNL     1      -2.802   0.936  23.798  0.00  0.00    +0.086 A 
ATOM     13  C   UNL     1      -3.539   2.075  24.167  0.00  0.00    +0.071 A 
ATOM     14  C   UNL     1      -4.671   1.559  24.741  0.00  0.00    +0.143 A 
BRANCH  14  12
ATOM     12  C   UNL     1      -5.925   2.185  25.372  0.00  0.00    +0.023 C 
ATOM     16  C   UNL     1      -5.694   3.695  25.597  0.00  0.00    +0.019 C 
ATOM     17  C   UNL     1      -7.133   1.992  24.430  0.00  0.00    +0.019 C 
ATOM     18  C   UNL     1      -6.309   1.573  26.738  0.00  0.00    +0.019 C 
ENDBRANCH  14  12
ENDBRANCH   9  10
ENDBRANCH   6   9
TORSDOF 6
ENDMDL
