MODEL 1
REMARK VINA RESULT:      -0.0      0.000      0.000
REMARK  Name = 45783899
REMARK  9 active torsions:
REMARK  status: ('A' for Active; 'I' for Inactive)
REMARK    1  A    between atoms: N_2  and  C_12
REMARK    2  A    between atoms: C_7  and  C_11
REMARK    3  A    between atoms: C_8  and  C_12
REMARK    4  A    between atoms: C_10  and  C_15
REMARK    5  A    between atoms: C_11  and  C_16
REMARK    6  A    between atoms: C_11  and  C_17
REMARK    7  A    between atoms: C_14  and  C_20
REMARK    8  A    between atoms: C_15  and  C_23
REMARK    9  A    between atoms: C_26  and  C_28
REMARK                            x       y       z     vdW  Elec       q    Type
REMARK                         _______ _______ _______ _____ _____    ______ ____
ROOT
ATOM      7  C   UNL     1      16.806  -7.674  29.686  0.00  0.00    +0.000 C 
ATOM      8  C   UNL     1      17.102  -6.190  30.020  0.00  0.00    +0.029 C 
ATOM      9  C   UNL     1      17.343  -8.027  28.291  0.00  0.00    +0.012 C 
ATOM     10  C   UNL     1      16.726  -7.146  27.189  0.00  0.00    +0.024 C 
ATOM     13  C   UNL     1      16.921  -5.270  28.836  0.00  0.00    -0.023 C 
ATOM     14  C   UNL     1      16.739  -5.679  27.566  0.00  0.00    -0.073 C 
ATOM     20  C   UNL     1      16.582  -4.689  26.446  0.00  0.00    +0.039 C 
ENDROOT
BRANCH   7  11
ATOM     11  C   UNL     1      17.405  -8.622  30.729  0.00  0.00    -0.013 C 
ATOM     16  C   UNL     1      16.720  -9.984  30.665  0.00  0.00    +0.007 C 
ATOM     17  C   UNL     1      17.283  -8.021  32.127  0.00  0.00    +0.007 C 
ENDBRANCH   7  11
BRANCH   8  12
ATOM     12  C   UNL     1      16.232  -5.700  31.183  0.00  0.00    +0.092 C 
BRANCH  12   2
ATOM      2  N   UNL     1      14.949  -6.404  31.201  0.00  0.00    -0.299 NA
ATOM      3  N   UNL     1      12.228  -6.847  31.948  0.00  0.00    -0.313 N 
ATOM      5  N   UNL     1      10.615  -8.459  32.580  0.00  0.00    -0.240 NA
ATOM     18  C   UNL     1      13.884  -5.545  30.670  0.00  0.00    +0.103 C 
ATOM     19  C   UNL     1      14.615  -6.829  32.565  0.00  0.00    +0.103 C 
ATOM     21  C   UNL     1      12.546  -6.290  30.629  0.00  0.00    +0.122 C 
ATOM     22  C   UNL     1      13.301  -7.616  32.589  0.00  0.00    +0.122 C 
ATOM     24  C   UNL     1      10.905  -7.178  32.261  0.00  0.00    +0.121 A 
ATOM     25  C   UNL     1       9.969  -6.157  32.221  0.00  0.00    +0.043 A 
ATOM     27  C   UNL     1       8.651  -6.471  32.529  0.00  0.00    +0.005 A 
ATOM     29  C   UNL     1       9.322  -8.727  32.873  0.00  0.00    +0.113 A 
ATOM     30  C   UNL     1       8.312  -7.778  32.862  0.00  0.00    +0.020 A 
ENDBRANCH  12   2
ENDBRANCH   8  12
BRANCH  10  15
ATOM     15  C   UNL     1      15.308  -7.611  26.840  0.00  0.00    +0.105 C 
BRANCH  15  23
ATOM      1  O   UNL     1      14.221  -9.021  25.172  0.00  0.00    -0.425 OA
ATOM      4  N   UNL     1      16.275  -9.697  25.744  0.00  0.00    -0.112 NA
ATOM      6  N   UNL     1      15.782 -10.579  24.801  0.00  0.00    -0.113 NA
ATOM     23  C   UNL     1      15.330  -8.804  25.929  0.00  0.00    +0.218 A 
ATOM     26  C   UNL     1      14.581 -10.147  24.497  0.00  0.00    +0.214 A 
ATOM     28  C   UNL     1      13.600 -10.696  23.553  0.00  0.00    +0.111 C 
ENDBRANCH  15  23
ENDBRANCH  10  15
TORSDOF 5
ENDMDL
MODEL 2
REMARK VINA RESULT:       0.3     16.114     20.115
REMARK  Name = 45783899
REMARK  9 active torsions:
REMARK  status: ('A' for Active; 'I' for Inactive)
REMARK    1  A    between atoms: N_2  and  C_12
REMARK    2  A    between atoms: C_7  and  C_11
REMARK    3  A    between atoms: C_8  and  C_12
REMARK    4  A    between atoms: C_10  and  C_15
REMARK    5  A    between atoms: C_11  and  C_16
REMARK    6  A    between atoms: C_11  and  C_17
REMARK    7  A    between atoms: C_14  and  C_20
REMARK    8  A    between atoms: C_15  and  C_23
REMARK    9  A    between atoms: C_26  and  C_28
REMARK                            x       y       z     vdW  Elec       q    Type
REMARK                         _______ _______ _______ _____ _____    ______ ____
ROOT
ATOM      7  C   UNL     1      -3.252   0.981  24.720  0.00  0.00    +0.000 C 
ATOM      8  C   UNL     1      -3.628   1.679  23.389  0.00  0.00    +0.029 C 
ATOM      9  C   UNL     1      -4.438   1.011  25.696  0.00  0.00    +0.012 C 
ATOM     10  C   UNL     1      -4.897   2.446  26.011  0.00  0.00    +0.024 C 
ATOM     13  C   UNL     1      -4.470   2.917  23.589  0.00  0.00    -0.023 C 
ATOM     14  C   UNL     1      -5.034   3.283  24.755  0.00  0.00    -0.073 C 
ATOM     20  C   UNL     1      -5.870   4.528  24.857  0.00  0.00    +0.039 C 
ENDROOT
BRANCH   7  11
ATOM     11  C   UNL     1      -2.800  -0.466  24.495  0.00  0.00    -0.013 C 
ATOM     16  C   UNL     1      -4.002  -1.357  24.194  0.00  0.00    +0.007 C 
ATOM     17  C   UNL     1      -2.036  -0.980  25.711  0.00  0.00    +0.007 C 
ENDBRANCH   7  11
BRANCH   8  12
ATOM     12  C   UNL     1      -2.378   2.038  22.579  0.00  0.00    +0.092 C 
BRANCH  12   2
ATOM      2  N   UNL     1      -1.197   1.374  23.130  0.00  0.00    -0.299 NA
ATOM      3  N   UNL     1       1.541   0.564  23.208  0.00  0.00    -0.313 N 
ATOM      5  N   UNL     1       3.043  -1.198  23.700  0.00  0.00    -0.240 NA
ATOM     18  C   UNL     1      -0.140   2.354  23.411  0.00  0.00    +0.103 C 
ATOM     19  C   UNL     1      -0.698   0.354  22.200  0.00  0.00    +0.103 C 
ATOM     21  C   UNL     1       1.082   1.679  24.042  0.00  0.00    +0.122 C 
ATOM     22  C   UNL     1       0.504  -0.387  22.790  0.00  0.00    +0.122 C 
ATOM     24  C   UNL     1       2.852   0.091  23.342  0.00  0.00    +0.121 A 
ATOM     25  C   UNL     1       3.878   0.989  23.097  0.00  0.00    +0.043 A 
ATOM     27  C   UNL     1       5.185   0.534  23.226  0.00  0.00    +0.005 A 
ATOM     29  C   UNL     1       4.327  -1.605  23.816  0.00  0.00    +0.113 A 
ATOM     30  C   UNL     1       5.423  -0.786  23.593  0.00  0.00    +0.020 A 
ENDBRANCH  12   2
ENDBRANCH   8  12
BRANCH  10  15
ATOM     15  C   UNL     1      -3.957   3.118  27.018  0.00  0.00    +0.105 C 
BRANCH  15  23
ATOM      1  O   UNL     1      -2.709   4.761  25.717  0.00  0.00    -0.425 OA
ATOM      4  N   UNL     1      -1.514   2.968  26.315  0.00  0.00    -0.112 NA
ATOM      6  N   UNL     1      -0.690   3.807  25.589  0.00  0.00    -0.113 NA
ATOM     23  C   UNL     1      -2.682   3.565  26.364  0.00  0.00    +0.218 A 
ATOM     26  C   UNL     1      -1.429   4.841  25.260  0.00  0.00    +0.214 A 
ATOM     28  C   UNL     1      -1.074   6.038  24.488  0.00  0.00    +0.111 C 
ENDBRANCH  15  23
ENDBRANCH  10  15
TORSDOF 5
ENDMDL
MODEL 3
REMARK VINA RESULT:       2.1     15.853     19.815
REMARK  Name = 45783899
REMARK  9 active torsions:
REMARK  status: ('A' for Active; 'I' for Inactive)
REMARK    1  A    between atoms: N_2  and  C_12
REMARK    2  A    between atoms: C_7  and  C_11
REMARK    3  A    between atoms: C_8  and  C_12
REMARK    4  A    between atoms: C_10  and  C_15
REMARK    5  A    between atoms: C_11  and  C_16
REMARK    6  A    between atoms: C_11  and  C_17
REMARK    7  A    between atoms: C_14  and  C_20
REMARK    8  A    between atoms: C_15  and  C_23
REMARK    9  A    between atoms: C_26  and  C_28
REMARK                            x       y       z     vdW  Elec       q    Type
REMARK                         _______ _______ _______ _____ _____    ______ ____
ROOT
ATOM      7  C   UNL     1      -3.208   1.388  23.480  0.00  0.00    +0.000 C 
ATOM      8  C   UNL     1      -3.951   2.743  23.598  0.00  0.00    +0.029 C 
ATOM      9  C   UNL     1      -4.203   0.222  23.572  0.00  0.00    +0.012 C 
ATOM     10  C   UNL     1      -4.993   0.231  24.893  0.00  0.00    +0.024 C 
ATOM     13  C   UNL     1      -5.066   2.719  24.617  0.00  0.00    -0.023 C 
ATOM     14  C   UNL     1      -5.536   1.609  25.215  0.00  0.00    -0.073 C 
ATOM     20  C   UNL     1      -6.662   1.679  26.209  0.00  0.00    +0.039 C 
ENDROOT
BRANCH   7  11
ATOM     11  C   UNL     1      -2.409   1.290  22.177  0.00  0.00    -0.013 C 
ATOM     16  C   UNL     1      -0.918   1.165  22.476  0.00  0.00    +0.007 C 
ATOM     17  C   UNL     1      -2.683   2.501  21.291  0.00  0.00    +0.007 C 
ENDBRANCH   7  11
BRANCH   8  12
ATOM     12  C   UNL     1      -2.978   3.880  23.933  0.00  0.00    +0.092 C 
BRANCH  12   2
ATOM      2  N   UNL     1      -1.805   3.365  24.639  0.00  0.00    -0.299 NA
ATOM      3  N   UNL     1      -0.055   2.998  26.867  0.00  0.00    -0.313 N 
ATOM      5  N   UNL     1       2.198   2.864  27.577  0.00  0.00    -0.240 NA
ATOM     18  C   UNL     1      -2.214   2.530  25.775  0.00  0.00    +0.103 C 
ATOM     19  C   UNL     1      -0.962   4.470  25.110  0.00  0.00    +0.103 C 
ATOM     21  C   UNL     1      -0.995   1.937  26.489  0.00  0.00    +0.122 C 
ATOM     22  C   UNL     1       0.299   3.943  25.801  0.00  0.00    +0.122 C 
ATOM     24  C   UNL     1       0.884   2.765  27.877  0.00  0.00    +0.121 A 
ATOM     25  C   UNL     1       0.397   2.443  29.134  0.00  0.00    +0.043 A 
ATOM     27  C   UNL     1       1.318   2.209  30.148  0.00  0.00    +0.005 A 
ATOM     29  C   UNL     1       3.064   2.629  28.589  0.00  0.00    +0.113 A 
ATOM     30  C   UNL     1       2.679   2.301  29.879  0.00  0.00    +0.020 A 
ENDBRANCH  12   2
ENDBRANCH   8  12
BRANCH  10  15
ATOM     15  C   UNL     1      -4.143  -0.308  26.049  0.00  0.00    +0.105 C 
BRANCH  15  23
ATOM      1  O   UNL     1      -1.826  -0.972  25.676  0.00  0.00    -0.425 OA
ATOM      4  N   UNL     1      -3.330  -2.502  25.042  0.00  0.00    -0.112 NA
ATOM      6  N   UNL     1      -2.071  -3.005  24.775  0.00  0.00    -0.113 NA
ATOM     23  C   UNL     1      -3.138  -1.314  25.567  0.00  0.00    +0.218 A 
ATOM     26  C   UNL     1      -1.224  -2.079  25.160  0.00  0.00    +0.214 A 
ATOM     28  C   UNL     1       0.243  -2.074  25.112  0.00  0.00    +0.111 C 
ENDBRANCH  15  23
ENDBRANCH  10  15
TORSDOF 5
ENDMDL
MODEL 4
REMARK VINA RESULT:       2.8     15.843     19.857
REMARK  Name = 45783899
REMARK  9 active torsions:
REMARK  status: ('A' for Active; 'I' for Inactive)
REMARK    1  A    between atoms: N_2  and  C_12
REMARK    2  A    between atoms: C_7  and  C_11
REMARK    3  A    between atoms: C_8  and  C_12
REMARK    4  A    between atoms: C_10  and  C_15
REMARK    5  A    between atoms: C_11  and  C_16
REMARK    6  A    between atoms: C_11  and  C_17
REMARK    7  A    between atoms: C_14  and  C_20
REMARK    8  A    between atoms: C_15  and  C_23
REMARK    9  A    between atoms: C_26  and  C_28
REMARK                            x       y       z     vdW  Elec       q    Type
REMARK                         _______ _______ _______ _____ _____    ______ ____
ROOT
ATOM      7  C   UNL     1      -2.609   1.572  25.128  0.00  0.00    +0.000 C 
ATOM      8  C   UNL     1      -1.786   0.656  24.188  0.00  0.00    +0.029 C 
ATOM      9  C   UNL     1      -3.398   0.730  26.142  0.00  0.00    +0.012 C 
ATOM     10  C   UNL     1      -4.360  -0.257  25.458  0.00  0.00    +0.024 C 
ATOM     13  C   UNL     1      -2.528  -0.597  23.785  0.00  0.00    -0.023 C 
ATOM     14  C   UNL     1      -3.685  -1.013  24.331  0.00  0.00    -0.073 C 
ATOM     20  C   UNL     1      -4.346  -2.284  23.875  0.00  0.00    +0.039 C 
ENDROOT
BRANCH   7  11
ATOM     11  C   UNL     1      -1.719   2.576  25.866  0.00  0.00    -0.013 C 
ATOM     16  C   UNL     1      -1.470   3.805  24.997  0.00  0.00    +0.007 C 
ATOM     17  C   UNL     1      -0.400   1.923  26.269  0.00  0.00    +0.007 C 
ENDBRANCH   7  11
BRANCH   8  12
ATOM     12  C   UNL     1      -1.340   1.411  22.931  0.00  0.00    +0.092 C 
BRANCH  12   2
ATOM      2  N   UNL     1       0.091   1.218  22.692  0.00  0.00    -0.299 NA
ATOM      3  N   UNL     1       2.728   0.285  23.269  0.00  0.00    -0.313 N 
ATOM      5  N   UNL     1       5.037   0.802  23.217  0.00  0.00    -0.240 NA
ATOM     18  C   UNL     1       0.409  -0.212  22.602  0.00  0.00    +0.103 C 
ATOM     19  C   UNL     1       0.879   1.839  23.763  0.00  0.00    +0.103 C 
ATOM     21  C   UNL     1       1.894  -0.427  22.295  0.00  0.00    +0.122 C 
ATOM     22  C   UNL     1       2.380   1.693  23.495  0.00  0.00    +0.122 C 
ATOM     24  C   UNL     1       4.060  -0.102  23.455  0.00  0.00    +0.121 A 
ATOM     25  C   UNL     1       4.291  -1.402  23.874  0.00  0.00    +0.043 A 
ATOM     27  C   UNL     1       5.609  -1.800  24.063  0.00  0.00    +0.005 A 
ATOM     29  C   UNL     1       6.306   0.379  23.412  0.00  0.00    +0.113 A 
ATOM     30  C   UNL     1       6.642  -0.899  23.829  0.00  0.00    +0.020 A 
ENDBRANCH  12   2
ENDBRANCH   8  12
BRANCH  10  15
ATOM     15  C   UNL     1      -5.622   0.457  24.960  0.00  0.00    +0.105 C 
BRANCH  15  23
ATOM      1  O   UNL     1      -4.861   2.642  24.189  0.00  0.00    -0.425 OA
ATOM      4  N   UNL     1      -5.982   2.694  26.124  0.00  0.00    -0.112 NA
ATOM      6  N   UNL     1      -5.613   3.988  25.810  0.00  0.00    -0.113 NA
ATOM     23  C   UNL     1      -5.522   1.943  25.150  0.00  0.00    +0.218 A 
ATOM     26  C   UNL     1      -4.961   3.911  24.673  0.00  0.00    +0.214 A 
ATOM     28  C   UNL     1      -4.342   4.976  23.875  0.00  0.00    +0.111 C 
ENDBRANCH  15  23
ENDBRANCH  10  15
TORSDOF 5
ENDMDL
MODEL 5
REMARK VINA RESULT:       3.0      2.921      3.902
REMARK  Name = 45783899
REMARK  9 active torsions:
REMARK  status: ('A' for Active; 'I' for Inactive)
REMARK    1  A    between atoms: N_2  and  C_12
REMARK    2  A    between atoms: C_7  and  C_11
REMARK    3  A    between atoms: C_8  and  C_12
REMARK    4  A    between atoms: C_10  and  C_15
REMARK    5  A    between atoms: C_11  and  C_16
REMARK    6  A    between atoms: C_11  and  C_17
REMARK    7  A    between atoms: C_14  and  C_20
REMARK    8  A    between atoms: C_15  and  C_23
REMARK    9  A    between atoms: C_26  and  C_28
REMARK                            x       y       z     vdW  Elec       q    Type
REMARK                         _______ _______ _______ _____ _____    ______ ____
ROOT
ATOM      7  C   UNL     1      16.416  -6.803  27.756  0.00  0.00    +0.000 C 
ATOM      8  C   UNL     1      17.082  -5.907  28.830  0.00  0.00    +0.029 C 
ATOM      9  C   UNL     1      16.966  -6.467  26.361  0.00  0.00    +0.012 C 
ATOM     10  C   UNL     1      16.732  -4.994  25.981  0.00  0.00    +0.024 C 
ATOM     13  C   UNL     1      17.283  -4.482  28.370  0.00  0.00    -0.023 C 
ATOM     14  C   UNL     1      17.119  -4.053  27.105  0.00  0.00    -0.073 C 
ATOM     20  C   UNL     1      17.356  -2.616  26.735  0.00  0.00    +0.039 C 
ENDROOT
BRANCH   7  11
ATOM     11  C   UNL     1      16.621  -8.292  28.051  0.00  0.00    -0.013 C 
ATOM     16  C   UNL     1      15.293  -9.038  27.964  0.00  0.00    +0.007 C 
ATOM     17  C   UNL     1      17.258  -8.479  29.425  0.00  0.00    +0.007 C 
ENDBRANCH   7  11
BRANCH   8  12
ATOM     12  C   UNL     1      16.274  -5.912  30.133  0.00  0.00    +0.092 C 
BRANCH  12   2
ATOM      2  N   UNL     1      15.127  -6.813  30.026  0.00  0.00    -0.299 NA
ATOM      3  N   UNL     1      12.737  -8.107  30.905  0.00  0.00    -0.313 N 
ATOM      5  N   UNL     1      11.526 -10.140  30.963  0.00  0.00    -0.240 NA
ATOM     18  C   UNL     1      13.870  -6.061  30.132  0.00  0.00    +0.103 C 
ATOM     19  C   UNL     1      15.182  -7.843  31.070  0.00  0.00    +0.103 C 
ATOM     21  C   UNL     1      12.660  -6.985  29.965  0.00  0.00    +0.122 C 
ATOM     22  C   UNL     1      14.016  -8.827  30.934  0.00  0.00    +0.122 C 
ATOM     24  C   UNL     1      11.576  -8.817  31.234  0.00  0.00    +0.121 A 
ATOM     25  C   UNL     1      10.543  -8.105  31.823  0.00  0.00    +0.043 A 
ATOM     27  C   UNL     1       9.385  -8.796  32.156  0.00  0.00    +0.005 A 
ATOM     29  C   UNL     1      10.382 -10.779  31.300  0.00  0.00    +0.113 A 
ATOM     30  C   UNL     1       9.294 -10.159  31.892  0.00  0.00    +0.020 A 
ENDBRANCH  12   2
ENDBRANCH   8  12
BRANCH  10  15
ATOM     15  C   UNL     1      15.282  -4.760  25.544  0.00  0.00    +0.105 C 
BRANCH  15  23
ATOM      1  O   UNL     1      16.361  -3.207  24.004  0.00  0.00    -0.425 OA
ATOM      4  N   UNL     1      14.174  -3.495  23.631  0.00  0.00    -0.112 NA
ATOM      6  N   UNL     1      14.653  -2.597  22.695  0.00  0.00    -0.113 NA
ATOM     23  C   UNL     1      15.206  -3.823  24.373  0.00  0.00    +0.218 A 
ATOM     26  C   UNL     1      15.933  -2.459  22.950  0.00  0.00    +0.214 A 
ATOM     28  C   UNL     1      16.938  -1.630  22.273  0.00  0.00    +0.111 C 
ENDBRANCH  15  23
ENDBRANCH  10  15
TORSDOF 5
ENDMDL
MODEL 6
REMARK VINA RESULT:       3.3     14.308     18.404
REMARK  Name = 45783899
REMARK  9 active torsions:
REMARK  status: ('A' for Active; 'I' for Inactive)
REMARK    1  A    between atoms: N_2  and  C_12
REMARK    2  A    between atoms: C_7  and  C_11
REMARK    3  A    between atoms: C_8  and  C_12
REMARK    4  A    between atoms: C_10  and  C_15
REMARK    5  A    between atoms: C_11  and  C_16
REMARK    6  A    between atoms: C_11  and  C_17
REMARK    7  A    between atoms: C_14  and  C_20
REMARK    8  A    between atoms: C_15  and  C_23
REMARK    9  A    between atoms: C_26  and  C_28
REMARK                            x       y       z     vdW  Elec       q    Type
REMARK                         _______ _______ _______ _____ _____    ______ ____
ROOT
ATOM      7  C   UNL     1      -1.496   0.556  25.068  0.00  0.00    +0.000 C 
ATOM      8  C   UNL     1      -2.372   1.382  24.094  0.00  0.00    +0.029 C 
ATOM      9  C   UNL     1      -1.516   1.183  26.471  0.00  0.00    +0.012 C 
ATOM     10  C   UNL     1      -1.005   2.635  26.467  0.00  0.00    +0.024 C 
ATOM     13  C   UNL     1      -2.249   2.873  24.307  0.00  0.00    -0.023 C 
ATOM     14  C   UNL     1      -1.630   3.451  25.353  0.00  0.00    -0.073 C 
ATOM     20  C   UNL     1      -1.569   4.947  25.490  0.00  0.00    +0.039 C 
ENDROOT
BRANCH   7  11
ATOM     11  C   UNL     1      -1.953  -0.904  25.145  0.00  0.00    -0.013 C 
ATOM     16  C   UNL     1      -3.154  -1.036  26.077  0.00  0.00    +0.007 C 
ATOM     17  C   UNL     1      -0.807  -1.797  25.610  0.00  0.00    +0.007 C 
ENDBRANCH   7  11
BRANCH   8  12
ATOM     12  C   UNL     1      -2.044   1.047  22.634  0.00  0.00    +0.092 C 
BRANCH  12   2
ATOM      2  N   UNL     1      -0.596   0.970  22.435  0.00  0.00    -0.299 NA
ATOM      3  N   UNL     1       2.090   0.245  23.080  0.00  0.00    -0.313 N 
ATOM      5  N   UNL     1       4.351   0.945  23.097  0.00  0.00    -0.240 NA
ATOM     18  C   UNL     1      -0.163  -0.429  22.345  0.00  0.00    +0.103 C 
ATOM     19  C   UNL     1       0.111   1.643  23.532  0.00  0.00    +0.103 C 
ATOM     21  C   UNL     1       1.342  -0.523  22.078  0.00  0.00    +0.122 C 
ATOM     22  C   UNL     1       1.625   1.618  23.305  0.00  0.00    +0.122 C 
ATOM     24  C   UNL     1       3.443  -0.036  23.300  0.00  0.00    +0.121 A 
ATOM     25  C   UNL     1       3.765  -1.318  23.718  0.00  0.00    +0.043 A 
ATOM     27  C   UNL     1       5.105  -1.611  23.942  0.00  0.00    +0.005 A 
ATOM     29  C   UNL     1       5.644   0.622  23.324  0.00  0.00    +0.113 A 
ATOM     30  C   UNL     1       6.069  -0.629  23.743  0.00  0.00    +0.020 A 
ENDBRANCH  12   2
ENDBRANCH   8  12
BRANCH  10  15
ATOM     15  C   UNL     1       0.525   2.683  26.389  0.00  0.00    +0.105 C 
BRANCH  15  23
ATOM      1  O   UNL     1       0.318   2.455  28.809  0.00  0.00    -0.425 OA
ATOM      4  N   UNL     1       2.387   2.935  28.108  0.00  0.00    -0.112 NA
ATOM      6  N   UNL     1       2.415   2.837  29.487  0.00  0.00    -0.113 NA
ATOM     23  C   UNL     1       1.143   2.705  27.757  0.00  0.00    +0.218 A 
ATOM     26  C   UNL     1       1.186   2.556  29.853  0.00  0.00    +0.214 A 
ATOM     28  C   UNL     1       0.636   2.342  31.197  0.00  0.00    +0.111 C 
ENDBRANCH  15  23
ENDBRANCH  10  15
TORSDOF 5
ENDMDL
MODEL 7
REMARK VINA RESULT:       3.6     16.012     20.078
REMARK  Name = 45783899
REMARK  9 active torsions:
REMARK  status: ('A' for Active; 'I' for Inactive)
REMARK    1  A    between atoms: N_2  and  C_12
REMARK    2  A    between atoms: C_7  and  C_11
REMARK    3  A    between atoms: C_8  and  C_12
REMARK    4  A    between atoms: C_10  and  C_15
REMARK    5  A    between atoms: C_11  and  C_16
REMARK    6  A    between atoms: C_11  and  C_17
REMARK    7  A    between atoms: C_14  and  C_20
REMARK    8  A    between atoms: C_15  and  C_23
REMARK    9  A    between atoms: C_26  and  C_28
REMARK                            x       y       z     vdW  Elec       q    Type
REMARK                         _______ _______ _______ _____ _____    ______ ____
ROOT
ATOM      7  C   UNL     1      -4.134   0.305  25.009  0.00  0.00    +0.000 C 
ATOM      8  C   UNL     1      -2.863   0.538  24.154  0.00  0.00    +0.029 C 
ATOM      9  C   UNL     1      -5.393   0.683  24.214  0.00  0.00    +0.012 C 
ATOM     10  C   UNL     1      -5.375   2.153  23.758  0.00  0.00    +0.024 C 
ATOM     13  C   UNL     1      -2.935   1.795  23.318  0.00  0.00    -0.023 C 
ATOM     14  C   UNL     1      -4.045   2.536  23.141  0.00  0.00    -0.073 C 
ATOM     20  C   UNL     1      -4.027   3.767  22.277  0.00  0.00    +0.039 C 
ENDROOT
BRANCH   7  11
ATOM     11  C   UNL     1      -4.238  -1.146  25.488  0.00  0.00    -0.013 C 
ATOM     16  C   UNL     1      -3.199  -1.424  26.570  0.00  0.00    +0.007 C 
ATOM     17  C   UNL     1      -4.068  -2.107  24.316  0.00  0.00    +0.007 C 
ENDBRANCH   7  11
BRANCH   8  12
ATOM     12  C   UNL     1      -1.606   0.581  25.031  0.00  0.00    +0.092 C 
BRANCH  12   2
ATOM      2  N   UNL     1      -0.401   0.437  24.214  0.00  0.00    -0.299 NA
ATOM      3  N   UNL     1       2.383   0.030  23.724  0.00  0.00    -0.313 N 
ATOM      5  N   UNL     1       4.254   0.688  22.432  0.00  0.00    -0.240 NA
ATOM     18  C   UNL     1       0.204  -0.885  24.419  0.00  0.00    +0.103 C 
ATOM     19  C   UNL     1       0.570   1.487  24.541  0.00  0.00    +0.103 C 
ATOM     21  C   UNL     1       1.435  -1.071  23.527  0.00  0.00    +0.122 C 
ATOM     22  C   UNL     1       1.813   1.381  23.653  0.00  0.00    +0.122 C 
ATOM     24  C   UNL     1       3.725  -0.137  23.363  0.00  0.00    +0.121 A 
ATOM     25  C   UNL     1       4.429  -1.151  23.993  0.00  0.00    +0.043 A 
ATOM     27  C   UNL     1       5.763  -1.329  23.645  0.00  0.00    +0.005 A 
ATOM     29  C   UNL     1       5.554   0.484  22.120  0.00  0.00    +0.113 A 
ATOM     30  C   UNL     1       6.344  -0.501  22.691  0.00  0.00    +0.020 A 
ENDBRANCH  12   2
ENDBRANCH   8  12
BRANCH  10  15
ATOM     15  C   UNL     1      -5.735   3.094  24.913  0.00  0.00    +0.105 C 
BRANCH  15  23
ATOM      1  O   UNL     1      -3.568   4.209  24.807  0.00  0.00    -0.425 OA
ATOM      4  N   UNL     1      -4.181   3.594  26.868  0.00  0.00    -0.112 NA
ATOM      6  N   UNL     1      -2.945   4.207  26.956  0.00  0.00    -0.113 NA
ATOM     23  C   UNL     1      -4.505   3.618  25.596  0.00  0.00    +0.218 A 
ATOM     26  C   UNL     1      -2.625   4.550  25.730  0.00  0.00    +0.214 A 
ATOM     28  C   UNL     1      -1.425   5.230  25.230  0.00  0.00    +0.111 C 
ENDBRANCH  15  23
ENDBRANCH  10  15
TORSDOF 5
ENDMDL
MODEL 8
REMARK VINA RESULT:       3.9     16.401     20.341
REMARK  Name = 45783899
REMARK  9 active torsions:
REMARK  status: ('A' for Active; 'I' for Inactive)
REMARK    1  A    between atoms: N_2  and  C_12
REMARK    2  A    between atoms: C_7  and  C_11
REMARK    3  A    between atoms: C_8  and  C_12
REMARK    4  A    between atoms: C_10  and  C_15
REMARK    5  A    between atoms: C_11  and  C_16
REMARK    6  A    between atoms: C_11  and  C_17
REMARK    7  A    between atoms: C_14  and  C_20
REMARK    8  A    between atoms: C_15  and  C_23
REMARK    9  A    between atoms: C_26  and  C_28
REMARK                            x       y       z     vdW  Elec       q    Type
REMARK                         _______ _______ _______ _____ _____    ______ ____
ROOT
ATOM      7  C   UNL     1      -3.706   2.771  23.212  0.00  0.00    +0.000 C 
ATOM      8  C   UNL     1      -2.279   2.590  23.789  0.00  0.00    +0.029 C 
ATOM      9  C   UNL     1      -4.301   4.112  23.667  0.00  0.00    +0.012 C 
ATOM     10  C   UNL     1      -4.377   4.227  25.200  0.00  0.00    +0.024 C 
ATOM     13  C   UNL     1      -2.149   3.084  25.211  0.00  0.00    -0.023 C 
ATOM     14  C   UNL     1      -3.081   3.804  25.862  0.00  0.00    -0.073 C 
ATOM     20  C   UNL     1      -2.858   4.266  27.275  0.00  0.00    +0.039 C 
ENDROOT
BRANCH   7  11
ATOM     11  C   UNL     1      -3.715   2.690  21.683  0.00  0.00    -0.013 C 
ATOM     16  C   UNL     1      -2.317   2.374  21.159  0.00  0.00    +0.007 C 
ATOM     17  C   UNL     1      -4.236   3.992  21.083  0.00  0.00    +0.007 C 
ENDBRANCH   7  11
BRANCH   8  12
ATOM     12  C   UNL     1      -1.835   1.125  23.716  0.00  0.00    +0.092 C 
BRANCH  12   2
ATOM      2  N   UNL     1      -0.439   1.029  23.287  0.00  0.00    -0.299 NA
ATOM      3  N   UNL     1       2.302   0.252  23.485  0.00  0.00    -0.313 N 
ATOM      5  N   UNL     1       4.549   0.917  23.149  0.00  0.00    -0.240 NA
ATOM     18  C   UNL     1      -0.051  -0.376  23.111  0.00  0.00    +0.103 C 
ATOM     19  C   UNL     1       0.445   1.674  24.264  0.00  0.00    +0.103 C 
ATOM     21  C   UNL     1       1.391  -0.489  22.607  0.00  0.00    +0.122 C 
ATOM     22  C   UNL     1       1.903   1.629  23.799  0.00  0.00    +0.122 C 
ATOM     24  C   UNL     1       3.668  -0.053  23.484  0.00  0.00    +0.121 A 
ATOM     25  C   UNL     1       4.030  -1.345  23.829  0.00  0.00    +0.043 A 
ATOM     27  C   UNL     1       5.383  -1.663  23.832  0.00  0.00    +0.005 A 
ATOM     29  C   UNL     1       5.856   0.570  23.163  0.00  0.00    +0.113 A 
ATOM     30  C   UNL     1       6.320  -0.692  23.493  0.00  0.00    +0.020 A 
ENDBRANCH  12   2
ENDBRANCH   8  12
BRANCH  10  15
ATOM     15  C   UNL     1      -5.562   3.430  25.756  0.00  0.00    +0.105 C 
BRANCH  15  23
ATOM      1  O   UNL     1      -4.467   1.254  25.887  0.00  0.00    -0.425 OA
ATOM      4  N   UNL     1      -6.264   1.296  24.555  0.00  0.00    -0.112 NA
ATOM      6  N   UNL     1      -5.748   0.014  24.535  0.00  0.00    -0.113 NA
ATOM     23  C   UNL     1      -5.485   1.984  25.357  0.00  0.00    +0.218 A 
ATOM     26  C   UNL     1      -4.700   0.035  25.326  0.00  0.00    +0.214 A 
ATOM     28  C   UNL     1      -3.770  -1.045  25.677  0.00  0.00    +0.111 C 
ENDBRANCH  15  23
ENDBRANCH  10  15
TORSDOF 5
ENDMDL
