MODEL 1
REMARK VINA RESULT:       4.8      0.000      0.000
REMARK  Name = 11883402
REMARK  9 active torsions:
REMARK  status: ('A' for Active; 'I' for Inactive)
REMARK    1  A    between atoms: O_6  and  C_15
REMARK    2  A    between atoms: O_6  and  C_19
REMARK    3  A    between atoms: N_9  and  C_14
REMARK    4  A    between atoms: N_10  and  C_20
REMARK    5  A    between atoms: N_11  and  C_21
REMARK    6  A    between atoms: C_24  and  C_25
REMARK    7  A    between atoms: C_25  and  C_30
REMARK    8  A    between atoms: C_25  and  C_31
REMARK    9  A    between atoms: C_32  and  C_35
REMARK                            x       y       z     vdW  Elec       q    Type
REMARK                         _______ _______ _______ _____ _____    ______ ____
ROOT
ATOM      4  O   UNL     1      -4.289   2.247  24.423  0.00  0.00    -0.368 OA
ATOM      5  O   UNL     1      -5.160   5.105  25.112  0.00  0.00    -0.368 OA
ATOM     12  C   UNL     1      -3.894   4.430  25.263  0.00  0.00    +0.173 C 
ATOM     13  C   UNL     1      -4.205   2.997  25.647  0.00  0.00    +0.192 C 
ATOM     14  C   UNL     1      -3.208   4.305  23.923  0.00  0.00    +0.131 C 
ATOM     15  C   UNL     1      -5.552   3.123  26.319  0.00  0.00    +0.235 C 
ATOM     16  C   UNL     1      -3.885   3.083  23.327  0.00  0.00    +0.185 C 
ATOM     17  C   UNL     1      -6.213   4.213  25.505  0.00  0.00    +0.207 C 
ENDROOT
BRANCH  14   9
ATOM      7  O   UNL     1      -1.719   1.991  23.124  0.00  0.00    -0.252 OA
ATOM      9  N   UNL     1      -1.790   4.097  24.078  0.00  0.00    -0.292 N 
ATOM     10  N   UNL     1       0.231   3.012  23.939  0.00  0.00    -0.269 N 
ATOM     18  C   UNL     1      -1.136   2.931  23.660  0.00  0.00    +0.304 C 
ATOM     36  H   UNL     1      -1.228   4.856  24.450  0.00  0.00    +0.151 HD
ATOM     37  H   UNL     1       0.555   3.865  24.389  0.00  0.00    +0.156 HD
BRANCH  10  20
ATOM     20  C   UNL     1       1.230   2.048  23.673  0.00  0.00    +0.035 A 
ATOM     22  C   UNL     1       2.499   2.454  23.258  0.00  0.00    +0.023 A 
ATOM     23  C   UNL     1       0.948   0.690  23.826  0.00  0.00    +0.023 A 
ATOM     24  C   UNL     1       3.202   0.144  23.148  0.00  0.00    -0.045 A 
ATOM     26  C   UNL     1       3.484   1.502  22.995  0.00  0.00    +0.006 A 
ATOM     27  C   UNL     1       1.934  -0.261  23.563  0.00  0.00    +0.006 A 
BRANCH  24  25
ATOM     25  C   UNL     1       4.257  -0.871  22.869  0.00  0.00    +0.013 C 
ATOM     30  C   UNL     1       5.666  -0.255  22.803  0.00  0.00    +0.012 C 
ATOM     31  C   UNL     1       4.240  -2.032  23.883  0.00  0.00    +0.012 C 
ENDBRANCH  24  25
ENDBRANCH  10  20
ENDBRANCH  14   9
BRANCH  15   6
ATOM      6  O   UNL     1      -6.299   1.928  26.311  0.00  0.00    -0.442 OA
BRANCH   6  19
ATOM      8  O   UNL     1      -6.542   0.785  24.346  0.00  0.00    -0.226 OA
ATOM     11  N   UNL     1      -4.813   0.296  25.846  0.00  0.00    -0.251 N 
ATOM     19  C   UNL     1      -5.931   0.968  25.391  0.00  0.00    +0.405 C 
ATOM     38  H   UNL     1      -4.445   0.593  26.747  0.00  0.00    +0.158 HD
BRANCH  11  21
ATOM     21  C   UNL     1      -4.114  -0.758  25.215  0.00  0.00    +0.037 A 
ATOM     28  C   UNL     1      -2.765  -0.971  25.501  0.00  0.00    +0.035 A 
ATOM     29  C   UNL     1      -4.773  -1.583  24.304  0.00  0.00    +0.023 A 
ATOM     32  C   UNL     1      -2.076  -2.010  24.876  0.00  0.00    +0.057 A 
ATOM     33  C   UNL     1      -4.084  -2.623  23.680  0.00  0.00    +0.002 A 
ATOM     34  C   UNL     1      -2.736  -2.837  23.966  0.00  0.00    +0.012 A 
BRANCH  32  35
ATOM      1  F   UNL     1       0.191  -2.016  24.113  0.00  0.00    -0.166 F 
ATOM      2  F   UNL     1      -0.354  -3.510  25.588  0.00  0.00    -0.166 F 
ATOM      3  F   UNL     1      -0.172  -1.423  26.174  0.00  0.00    -0.166 F 
ATOM     35  C   UNL     1      -0.634  -2.237  25.179  0.00  0.00    +0.417 C 
ENDBRANCH  32  35
ENDBRANCH  11  21
ENDBRANCH   6  19
ENDBRANCH  15   6
TORSDOF 7
ENDMDL
MODEL 2
REMARK VINA RESULT:       5.2      1.269      1.767
REMARK  Name = 11883402
REMARK  9 active torsions:
REMARK  status: ('A' for Active; 'I' for Inactive)
REMARK    1  A    between atoms: O_6  and  C_15
REMARK    2  A    between atoms: O_6  and  C_19
REMARK    3  A    between atoms: N_9  and  C_14
REMARK    4  A    between atoms: N_10  and  C_20
REMARK    5  A    between atoms: N_11  and  C_21
REMARK    6  A    between atoms: C_24  and  C_25
REMARK    7  A    between atoms: C_25  and  C_30
REMARK    8  A    between atoms: C_25  and  C_31
REMARK    9  A    between atoms: C_32  and  C_35
REMARK                            x       y       z     vdW  Elec       q    Type
REMARK                         _______ _______ _______ _____ _____    ______ ____
ROOT
ATOM      4  O   UNL     1      -3.898   3.706  24.091  0.00  0.00    -0.368 OA
ATOM      5  O   UNL     1      -2.612   5.029  26.541  0.00  0.00    -0.368 OA
ATOM     12  C   UNL     1      -2.083   4.107  25.566  0.00  0.00    +0.173 C 
ATOM     13  C   UNL     1      -3.203   3.146  25.219  0.00  0.00    +0.192 C 
ATOM     14  C   UNL     1      -1.807   4.826  24.266  0.00  0.00    +0.131 C 
ATOM     15  C   UNL     1      -4.053   3.170  26.466  0.00  0.00    +0.235 C 
ATOM     16  C   UNL     1      -3.180   4.857  23.617  0.00  0.00    +0.185 C 
ATOM     17  C   UNL     1      -3.937   4.613  26.904  0.00  0.00    +0.207 C 
ENDROOT
BRANCH  14   9
ATOM      7  O   UNL     1       0.117   2.912  25.185  0.00  0.00    -0.252 OA
ATOM      9  N   UNL     1      -0.860   4.099  23.458  0.00  0.00    -0.292 N 
ATOM     10  N   UNL     1       0.840   2.632  22.969  0.00  0.00    -0.269 N 
ATOM     18  C   UNL     1       0.052   3.177  23.986  0.00  0.00    +0.304 C 
ATOM     36  H   UNL     1      -0.898   4.213  22.449  0.00  0.00    +0.151 HD
ATOM     37  H   UNL     1       0.657   2.961  22.024  0.00  0.00    +0.156 HD
BRANCH  10  20
ATOM     20  C   UNL     1       1.870   1.671  23.090  0.00  0.00    +0.035 A 
ATOM     22  C   UNL     1       1.551   0.330  23.305  0.00  0.00    +0.023 A 
ATOM     23  C   UNL     1       3.205   2.063  22.992  0.00  0.00    +0.023 A 
ATOM     24  C   UNL     1       3.903  -0.226  23.327  0.00  0.00    -0.045 A 
ATOM     26  C   UNL     1       2.568  -0.618  23.424  0.00  0.00    +0.006 A 
ATOM     27  C   UNL     1       4.221   1.115  23.111  0.00  0.00    +0.006 A 
BRANCH  24  25
ATOM     25  C   UNL     1       4.988  -1.240  23.453  0.00  0.00    +0.013 C 
ATOM     30  C   UNL     1       6.217  -0.698  24.206  0.00  0.00    +0.012 C 
ATOM     31  C   UNL     1       4.502  -2.543  24.115  0.00  0.00    +0.012 C 
ENDBRANCH  24  25
ENDBRANCH  10  20
ENDBRANCH  14   9
BRANCH  15   6
ATOM      6  O   UNL     1      -5.392   2.790  26.243  0.00  0.00    -0.442 OA
BRANCH   6  19
ATOM      8  O   UNL     1      -6.692   1.298  25.097  0.00  0.00    -0.226 OA
ATOM     11  N   UNL     1      -4.416   0.904  25.481  0.00  0.00    -0.251 N 
ATOM     19  C   UNL     1      -5.600   1.613  25.553  0.00  0.00    +0.405 C 
ATOM     38  H   UNL     1      -3.607   1.333  25.924  0.00  0.00    +0.158 HD
BRANCH  11  21
ATOM     21  C   UNL     1      -4.187  -0.347  24.865  0.00  0.00    +0.037 A 
ATOM     28  C   UNL     1      -2.906  -0.899  24.861  0.00  0.00    +0.035 A 
ATOM     29  C   UNL     1      -5.244  -1.029  24.261  0.00  0.00    +0.023 A 
ATOM     32  C   UNL     1      -2.682  -2.134  24.251  0.00  0.00    +0.057 A 
ATOM     33  C   UNL     1      -5.018  -2.263  23.652  0.00  0.00    +0.002 A 
ATOM     34  C   UNL     1      -3.738  -2.816  23.647  0.00  0.00    +0.012 A 
BRANCH  32  35
ATOM      1  F   UNL     1      -0.955  -3.292  25.433  0.00  0.00    -0.166 F 
ATOM      2  F   UNL     1      -0.327  -1.818  23.973  0.00  0.00    -0.166 F 
ATOM      3  F   UNL     1      -1.170  -3.710  23.309  0.00  0.00    -0.166 F 
ATOM     35  C   UNL     1      -1.312  -2.724  24.244  0.00  0.00    +0.417 C 
ENDBRANCH  32  35
ENDBRANCH  11  21
ENDBRANCH   6  19
ENDBRANCH  15   6
TORSDOF 7
ENDMDL
MODEL 3
REMARK VINA RESULT:       6.3      2.352      4.598
REMARK  Name = 11883402
REMARK  9 active torsions:
REMARK  status: ('A' for Active; 'I' for Inactive)
REMARK    1  A    between atoms: O_6  and  C_15
REMARK    2  A    between atoms: O_6  and  C_19
REMARK    3  A    between atoms: N_9  and  C_14
REMARK    4  A    between atoms: N_10  and  C_20
REMARK    5  A    between atoms: N_11  and  C_21
REMARK    6  A    between atoms: C_24  and  C_25
REMARK    7  A    between atoms: C_25  and  C_30
REMARK    8  A    between atoms: C_25  and  C_31
REMARK    9  A    between atoms: C_32  and  C_35
REMARK                            x       y       z     vdW  Elec       q    Type
REMARK                         _______ _______ _______ _____ _____    ______ ____
ROOT
ATOM      4  O   UNL     1      -3.598   0.435  25.328  0.00  0.00    -0.368 OA
ATOM      5  O   UNL     1      -4.891  -1.892  23.805  0.00  0.00    -0.368 OA
ATOM     12  C   UNL     1      -3.819  -0.995  23.448  0.00  0.00    +0.173 C 
ATOM     13  C   UNL     1      -4.178   0.365  24.015  0.00  0.00    +0.192 C 
ATOM     14  C   UNL     1      -2.557  -1.373  24.188  0.00  0.00    +0.131 C 
ATOM     15  C   UNL     1      -5.686   0.308  24.071  0.00  0.00    +0.235 C 
ATOM     16  C   UNL     1      -2.767  -0.718  25.541  0.00  0.00    +0.185 C 
ATOM     17  C   UNL     1      -5.937  -1.138  24.437  0.00  0.00    +0.207 C 
ENDROOT
BRANCH  14   9
ATOM      7  O   UNL     1       0.164  -1.660  25.038  0.00  0.00    -0.252 OA
ATOM      9  N   UNL     1      -1.387  -0.849  23.527  0.00  0.00    -0.292 N 
ATOM     10  N   UNL     1       0.841  -0.417  23.166  0.00  0.00    -0.269 N 
ATOM     18  C   UNL     1      -0.086  -1.035  24.010  0.00  0.00    +0.304 C 
ATOM     36  H   UNL     1      -1.506  -0.379  22.635  0.00  0.00    +0.151 HD
ATOM     37  H   UNL     1       0.466   0.063  22.351  0.00  0.00    +0.156 HD
BRANCH  10  20
ATOM     20  C   UNL     1       2.248  -0.375  23.304  0.00  0.00    +0.035 A 
ATOM     22  C   UNL     1       2.938  -1.500  23.755  0.00  0.00    +0.023 A 
ATOM     23  C   UNL     1       2.945   0.791  22.987  0.00  0.00    +0.023 A 
ATOM     24  C   UNL     1       5.023  -0.293  23.575  0.00  0.00    -0.045 A 
ATOM     26  C   UNL     1       4.326  -1.458  23.891  0.00  0.00    +0.006 A 
ATOM     27  C   UNL     1       4.333   0.832  23.124  0.00  0.00    +0.006 A 
BRANCH  24  25
ATOM     25  C   UNL     1       6.506  -0.250  23.719  0.00  0.00    +0.013 C 
ATOM     30  C   UNL     1       7.235  -0.862  22.508  0.00  0.00    +0.012 C 
ATOM     31  C   UNL     1       7.032   1.175  23.979  0.00  0.00    +0.012 C 
ENDBRANCH  24  25
ENDBRANCH  10  20
ENDBRANCH  14   9
BRANCH  15   6
ATOM      6  O   UNL     1      -6.248   1.197  25.009  0.00  0.00    -0.442 OA
BRANCH   6  19
ATOM      8  O   UNL     1      -5.624   2.676  26.637  0.00  0.00    -0.226 OA
ATOM     11  N   UNL     1      -4.334   2.352  24.711  0.00  0.00    -0.251 N 
ATOM     19  C   UNL     1      -5.405   2.140  25.558  0.00  0.00    +0.405 C 
ATOM     38  H   UNL     1      -4.326   1.807  23.852  0.00  0.00    +0.158 HD
BRANCH  11  21
ATOM     21  C   UNL     1      -3.243   3.232  24.890  0.00  0.00    +0.037 A 
ATOM     28  C   UNL     1      -2.025   2.748  25.367  0.00  0.00    +0.035 A 
ATOM     29  C   UNL     1      -3.386   4.587  24.590  0.00  0.00    +0.023 A 
ATOM     32  C   UNL     1      -0.950   3.618  25.544  0.00  0.00    +0.057 A 
ATOM     33  C   UNL     1      -2.310   5.457  24.767  0.00  0.00    +0.002 A 
ATOM     34  C   UNL     1      -1.092   4.973  25.243  0.00  0.00    +0.012 A 
BRANCH  32  35
ATOM      1  F   UNL     1       0.250   2.451  27.253  0.00  0.00    -0.166 F 
ATOM      2  F   UNL     1       1.287   4.076  26.259  0.00  0.00    -0.166 F 
ATOM      3  F   UNL     1       0.934   2.208  25.202  0.00  0.00    -0.166 F 
ATOM     35  C   UNL     1       0.352   3.101  26.056  0.00  0.00    +0.417 C 
ENDBRANCH  32  35
ENDBRANCH  11  21
ENDBRANCH   6  19
ENDBRANCH  15   6
TORSDOF 7
ENDMDL
MODEL 4
REMARK VINA RESULT:       6.7      1.315      1.780
REMARK  Name = 11883402
REMARK  9 active torsions:
REMARK  status: ('A' for Active; 'I' for Inactive)
REMARK    1  A    between atoms: O_6  and  C_15
REMARK    2  A    between atoms: O_6  and  C_19
REMARK    3  A    between atoms: N_9  and  C_14
REMARK    4  A    between atoms: N_10  and  C_20
REMARK    5  A    between atoms: N_11  and  C_21
REMARK    6  A    between atoms: C_24  and  C_25
REMARK    7  A    between atoms: C_25  and  C_30
REMARK    8  A    between atoms: C_25  and  C_31
REMARK    9  A    between atoms: C_32  and  C_35
REMARK                            x       y       z     vdW  Elec       q    Type
REMARK                         _______ _______ _______ _____ _____    ______ ____
ROOT
ATOM      4  O   UNL     1      -4.340   2.437  24.225  0.00  0.00    -0.368 OA
ATOM      5  O   UNL     1      -5.158   5.158  25.378  0.00  0.00    -0.368 OA
ATOM     12  C   UNL     1      -3.912   4.433  25.433  0.00  0.00    +0.173 C 
ATOM     13  C   UNL     1      -4.265   2.965  25.560  0.00  0.00    +0.192 C 
ATOM     14  C   UNL     1      -3.201   4.520  24.103  0.00  0.00    +0.131 C 
ATOM     15  C   UNL     1      -5.623   3.010  26.221  0.00  0.00    +0.235 C 
ATOM     16  C   UNL     1      -3.893   3.437  23.295  0.00  0.00    +0.185 C 
ATOM     17  C   UNL     1      -6.240   4.241  25.594  0.00  0.00    +0.207 C 
ENDROOT
BRANCH  14   9
ATOM      7  O   UNL     1      -1.806   2.183  23.209  0.00  0.00    -0.252 OA
ATOM      9  N   UNL     1      -1.792   4.250  24.245  0.00  0.00    -0.292 N 
ATOM     10  N   UNL     1       0.185   3.093  24.056  0.00  0.00    -0.269 N 
ATOM     18  C   UNL     1      -1.185   3.077  23.778  0.00  0.00    +0.304 C 
ATOM     36  H   UNL     1      -1.199   4.971  24.645  0.00  0.00    +0.151 HD
ATOM     37  H   UNL     1       0.543   3.914  24.538  0.00  0.00    +0.156 HD
BRANCH  10  20
ATOM     20  C   UNL     1       1.144   2.101  23.748  0.00  0.00    +0.035 A 
ATOM     22  C   UNL     1       2.424   2.472  23.334  0.00  0.00    +0.023 A 
ATOM     23  C   UNL     1       0.813   0.750  23.860  0.00  0.00    +0.023 A 
ATOM     24  C   UNL     1       3.038   0.143  23.142  0.00  0.00    -0.045 A 
ATOM     26  C   UNL     1       3.370   1.493  23.031  0.00  0.00    +0.006 A 
ATOM     27  C   UNL     1       1.760  -0.228  23.556  0.00  0.00    +0.006 A 
BRANCH  24  25
ATOM     25  C   UNL     1       4.051  -0.902  22.819  0.00  0.00    +0.013 C 
ATOM     30  C   UNL     1       5.452  -0.310  22.578  0.00  0.00    +0.012 C 
ATOM     31  C   UNL     1       4.126  -2.002  23.895  0.00  0.00    +0.012 C 
ENDBRANCH  24  25
ENDBRANCH  10  20
ENDBRANCH  14   9
BRANCH  15   6
ATOM      6  O   UNL     1      -6.398   1.855  25.996  0.00  0.00    -0.442 OA
BRANCH   6  19
ATOM      8  O   UNL     1      -6.312   0.224  24.396  0.00  0.00    -0.226 OA
ATOM     11  N   UNL     1      -4.544   0.575  25.889  0.00  0.00    -0.251 N 
ATOM     19  C   UNL     1      -5.785   0.813  25.332  0.00  0.00    +0.405 C 
ATOM     38  H   UNL     1      -4.278   1.174  26.667  0.00  0.00    +0.158 HD
BRANCH  11  21
ATOM     21  C   UNL     1      -3.592  -0.399  25.512  0.00  0.00    +0.037 A 
ATOM     28  C   UNL     1      -3.986  -1.507  24.761  0.00  0.00    +0.035 A 
ATOM     29  C   UNL     1      -2.257  -0.252  25.893  0.00  0.00    +0.023 A 
ATOM     32  C   UNL     1      -3.045  -2.468  24.391  0.00  0.00    +0.057 A 
ATOM     33  C   UNL     1      -1.317  -1.214  25.522  0.00  0.00    +0.002 A 
ATOM     34  C   UNL     1      -1.710  -2.321  24.771  0.00  0.00    +0.012 A 
BRANCH  32  35
ATOM      1  F   UNL     1      -2.431  -4.281  22.957  0.00  0.00    -0.166 F 
ATOM      2  F   UNL     1      -4.361  -3.358  22.602  0.00  0.00    -0.166 F 
ATOM      3  F   UNL     1      -4.066  -4.616  24.352  0.00  0.00    -0.166 F 
ATOM     35  C   UNL     1      -3.466  -3.654  23.590  0.00  0.00    +0.417 C 
ENDBRANCH  32  35
ENDBRANCH  11  21
ENDBRANCH   6  19
ENDBRANCH  15   6
TORSDOF 7
ENDMDL
