MODEL 1
REMARK VINA RESULT:       5.5      0.000      0.000
REMARK  Name = 45361375
REMARK  18 active torsions:
REMARK  status: ('A' for Active; 'I' for Inactive)
REMARK    1  A    between atoms: O_1  and  C_12
REMARK    2  A    between atoms: O_4  and  C_28
REMARK    3  A    between atoms: O_4  and  C_35
REMARK    4  A    between atoms: O_5  and  C_29
REMARK    5  A    between atoms: O_5  and  C_36
REMARK    6  A    between atoms: O_6  and  C_34
REMARK    7  A    between atoms: O_6  and  C_37
REMARK    8  A    between atoms: N_7  and  C_16
REMARK    9  A    between atoms: N_8  and  C_26
REMARK   10  A    between atoms: N_8  and  C_27
REMARK   11  A    between atoms: C_9  and  C_19
REMARK   12  A    between atoms: C_11  and  C_21
REMARK   13  A    between atoms: C_14  and  C_20
REMARK   14  A    between atoms: C_20  and  C_22
REMARK   15  A    between atoms: C_20  and  C_23
REMARK   16  A    between atoms: C_24  and  C_25
REMARK   17  A    between atoms: C_26  and  C_28
REMARK   18  A    between atoms: C_27  and  C_29
REMARK                            x       y       z     vdW  Elec       q    Type
REMARK                         _______ _______ _______ _____ _____    ______ ____
ROOT
ATOM      9  C   UNL     1      -2.735  -1.142  24.971  0.00  0.00    -0.027 C 
ATOM     10  C   UNL     1      -2.302   0.169  24.234  0.00  0.00    +0.028 C 
ATOM     11  C   UNL     1      -0.744   0.359  24.301  0.00  0.00    +0.012 C 
ATOM     12  C   UNL     1      -3.145   1.387  24.708  0.00  0.00    +0.122 C 
ATOM     13  C   UNL     1      -4.256  -1.358  24.790  0.00  0.00    +0.007 C 
ATOM     14  C   UNL     1      -4.667   1.126  24.622  0.00  0.00    +0.029 C 
ATOM     15  C   UNL     1      -2.009  -2.345  24.328  0.00  0.00    +0.009 C 
ATOM     16  C   UNL     1      -0.023  -0.889  23.720  0.00  0.00    +0.076 C 
ATOM     17  C   UNL     1      -5.087  -0.184  25.290  0.00  0.00    +0.007 C 
ATOM     18  C   UNL     1      -0.493  -2.205  24.338  0.00  0.00    +0.023 C 
ATOM     19  C   UNL     1      -2.414  -1.104  26.487  0.00  0.00    +0.011 C 
ATOM     21  C   UNL     1      -0.245   1.617  23.569  0.00  0.00    +0.010 C 
ENDROOT
BRANCH  16   7
ATOM      3  O   UNL     1       1.866  -0.110  21.704  0.00  0.00    -0.270 OA
ATOM      7  N   UNL     1       1.414  -0.798  23.871  0.00  0.00    -0.308 N 
ATOM     24  C   UNL     1       2.244  -0.410  22.833  0.00  0.00    +0.244 C 
ATOM     38  H   UNL     1       1.806  -1.142  24.741  0.00  0.00    +0.149 HD
BRANCH  24  25
ATOM     25  C   UNL     1       3.697  -0.392  23.141  0.00  0.00    +0.037 A 
ATOM     30  C   UNL     1       4.307  -1.521  23.689  0.00  0.00    +0.016 A 
ATOM     31  C   UNL     1       4.451   0.753  22.884  0.00  0.00    +0.016 A 
ATOM     32  C   UNL     1       5.672  -1.505  23.980  0.00  0.00    +0.046 A 
ATOM     33  C   UNL     1       5.815   0.769  23.176  0.00  0.00    +0.046 A 
ATOM     34  C   UNL     1       6.425  -0.360  23.724  0.00  0.00    +0.120 A 
BRANCH  34   6
ATOM      6  O   UNL     1       7.757  -0.343  24.007  0.00  0.00    -0.495 OA
ATOM     37  C   UNL     1       8.656  -0.345  22.899  0.00  0.00    +0.277 C 
ENDBRANCH  34   6
ENDBRANCH  24  25
ENDBRANCH  16   7
BRANCH  12   1
ATOM      1  O   UNL     1      -2.875   2.510  23.869  0.00  0.00    -0.391 OA
ATOM     39  H   UNL     1      -2.501   3.217  24.421  0.00  0.00    +0.210 HD
ENDBRANCH  12   1
BRANCH  14  20
ATOM     20  C   UNL     1      -5.478   2.285  25.215  0.00  0.00    +0.078 C 
ATOM     22  C   UNL     1      -6.905   2.243  24.664  0.00  0.00    +0.017 C 
BRANCH  20  23
ATOM      2  O   UNL     1      -5.033   4.165  23.802  0.00  0.00    -0.275 OA
ATOM      8  N   UNL     1      -3.915   4.150  25.827  0.00  0.00    -0.297 N 
ATOM     23  C   UNL     1      -4.800   3.616  24.884  0.00  0.00    +0.219 C 
BRANCH   8  26
ATOM     26  C   UNL     1      -3.611   3.585  27.141  0.00  0.00    +0.136 C 
BRANCH  26  28
ATOM     28  C   UNL     1      -2.124   3.635  27.439  0.00  0.00    +0.178 C 
BRANCH  28   4
ATOM      4  O   UNL     1      -1.429   2.809  26.514  0.00  0.00    -0.381 OA
ATOM     35  C   UNL     1      -0.066   2.648  26.881  0.00  0.00    +0.194 C 
ENDBRANCH  28   4
ENDBRANCH  26  28
ENDBRANCH   8  26
BRANCH   8  27
ATOM     27  C   UNL     1      -3.235   5.406  25.533  0.00  0.00    +0.136 C 
BRANCH  27  29
ATOM     29  C   UNL     1      -2.241   5.249  24.396  0.00  0.00    +0.178 C 
BRANCH  29   5
ATOM      5  O   UNL     1      -0.928   5.511  24.878  0.00  0.00    -0.381 OA
ATOM     36  C   UNL     1       0.059   4.904  24.056  0.00  0.00    +0.194 C 
ENDBRANCH  29   5
ENDBRANCH  27  29
ENDBRANCH   8  27
ENDBRANCH  20  23
ENDBRANCH  14  20
TORSDOF 12
ENDMDL
MODEL 2
REMARK VINA RESULT:       6.6      0.769      1.654
REMARK  Name = 45361375
REMARK  18 active torsions:
REMARK  status: ('A' for Active; 'I' for Inactive)
REMARK    1  A    between atoms: O_1  and  C_12
REMARK    2  A    between atoms: O_4  and  C_28
REMARK    3  A    between atoms: O_4  and  C_35
REMARK    4  A    between atoms: O_5  and  C_29
REMARK    5  A    between atoms: O_5  and  C_36
REMARK    6  A    between atoms: O_6  and  C_34
REMARK    7  A    between atoms: O_6  and  C_37
REMARK    8  A    between atoms: N_7  and  C_16
REMARK    9  A    between atoms: N_8  and  C_26
REMARK   10  A    between atoms: N_8  and  C_27
REMARK   11  A    between atoms: C_9  and  C_19
REMARK   12  A    between atoms: C_11  and  C_21
REMARK   13  A    between atoms: C_14  and  C_20
REMARK   14  A    between atoms: C_20  and  C_22
REMARK   15  A    between atoms: C_20  and  C_23
REMARK   16  A    between atoms: C_24  and  C_25
REMARK   17  A    between atoms: C_26  and  C_28
REMARK   18  A    between atoms: C_27  and  C_29
REMARK                            x       y       z     vdW  Elec       q    Type
REMARK                         _______ _______ _______ _____ _____    ______ ____
ROOT
ATOM      9  C   UNL     1      -2.772  -1.033  24.897  0.00  0.00    -0.027 C 
ATOM     10  C   UNL     1      -2.314   0.141  23.969  0.00  0.00    +0.028 C 
ATOM     11  C   UNL     1      -0.758   0.337  24.044  0.00  0.00    +0.012 C 
ATOM     12  C   UNL     1      -3.163   1.420  24.218  0.00  0.00    +0.122 C 
ATOM     13  C   UNL     1      -4.289  -1.275  24.714  0.00  0.00    +0.007 C 
ATOM     14  C   UNL     1      -4.684   1.149  24.136  0.00  0.00    +0.029 C 
ATOM     15  C   UNL     1      -2.036  -2.326  24.475  0.00  0.00    +0.009 C 
ATOM     16  C   UNL     1      -0.029  -0.989  23.691  0.00  0.00    +0.076 C 
ATOM     17  C   UNL     1      -5.126  -0.035  24.996  0.00  0.00    +0.007 C 
ATOM     18  C   UNL     1      -0.521  -2.187  24.502  0.00  0.00    +0.023 C 
ATOM     19  C   UNL     1      -2.490  -0.751  26.394  0.00  0.00    +0.011 C 
ATOM     21  C   UNL     1      -0.234   1.460  23.131  0.00  0.00    +0.010 C 
ENDROOT
BRANCH  16   7
ATOM      3  O   UNL     1       1.873  -0.157  21.709  0.00  0.00    -0.270 OA
ATOM      7  N   UNL     1       1.404  -0.875  23.862  0.00  0.00    -0.308 N 
ATOM     24  C   UNL     1       2.242  -0.462  22.839  0.00  0.00    +0.244 C 
ATOM     38  H   UNL     1       1.791  -1.223  24.734  0.00  0.00    +0.149 HD
BRANCH  24  25
ATOM     25  C   UNL     1       3.690  -0.424  23.167  0.00  0.00    +0.037 A 
ATOM     30  C   UNL     1       4.308  -1.542  23.729  0.00  0.00    +0.016 A 
ATOM     31  C   UNL     1       4.432   0.729  22.914  0.00  0.00    +0.016 A 
ATOM     32  C   UNL     1       5.668  -1.506  24.038  0.00  0.00    +0.046 A 
ATOM     33  C   UNL     1       5.792   0.765  23.223  0.00  0.00    +0.046 A 
ATOM     34  C   UNL     1       6.410  -0.353  23.786  0.00  0.00    +0.120 A 
BRANCH  34   6
ATOM      6  O   UNL     1       7.737  -0.317  24.087  0.00  0.00    -0.495 OA
ATOM     37  C   UNL     1       8.648  -0.240  22.992  0.00  0.00    +0.277 C 
ENDBRANCH  34   6
ENDBRANCH  24  25
ENDBRANCH  16   7
BRANCH  12   1
ATOM      1  O   UNL     1      -2.867   2.392  23.214  0.00  0.00    -0.391 OA
ATOM     39  H   UNL     1      -2.443   1.935  22.468  0.00  0.00    +0.210 HD
ENDBRANCH  12   1
BRANCH  14  20
ATOM     20  C   UNL     1      -5.504   2.390  24.513  0.00  0.00    +0.078 C 
ATOM     22  C   UNL     1      -5.377   3.440  23.407  0.00  0.00    +0.017 C 
BRANCH  20  23
ATOM      2  O   UNL     1      -5.617   2.633  26.891  0.00  0.00    -0.275 OA
ATOM      8  N   UNL     1      -3.921   3.808  25.846  0.00  0.00    -0.297 N 
ATOM     23  C   UNL     1      -5.021   2.944  25.854  0.00  0.00    +0.219 C 
BRANCH   8  26
ATOM     26  C   UNL     1      -3.140   4.198  24.673  0.00  0.00    +0.136 C 
BRANCH  26  28
ATOM     28  C   UNL     1      -2.641   5.627  24.785  0.00  0.00    +0.178 C 
BRANCH  28   4
ATOM      4  O   UNL     1      -1.245   5.621  25.052  0.00  0.00    -0.381 OA
ATOM     35  C   UNL     1      -0.540   4.819  24.114  0.00  0.00    +0.194 C 
ENDBRANCH  28   4
ENDBRANCH  26  28
ENDBRANCH   8  26
BRANCH   8  27
ATOM     27  C   UNL     1      -3.448   4.371  27.106  0.00  0.00    +0.136 C 
BRANCH  27  29
ATOM     29  C   UNL     1      -2.205   3.657  27.605  0.00  0.00    +0.178 C 
BRANCH  29   5
ATOM      5  O   UNL     1      -1.657   2.873  26.553  0.00  0.00    -0.381 OA
ATOM     36  C   UNL     1      -0.272   2.627  26.753  0.00  0.00    +0.194 C 
ENDBRANCH  29   5
ENDBRANCH  27  29
ENDBRANCH   8  27
ENDBRANCH  20  23
ENDBRANCH  14  20
TORSDOF 12
ENDMDL
MODEL 3
REMARK VINA RESULT:       7.2      1.117      2.013
REMARK  Name = 45361375
REMARK  18 active torsions:
REMARK  status: ('A' for Active; 'I' for Inactive)
REMARK    1  A    between atoms: O_1  and  C_12
REMARK    2  A    between atoms: O_4  and  C_28
REMARK    3  A    between atoms: O_4  and  C_35
REMARK    4  A    between atoms: O_5  and  C_29
REMARK    5  A    between atoms: O_5  and  C_36
REMARK    6  A    between atoms: O_6  and  C_34
REMARK    7  A    between atoms: O_6  and  C_37
REMARK    8  A    between atoms: N_7  and  C_16
REMARK    9  A    between atoms: N_8  and  C_26
REMARK   10  A    between atoms: N_8  and  C_27
REMARK   11  A    between atoms: C_9  and  C_19
REMARK   12  A    between atoms: C_11  and  C_21
REMARK   13  A    between atoms: C_14  and  C_20
REMARK   14  A    between atoms: C_20  and  C_22
REMARK   15  A    between atoms: C_20  and  C_23
REMARK   16  A    between atoms: C_24  and  C_25
REMARK   17  A    between atoms: C_26  and  C_28
REMARK   18  A    between atoms: C_27  and  C_29
REMARK                            x       y       z     vdW  Elec       q    Type
REMARK                         _______ _______ _______ _____ _____    ______ ____
ROOT
ATOM      9  C   UNL     1      -2.627  -1.389  24.855  0.00  0.00    -0.027 C 
ATOM     10  C   UNL     1      -2.195   0.060  24.451  0.00  0.00    +0.028 C 
ATOM     11  C   UNL     1      -0.639   0.233  24.572  0.00  0.00    +0.012 C 
ATOM     12  C   UNL     1      -3.046   1.129  25.194  0.00  0.00    +0.122 C 
ATOM     13  C   UNL     1      -4.146  -1.560  24.617  0.00  0.00    +0.007 C 
ATOM     14  C   UNL     1      -4.566   0.892  25.038  0.00  0.00    +0.029 C 
ATOM     15  C   UNL     1      -1.892  -2.404  23.950  0.00  0.00    +0.009 C 
ATOM     16  C   UNL     1       0.091  -0.841  23.717  0.00  0.00    +0.076 C 
ATOM     17  C   UNL     1      -4.984  -0.539  25.375  0.00  0.00    +0.007 C 
ATOM     18  C   UNL     1      -0.377  -2.267  24.004  0.00  0.00    +0.023 C 
ATOM     19  C   UNL     1      -2.316  -1.710  26.339  0.00  0.00    +0.011 C 
ATOM     21  C   UNL     1      -0.140   1.630  24.162  0.00  0.00    +0.010 C 
ENDROOT
BRANCH  16   7
ATOM      3  O   UNL     1       2.022   0.066  21.796  0.00  0.00    -0.270 OA
ATOM      7  N   UNL     1       1.527  -0.784  23.896  0.00  0.00    -0.308 N 
ATOM     24  C   UNL     1       2.379  -0.328  22.904  0.00  0.00    +0.244 C 
ATOM     38  H   UNL     1       1.900  -1.202  24.741  0.00  0.00    +0.149 HD
BRANCH  24  25
ATOM     25  C   UNL     1       3.827  -0.358  23.233  0.00  0.00    +0.037 A 
ATOM     30  C   UNL     1       4.617   0.770  23.009  0.00  0.00    +0.016 A 
ATOM     31  C   UNL     1       4.397  -1.514  23.765  0.00  0.00    +0.016 A 
ATOM     32  C   UNL     1       5.977   0.742  23.317  0.00  0.00    +0.046 A 
ATOM     33  C   UNL     1       5.758  -1.543  24.073  0.00  0.00    +0.046 A 
ATOM     34  C   UNL     1       6.548  -0.415  23.848  0.00  0.00    +0.120 A 
BRANCH  34   6
ATOM      6  O   UNL     1       7.875  -0.443  24.149  0.00  0.00    -0.495 OA
ATOM     37  C   UNL     1       8.787  -0.181  23.084  0.00  0.00    +0.277 C 
ENDBRANCH  34   6
ENDBRANCH  24  25
ENDBRANCH  16   7
BRANCH  12   1
ATOM      1  O   UNL     1      -2.776   2.420  24.646  0.00  0.00    -0.391 OA
ATOM     39  H   UNL     1      -3.609   2.782  24.302  0.00  0.00    +0.210 HD
ENDBRANCH  12   1
BRANCH  14  20
ATOM     20  C   UNL     1      -5.386   1.877  25.883  0.00  0.00    +0.078 C 
ATOM     22  C   UNL     1      -6.818   1.936  25.349  0.00  0.00    +0.017 C 
BRANCH  20  23
ATOM      2  O   UNL     1      -4.460   3.827  26.917  0.00  0.00    -0.275 OA
ATOM      8  N   UNL     1      -4.478   3.834  24.603  0.00  0.00    -0.297 N 
ATOM     23  C   UNL     1      -4.729   3.258  25.853  0.00  0.00    +0.219 C 
BRANCH   8  26
ATOM     26  C   UNL     1      -4.732   3.217  23.303  0.00  0.00    +0.136 C 
BRANCH  26  28
ATOM     28  C   UNL     1      -3.762   3.717  22.248  0.00  0.00    +0.178 C 
BRANCH  28   4
ATOM      4  O   UNL     1      -2.591   2.913  22.264  0.00  0.00    -0.381 OA
ATOM     35  C   UNL     1      -2.679   1.845  21.331  0.00  0.00    +0.194 C 
ENDBRANCH  28   4
ENDBRANCH  26  28
ENDBRANCH   8  26
BRANCH   8  27
ATOM     27  C   UNL     1      -3.873   5.160  24.540  0.00  0.00    +0.136 C 
BRANCH  27  29
ATOM     29  C   UNL     1      -2.766   5.318  25.567  0.00  0.00    +0.178 C 
BRANCH  29   5
ATOM      5  O   UNL     1      -1.643   4.539  25.174  0.00  0.00    -0.381 OA
ATOM     36  C   UNL     1      -0.598   5.353  24.661  0.00  0.00    +0.194 C 
ENDBRANCH  29   5
ENDBRANCH  27  29
ENDBRANCH   8  27
ENDBRANCH  20  23
ENDBRANCH  14  20
TORSDOF 12
ENDMDL
