MODEL 1
REMARK VINA RESULT:      -0.7      0.000      0.000
REMARK  Name = 11883399
REMARK  6 active torsions:
REMARK  status: ('A' for Active; 'I' for Inactive)
REMARK    1  A    between atoms: O_6  and  C_15
REMARK    2  A    between atoms: O_6  and  C_25
REMARK    3  A    between atoms: N_9  and  C_14
REMARK    4  A    between atoms: N_10  and  C_18
REMARK    5  A    between atoms: N_11  and  C_26
REMARK    6  A    between atoms: C_29  and  C_32
REMARK                            x       y       z     vdW  Elec       q    Type
REMARK                         _______ _______ _______ _____ _____    ______ ____
ROOT
ATOM      4  O   UNL     1      -2.905  -0.296  25.663  0.00  0.00    -0.368 OA
ATOM      5  O   UNL     1      -2.630  -2.958  24.167  0.00  0.00    -0.368 OA
ATOM     12  C   UNL     1      -1.893  -1.722  24.062  0.00  0.00    +0.173 C 
ATOM     13  C   UNL     1      -2.890  -0.598  24.258  0.00  0.00    +0.192 C 
ATOM     14  C   UNL     1      -0.951  -1.579  25.234  0.00  0.00    +0.131 C 
ATOM     15  C   UNL     1      -4.186  -1.228  23.807  0.00  0.00    +0.235 C 
ATOM     16  C   UNL     1      -1.866  -1.038  26.319  0.00  0.00    +0.185 C 
ATOM     17  C   UNL     1      -4.029  -2.656  24.283  0.00  0.00    +0.207 C 
ENDROOT
BRANCH  14   9
ATOM      7  O   UNL     1       0.618  -1.474  22.826  0.00  0.00    -0.253 OA
ATOM      9  N   UNL     1       0.116  -0.654  24.938  0.00  0.00    -0.292 N 
ATOM     10  N   UNL     1       1.799   0.318  23.708  0.00  0.00    -0.297 N 
ATOM     23  C   UNL     1       0.826  -0.677  23.738  0.00  0.00    +0.300 C 
ATOM     33  H   UNL     1       0.408   0.001  25.656  0.00  0.00    +0.151 HD
ATOM     34  H   UNL     1       1.935   0.877  24.546  0.00  0.00    +0.151 HD
BRANCH  10  18
ATOM     18  C   UNL     1       2.684   0.527  22.583  0.00  0.00    +0.074 C 
ATOM     19  C   UNL     1       3.722   1.612  22.891  0.00  0.00    +0.022 C 
ATOM     20  C   UNL     1       3.359  -0.784  22.163  0.00  0.00    +0.022 C 
ATOM     21  C   UNL     1       4.777   1.145  23.894  0.00  0.00    +0.002 C 
ATOM     22  C   UNL     1       4.414  -1.247  23.167  0.00  0.00    +0.002 C 
ATOM     24  C   UNL     1       5.441  -0.155  23.449  0.00  0.00    +0.000 C 
ENDBRANCH  10  18
ENDBRANCH  14   9
BRANCH  15   6
ATOM      6  O   UNL     1      -5.331  -0.611  24.350  0.00  0.00    -0.442 OA
BRANCH   6  25
ATOM      8  O   UNL     1      -5.702   0.850  26.070  0.00  0.00    -0.226 OA
ATOM     11  N   UNL     1      -4.253   1.370  24.306  0.00  0.00    -0.251 N 
ATOM     25  C   UNL     1      -5.141   0.583  25.014  0.00  0.00    +0.405 C 
ATOM     35  H   UNL     1      -3.890   0.972  23.444  0.00  0.00    +0.158 HD
BRANCH  11  26
ATOM     26  C   UNL     1      -3.785   2.663  24.632  0.00  0.00    +0.037 A 
ATOM     27  C   UNL     1      -2.424   2.954  24.552  0.00  0.00    +0.035 A 
ATOM     28  C   UNL     1      -4.687   3.649  25.033  0.00  0.00    +0.023 A 
ATOM     29  C   UNL     1      -1.964   4.231  24.874  0.00  0.00    +0.057 A 
ATOM     30  C   UNL     1      -4.227   4.926  25.355  0.00  0.00    +0.002 A 
ATOM     31  C   UNL     1      -2.865   5.216  25.275  0.00  0.00    +0.012 A 
BRANCH  29  32
ATOM      1  F   UNL     1       0.056   4.206  23.591  0.00  0.00    -0.166 F 
ATOM      2  F   UNL     1      -0.221   5.867  24.957  0.00  0.00    -0.166 F 
ATOM      3  F   UNL     1       0.226   3.887  25.735  0.00  0.00    -0.166 F 
ATOM     32  C   UNL     1      -0.508   4.542  24.789  0.00  0.00    +0.417 C 
ENDBRANCH  29  32
ENDBRANCH  11  26
ENDBRANCH   6  25
ENDBRANCH  15   6
TORSDOF 6
ENDMDL
MODEL 2
REMARK VINA RESULT:       0.7      2.811      4.914
REMARK  Name = 11883399
REMARK  6 active torsions:
REMARK  status: ('A' for Active; 'I' for Inactive)
REMARK    1  A    between atoms: O_6  and  C_15
REMARK    2  A    between atoms: O_6  and  C_25
REMARK    3  A    between atoms: N_9  and  C_14
REMARK    4  A    between atoms: N_10  and  C_18
REMARK    5  A    between atoms: N_11  and  C_26
REMARK    6  A    between atoms: C_29  and  C_32
REMARK                            x       y       z     vdW  Elec       q    Type
REMARK                         _______ _______ _______ _____ _____    ______ ____
ROOT
ATOM      4  O   UNL     1      -2.446   2.854  24.038  0.00  0.00    -0.368 OA
ATOM      5  O   UNL     1      -1.851   4.854  26.284  0.00  0.00    -0.368 OA
ATOM     12  C   UNL     1      -1.356   3.522  26.036  0.00  0.00    +0.173 C 
ATOM     13  C   UNL     1      -2.513   2.723  25.467  0.00  0.00    +0.192 C 
ATOM     14  C   UNL     1      -0.346   3.544  24.913  0.00  0.00    +0.131 C 
ATOM     15  C   UNL     1      -3.714   3.437  26.039  0.00  0.00    +0.235 C 
ATOM     16  C   UNL     1      -1.234   3.536  23.680  0.00  0.00    +0.185 C 
ATOM     17  C   UNL     1      -3.263   4.881  26.028  0.00  0.00    +0.207 C 
ENDROOT
BRANCH  14   9
ATOM      7  O   UNL     1       0.546   1.985  22.667  0.00  0.00    -0.253 OA
ATOM      9  N   UNL     1       0.508   2.382  24.953  0.00  0.00    -0.292 N 
ATOM     10  N   UNL     1       1.714   0.607  24.125  0.00  0.00    -0.297 N 
ATOM     23  C   UNL     1       0.892   1.685  23.808  0.00  0.00    +0.300 C 
ATOM     33  H   UNL     1       0.792   2.017  25.856  0.00  0.00    +0.151 HD
ATOM     34  H   UNL     1       1.879   0.406  25.107  0.00  0.00    +0.151 HD
BRANCH  10  18
ATOM     18  C   UNL     1       2.262  -0.290  23.131  0.00  0.00    +0.074 C 
ATOM     19  C   UNL     1       2.936   0.489  21.997  0.00  0.00    +0.022 C 
ATOM     20  C   UNL     1       3.230  -1.293  23.769  0.00  0.00    +0.022 C 
ATOM     21  C   UNL     1       4.251   1.135  22.432  0.00  0.00    +0.002 C 
ATOM     22  C   UNL     1       4.544  -0.644  24.202  0.00  0.00    +0.002 C 
ATOM     24  C   UNL     1       5.201   0.116  23.054  0.00  0.00    +0.000 C 
ENDBRANCH  10  18
ENDBRANCH  14   9
BRANCH  15   6
ATOM      6  O   UNL     1      -4.893   3.244  25.290  0.00  0.00    -0.442 OA
BRANCH   6  25
ATOM      8  O   UNL     1      -6.310   1.589  24.594  0.00  0.00    -0.226 OA
ATOM     11  N   UNL     1      -4.025   1.195  24.920  0.00  0.00    -0.251 N 
ATOM     25  C   UNL     1      -5.180   1.952  24.900  0.00  0.00    +0.405 C 
ATOM     35  H   UNL     1      -3.177   1.677  25.205  0.00  0.00    +0.158 HD
BRANCH  11  26
ATOM     26  C   UNL     1      -3.875  -0.172  24.592  0.00  0.00    +0.037 A 
ATOM     27  C   UNL     1      -2.612  -0.763  24.626  0.00  0.00    +0.035 A 
ATOM     28  C   UNL     1      -4.991  -0.929  24.234  0.00  0.00    +0.023 A 
ATOM     29  C   UNL     1      -2.465  -2.112  24.302  0.00  0.00    +0.057 A 
ATOM     30  C   UNL     1      -4.843  -2.277  23.911  0.00  0.00    +0.002 A 
ATOM     31  C   UNL     1      -3.580  -2.869  23.945  0.00  0.00    +0.012 A 
BRANCH  29  32
ATOM      1  F   UNL     1      -0.091  -1.863  24.139  0.00  0.00    -0.166 F 
ATOM      2  F   UNL     1      -0.830  -3.356  25.527  0.00  0.00    -0.166 F 
ATOM      3  F   UNL     1      -0.960  -3.708  23.385  0.00  0.00    -0.166 F 
ATOM     32  C   UNL     1      -1.115  -2.745  24.339  0.00  0.00    +0.417 C 
ENDBRANCH  29  32
ENDBRANCH  11  26
ENDBRANCH   6  25
ENDBRANCH  15   6
TORSDOF 6
ENDMDL
MODEL 3
REMARK VINA RESULT:       1.6      2.694      6.150
REMARK  Name = 11883399
REMARK  6 active torsions:
REMARK  status: ('A' for Active; 'I' for Inactive)
REMARK    1  A    between atoms: O_6  and  C_15
REMARK    2  A    between atoms: O_6  and  C_25
REMARK    3  A    between atoms: N_9  and  C_14
REMARK    4  A    between atoms: N_10  and  C_18
REMARK    5  A    between atoms: N_11  and  C_26
REMARK    6  A    between atoms: C_29  and  C_32
REMARK                            x       y       z     vdW  Elec       q    Type
REMARK                         _______ _______ _______ _____ _____    ______ ____
ROOT
ATOM      4  O   UNL     1      -2.270  -0.237  23.714  0.00  0.00    -0.368 OA
ATOM      5  O   UNL     1      -4.851  -1.863  24.029  0.00  0.00    -0.368 OA
ATOM     12  C   UNL     1      -4.392  -0.661  24.684  0.00  0.00    +0.173 C 
ATOM     13  C   UNL     1      -2.896  -0.808  24.875  0.00  0.00    +0.192 C 
ATOM     14  C   UNL     1      -4.523   0.520  23.751  0.00  0.00    +0.131 C 
ATOM     15  C   UNL     1      -2.719  -2.308  24.925  0.00  0.00    +0.235 C 
ATOM     16  C   UNL     1      -3.268   0.402  22.903  0.00  0.00    +0.185 C 
ATOM     17  C   UNL     1      -3.754  -2.784  23.930  0.00  0.00    +0.207 C 
ENDROOT
BRANCH  14   9
ATOM      7  O   UNL     1      -2.301   1.796  25.055  0.00  0.00    -0.253 OA
ATOM      9  N   UNL     1      -4.548   1.764  24.481  0.00  0.00    -0.292 N 
ATOM     10  N   UNL     1      -3.715   3.512  25.722  0.00  0.00    -0.297 N 
ATOM     23  C   UNL     1      -3.417   2.311  25.084  0.00  0.00    +0.300 C 
ATOM     33  H   UNL     1      -5.439   2.231  24.617  0.00  0.00    +0.151 HD
ATOM     34  H   UNL     1      -4.686   3.810  25.746  0.00  0.00    +0.151 HD
BRANCH  10  18
ATOM     18  C   UNL     1      -2.729   4.299  26.430  0.00  0.00    +0.074 C 
ATOM     19  C   UNL     1      -1.435   3.504  26.637  0.00  0.00    +0.022 C 
ATOM     20  C   UNL     1      -2.458   5.622  25.707  0.00  0.00    +0.022 C 
ATOM     21  C   UNL     1      -0.649   3.316  25.339  0.00  0.00    +0.002 C 
ATOM     22  C   UNL     1      -1.672   5.431  24.410  0.00  0.00    +0.002 C 
ATOM     24  C   UNL     1      -0.383   4.647  24.644  0.00  0.00    +0.000 C 
ENDBRANCH  10  18
ENDBRANCH  14   9
BRANCH  15   6
ATOM      6  O   UNL     1      -1.420  -2.733  24.583  0.00  0.00    -0.442 OA
BRANCH   6  25
ATOM      8  O   UNL     1      -0.055  -1.554  25.989  0.00  0.00    -0.226 OA
ATOM     11  N   UNL     1       0.167  -1.421  23.662  0.00  0.00    -0.251 N 
ATOM     25  C   UNL     1      -0.386  -1.859  24.849  0.00  0.00    +0.405 C 
ATOM     35  H   UNL     1      -0.248  -1.789  22.810  0.00  0.00    +0.158 HD
BRANCH  11  26
ATOM     26  C   UNL     1       1.242  -0.521  23.482  0.00  0.00    +0.037 A 
ATOM     27  C   UNL     1       2.556  -0.965  23.632  0.00  0.00    +0.035 A 
ATOM     28  C   UNL     1       0.988   0.811  23.157  0.00  0.00    +0.023 A 
ATOM     29  C   UNL     1       3.616  -0.076  23.455  0.00  0.00    +0.057 A 
ATOM     30  C   UNL     1       2.049   1.700  22.980  0.00  0.00    +0.002 A 
ATOM     31  C   UNL     1       3.363   1.256  23.129  0.00  0.00    +0.012 A 
BRANCH  29  32
ATOM      1  F   UNL     1       5.642  -0.061  24.728  0.00  0.00    -0.166 F 
ATOM      2  F   UNL     1       5.132  -1.908  23.713  0.00  0.00    -0.166 F 
ATOM      3  F   UNL     1       5.818  -0.194  22.565  0.00  0.00    -0.166 F 
ATOM     32  C   UNL     1       5.021  -0.550  23.614  0.00  0.00    +0.417 C 
ENDBRANCH  29  32
ENDBRANCH  11  26
ENDBRANCH   6  25
ENDBRANCH  15   6
TORSDOF 6
ENDMDL
MODEL 4
REMARK VINA RESULT:       1.7      1.236      1.505
REMARK  Name = 11883399
REMARK  6 active torsions:
REMARK  status: ('A' for Active; 'I' for Inactive)
REMARK    1  A    between atoms: O_6  and  C_15
REMARK    2  A    between atoms: O_6  and  C_25
REMARK    3  A    between atoms: N_9  and  C_14
REMARK    4  A    between atoms: N_10  and  C_18
REMARK    5  A    between atoms: N_11  and  C_26
REMARK    6  A    between atoms: C_29  and  C_32
REMARK                            x       y       z     vdW  Elec       q    Type
REMARK                         _______ _______ _______ _____ _____    ______ ____
ROOT
ATOM      4  O   UNL     1      -2.137  -0.399  24.455  0.00  0.00    -0.368 OA
ATOM      5  O   UNL     1      -2.318  -3.183  25.728  0.00  0.00    -0.368 OA
ATOM     12  C   UNL     1      -1.460  -2.659  24.692  0.00  0.00    +0.173 C 
ATOM     13  C   UNL     1      -2.299  -1.701  23.870  0.00  0.00    +0.192 C 
ATOM     14  C   UNL     1      -0.393  -1.778  25.297  0.00  0.00    +0.131 C 
ATOM     15  C   UNL     1      -3.697  -2.235  24.072  0.00  0.00    +0.235 C 
ATOM     16  C   UNL     1      -1.126  -0.459  25.473  0.00  0.00    +0.185 C 
ATOM     17  C   UNL     1      -3.654  -2.706  25.509  0.00  0.00    +0.207 C 
ENDROOT
BRANCH  14   9
ATOM      7  O   UNL     1       0.704   0.680  24.284  0.00  0.00    -0.253 OA
ATOM      9  N   UNL     1       0.735  -1.637  24.410  0.00  0.00    -0.292 N 
ATOM     10  N   UNL     1       2.298  -0.545  23.123  0.00  0.00    -0.297 N 
ATOM     23  C   UNL     1       1.201  -0.399  23.968  0.00  0.00    +0.300 C 
ATOM     33  H   UNL     1       1.172  -2.475  24.039  0.00  0.00    +0.151 HD
ATOM     34  H   UNL     1       2.582  -1.486  22.870  0.00  0.00    +0.151 HD
BRANCH  10  18
ATOM     18  C   UNL     1       2.984   0.576  22.517  0.00  0.00    +0.074 C 
ATOM     19  C   UNL     1       3.663   1.446  23.580  0.00  0.00    +0.022 C 
ATOM     20  C   UNL     1       3.990   0.100  21.464  0.00  0.00    +0.022 C 
ATOM     21  C   UNL     1       4.887   0.769  24.197  0.00  0.00    +0.002 C 
ATOM     22  C   UNL     1       5.213  -0.576  22.084  0.00  0.00    +0.002 C 
ATOM     24  C   UNL     1       5.877   0.314  23.130  0.00  0.00    +0.000 C 
ENDBRANCH  10  18
ENDBRANCH  14   9
BRANCH  15   6
ATOM      6  O   UNL     1      -4.704  -1.272  23.860  0.00  0.00    -0.442 OA
BRANCH   6  25
ATOM      8  O   UNL     1      -3.751   0.440  22.679  0.00  0.00    -0.226 OA
ATOM     11  N   UNL     1      -4.592   0.756  24.842  0.00  0.00    -0.251 N 
ATOM     25  C   UNL     1      -4.293   0.036  23.702  0.00  0.00    +0.405 C 
ATOM     35  H   UNL     1      -5.046   0.241  25.592  0.00  0.00    +0.158 HD
BRANCH  11  26
ATOM     26  C   UNL     1      -4.342   2.123  25.098  0.00  0.00    +0.037 A 
ATOM     27  C   UNL     1      -3.044   2.625  25.010  0.00  0.00    +0.035 A 
ATOM     28  C   UNL     1      -5.396   2.971  25.439  0.00  0.00    +0.023 A 
ATOM     29  C   UNL     1      -2.799   3.974  25.263  0.00  0.00    +0.057 A 
ATOM     30  C   UNL     1      -5.151   4.321  25.692  0.00  0.00    +0.002 A 
ATOM     31  C   UNL     1      -3.852   4.822  25.604  0.00  0.00    +0.012 A 
BRANCH  29  32
ATOM      1  F   UNL     1      -1.330   5.860  25.364  0.00  0.00    -0.166 F 
ATOM      2  F   UNL     1      -0.552   3.968  26.083  0.00  0.00    -0.166 F 
ATOM      3  F   UNL     1      -0.840   4.282  23.951  0.00  0.00    -0.166 F 
ATOM     32  C   UNL     1      -1.411   4.510  25.169  0.00  0.00    +0.417 C 
ENDBRANCH  29  32
ENDBRANCH  11  26
ENDBRANCH   6  25
ENDBRANCH  15   6
TORSDOF 6
ENDMDL
MODEL 5
REMARK VINA RESULT:       2.1      2.892      6.711
REMARK  Name = 11883399
REMARK  6 active torsions:
REMARK  status: ('A' for Active; 'I' for Inactive)
REMARK    1  A    between atoms: O_6  and  C_15
REMARK    2  A    between atoms: O_6  and  C_25
REMARK    3  A    between atoms: N_9  and  C_14
REMARK    4  A    between atoms: N_10  and  C_18
REMARK    5  A    between atoms: N_11  and  C_26
REMARK    6  A    between atoms: C_29  and  C_32
REMARK                            x       y       z     vdW  Elec       q    Type
REMARK                         _______ _______ _______ _____ _____    ______ ____
ROOT
ATOM      4  O   UNL     1      -2.380   2.937  26.187  0.00  0.00    -0.368 OA
ATOM      5  O   UNL     1      -3.782   4.991  24.393  0.00  0.00    -0.368 OA
ATOM     12  C   UNL     1      -3.774   3.548  24.368  0.00  0.00    +0.173 C 
ATOM     13  C   UNL     1      -2.377   3.109  24.761  0.00  0.00    +0.192 C 
ATOM     14  C   UNL     1      -4.647   3.005  25.475  0.00  0.00    +0.131 C 
ATOM     15  C   UNL     1      -1.535   4.290  24.341  0.00  0.00    +0.235 C 
ATOM     16  C   UNL     1      -3.722   3.074  26.678  0.00  0.00    +0.185 C 
ATOM     17  C   UNL     1      -2.448   5.457  24.645  0.00  0.00    +0.207 C 
ENDROOT
BRANCH  14   9
ATOM      7  O   UNL     1      -3.215   1.055  23.922  0.00  0.00    -0.253 OA
ATOM      9  N   UNL     1      -5.056   1.649  25.203  0.00  0.00    -0.292 N 
ATOM     10  N   UNL     1      -4.914  -0.473  24.328  0.00  0.00    -0.297 N 
ATOM     23  C   UNL     1      -4.294   0.769  24.437  0.00  0.00    +0.300 C 
ATOM     33  H   UNL     1      -5.965   1.339  25.530  0.00  0.00    +0.151 HD
ATOM     34  H   UNL     1      -5.840  -0.580  24.732  0.00  0.00    +0.151 HD
BRANCH  10  18
ATOM     18  C   UNL     1      -4.347  -1.580  23.589  0.00  0.00    +0.074 C 
ATOM     19  C   UNL     1      -2.919  -1.263  23.131  0.00  0.00    +0.022 C 
ATOM     20  C   UNL     1      -4.392  -2.872  24.412  0.00  0.00    +0.022 C 
ATOM     21  C   UNL     1      -1.920  -1.259  24.289  0.00  0.00    +0.002 C 
ATOM     22  C   UNL     1      -3.392  -2.866  25.568  0.00  0.00    +0.002 C 
ATOM     24  C   UNL     1      -1.977  -2.559  25.086  0.00  0.00    +0.000 C 
ENDBRANCH  10  18
ENDBRANCH  14   9
BRANCH  15   6
ATOM      6  O   UNL     1      -0.310   4.381  25.033  0.00  0.00    -0.442 OA
BRANCH   6  25
ATOM      8  O   UNL     1       0.886   2.797  26.169  0.00  0.00    -0.226 OA
ATOM     11  N   UNL     1       0.616   2.702  23.845  0.00  0.00    -0.251 N 
ATOM     25  C   UNL     1       0.451   3.233  25.109  0.00  0.00    +0.405 C 
ATOM     35  H   UNL     1       0.175   3.211  23.083  0.00  0.00    +0.158 HD
BRANCH  11  26
ATOM     26  C   UNL     1       1.325   1.536  23.476  0.00  0.00    +0.037 A 
ATOM     27  C   UNL     1       2.713   1.493  23.603  0.00  0.00    +0.035 A 
ATOM     28  C   UNL     1       0.634   0.428  22.984  0.00  0.00    +0.023 A 
ATOM     29  C   UNL     1       3.411   0.342  23.238  0.00  0.00    +0.057 A 
ATOM     30  C   UNL     1       1.332  -0.723  22.619  0.00  0.00    +0.002 A 
ATOM     31  C   UNL     1       2.721  -0.766  22.747  0.00  0.00    +0.012 A 
BRANCH  29  32
ATOM      1  F   UNL     1       5.434   1.441  23.888  0.00  0.00    -0.166 F 
ATOM      2  F   UNL     1       5.338  -0.704  24.194  0.00  0.00    -0.166 F 
ATOM      3  F   UNL     1       5.526   0.097  22.181  0.00  0.00    -0.166 F 
ATOM     32  C   UNL     1       4.895   0.295  23.374  0.00  0.00    +0.417 C 
ENDBRANCH  29  32
ENDBRANCH  11  26
ENDBRANCH   6  25
ENDBRANCH  15   6
TORSDOF 6
ENDMDL
