MODEL 1
REMARK VINA RESULT:      -1.6      0.000      0.000
REMARK  Name = 11943308
REMARK  6 active torsions:
REMARK  status: ('A' for Active; 'I' for Inactive)
REMARK    1  A    between atoms: N_6  and  C_16
REMARK    2  A    between atoms: N_7  and  C_19
REMARK    3  A    between atoms: C_9  and  C_15
REMARK    4  A    between atoms: C_10  and  C_16
REMARK    5  A    between atoms: C_15  and  C_17
REMARK    6  A    between atoms: C_22  and  C_25
REMARK                            x       y       z     vdW  Elec       q    Type
REMARK                         _______ _______ _______ _____ _____    ______ ____
ROOT
ATOM      4  O   UNL     1      -0.555   0.994  25.706  0.00  0.00    -0.253 OA
ATOM      6  N   UNL     1      -0.755   3.295  25.588  0.00  0.00    -0.298 N 
ATOM      7  N   UNL     1       0.740   2.231  24.189  0.00  0.00    -0.269 N 
ATOM     18  C   UNL     1      -0.212   2.059  25.198  0.00  0.00    +0.304 C 
ATOM     26  H   UNL     1      -0.419   4.135  25.126  0.00  0.00    +0.150 HD
ATOM     27  H   UNL     1       0.908   3.186  23.881  0.00  0.00    +0.156 HD
ENDROOT
BRANCH   7  19
ATOM     19  C   UNL     1       1.504   1.235  23.537  0.00  0.00    +0.035 A 
ATOM     20  C   UNL     1       2.867   1.161  23.773  0.00  0.00    +0.035 A 
ATOM     21  C   UNL     1       0.872   0.351  22.678  0.00  0.00    +0.023 A 
ATOM     22  C   UNL     1       3.620   0.179  23.130  0.00  0.00    +0.057 A 
ATOM     23  C   UNL     1       1.624  -0.633  22.035  0.00  0.00    +0.002 A 
ATOM     24  C   UNL     1       2.998  -0.719  22.261  0.00  0.00    +0.012 A 
BRANCH  22  25
ATOM      1  F   UNL     1       5.818  -0.104  22.233  0.00  0.00    -0.166 F 
ATOM      2  F   UNL     1       5.618   1.204  23.950  0.00  0.00    -0.166 F 
ATOM      3  F   UNL     1       5.421  -0.947  24.197  0.00  0.00    -0.166 F 
ATOM     25  C   UNL     1       5.088   0.087  23.371  0.00  0.00    +0.417 C 
ENDBRANCH  22  25
ENDBRANCH   7  19
BRANCH   6  16
ATOM     16  C   UNL     1      -1.754   3.437  26.602  0.00  0.00    +0.124 C 
BRANCH  16  10
ATOM      5  N   UNL     1      -4.127   2.712  26.228  0.00  0.00    -0.298 NA
ATOM      8  C   UNL     1      -4.141   3.402  23.720  0.00  0.00    -0.004 C 
ATOM      9  C   UNL     1      -3.998   1.871  23.869  0.00  0.00    +0.006 C 
ATOM     10  C   UNL     1      -3.114   3.774  25.986  0.00  0.00    +0.074 C 
ATOM     11  C   UNL     1      -2.996   4.097  24.480  0.00  0.00    +0.024 C 
ATOM     12  C   UNL     1      -3.851   1.534  25.370  0.00  0.00    +0.088 C 
ATOM     13  C   UNL     1      -5.457   3.799  24.415  0.00  0.00    +0.019 C 
ATOM     14  C   UNL     1      -5.455   3.255  25.854  0.00  0.00    +0.085 C 
BRANCH   9  15
ATOM     15  C   UNL     1      -2.851   1.288  23.046  0.00  0.00    +0.002 C 
ATOM     17  C   UNL     1      -2.551   2.145  21.832  0.00  0.00    +0.004 C 
ENDBRANCH   9  15
ENDBRANCH  16  10
ENDBRANCH   6  16
TORSDOF 5
ENDMDL
MODEL 2
REMARK VINA RESULT:      -0.7      1.422      2.238
REMARK  Name = 11943308
REMARK  6 active torsions:
REMARK  status: ('A' for Active; 'I' for Inactive)
REMARK    1  A    between atoms: N_6  and  C_16
REMARK    2  A    between atoms: N_7  and  C_19
REMARK    3  A    between atoms: C_9  and  C_15
REMARK    4  A    between atoms: C_10  and  C_16
REMARK    5  A    between atoms: C_15  and  C_17
REMARK    6  A    between atoms: C_22  and  C_25
REMARK                            x       y       z     vdW  Elec       q    Type
REMARK                         _______ _______ _______ _____ _____    ______ ____
ROOT
ATOM      4  O   UNL     1      -0.847  -1.189  23.830  0.00  0.00    -0.253 OA
ATOM      6  N   UNL     1      -1.563   0.599  25.110  0.00  0.00    -0.298 N 
ATOM      7  N   UNL     1       0.486   0.731  24.057  0.00  0.00    -0.269 N 
ATOM     18  C   UNL     1      -0.643  -0.063  24.278  0.00  0.00    +0.304 C 
ATOM     26  H   UNL     1      -1.325   1.528  25.446  0.00  0.00    +0.150 HD
ATOM     27  H   UNL     1       0.496   1.643  24.506  0.00  0.00    +0.156 HD
ENDROOT
BRANCH   7  19
ATOM     19  C   UNL     1       1.626   0.419  23.280  0.00  0.00    +0.035 A 
ATOM     20  C   UNL     1       2.881   0.462  23.866  0.00  0.00    +0.035 A 
ATOM     21  C   UNL     1       1.464   0.075  21.948  0.00  0.00    +0.023 A 
ATOM     22  C   UNL     1       4.004   0.155  23.099  0.00  0.00    +0.057 A 
ATOM     23  C   UNL     1       2.588  -0.232  21.179  0.00  0.00    +0.002 A 
ATOM     24  C   UNL     1       3.857  -0.193  21.756  0.00  0.00    +0.012 A 
BRANCH  22  25
ATOM      1  F   UNL     1       5.490  -0.603  24.813  0.00  0.00    -0.166 F 
ATOM      2  F   UNL     1       6.358  -0.198  22.868  0.00  0.00    -0.166 F 
ATOM      3  F   UNL     1       5.711   1.450  24.130  0.00  0.00    -0.166 F 
ATOM     25  C   UNL     1       5.362   0.198  23.714  0.00  0.00    +0.417 C 
ENDBRANCH  22  25
ENDBRANCH   7  19
BRANCH   6  16
ATOM     16  C   UNL     1      -2.815   0.036  25.512  0.00  0.00    +0.124 C 
BRANCH  16  10
ATOM      5  N   UNL     1      -4.504   1.470  24.335  0.00  0.00    -0.298 NA
ATOM      8  C   UNL     1      -3.830   3.638  25.605  0.00  0.00    -0.004 C 
ATOM      9  C   UNL     1      -3.253   3.637  24.172  0.00  0.00    +0.006 C 
ATOM     10  C   UNL     1      -3.886   1.122  25.642  0.00  0.00    +0.074 C 
ATOM     11  C   UNL     1      -3.341   2.382  26.351  0.00  0.00    +0.024 C 
ATOM     12  C   UNL     1      -3.562   2.272  23.517  0.00  0.00    +0.088 C 
ATOM     13  C   UNL     1      -5.360   3.522  25.473  0.00  0.00    +0.019 C 
ATOM     14  C   UNL     1      -5.704   2.299  24.603  0.00  0.00    +0.085 C 
BRANCH   9  15
ATOM     15  C   UNL     1      -1.763   3.963  24.121  0.00  0.00    +0.002 C 
ATOM     17  C   UNL     1      -1.411   5.094  25.068  0.00  0.00    +0.004 C 
ENDBRANCH   9  15
ENDBRANCH  16  10
ENDBRANCH   6  16
TORSDOF 5
ENDMDL
MODEL 3
REMARK VINA RESULT:      -0.4      1.484      2.495
REMARK  Name = 11943308
REMARK  6 active torsions:
REMARK  status: ('A' for Active; 'I' for Inactive)
REMARK    1  A    between atoms: N_6  and  C_16
REMARK    2  A    between atoms: N_7  and  C_19
REMARK    3  A    between atoms: C_9  and  C_15
REMARK    4  A    between atoms: C_10  and  C_16
REMARK    5  A    between atoms: C_15  and  C_17
REMARK    6  A    between atoms: C_22  and  C_25
REMARK                            x       y       z     vdW  Elec       q    Type
REMARK                         _______ _______ _______ _____ _____    ______ ____
ROOT
ATOM      4  O   UNL     1       0.236   1.755  24.435  0.00  0.00    -0.253 OA
ATOM      6  N   UNL     1      -1.282   0.018  24.607  0.00  0.00    -0.298 N 
ATOM      7  N   UNL     1       0.722  -0.354  23.525  0.00  0.00    -0.269 N 
ATOM     18  C   UNL     1      -0.060   0.585  24.203  0.00  0.00    +0.304 C 
ATOM     26  H   UNL     1      -1.460  -0.955  24.376  0.00  0.00    +0.150 HD
ATOM     27  H   UNL     1       0.325  -1.283  23.417  0.00  0.00    +0.156 HD
ENDROOT
BRANCH   7  19
ATOM     19  C   UNL     1       2.009  -0.170  22.967  0.00  0.00    +0.035 A 
ATOM     20  C   UNL     1       3.119  -0.194  23.795  0.00  0.00    +0.035 A 
ATOM     21  C   UNL     1       2.132   0.028  21.601  0.00  0.00    +0.023 A 
ATOM     22  C   UNL     1       4.387  -0.012  23.242  0.00  0.00    +0.057 A 
ATOM     23  C   UNL     1       3.400   0.209  21.048  0.00  0.00    +0.002 A 
ATOM     24  C   UNL     1       4.527   0.189  21.869  0.00  0.00    +0.012 A 
BRANCH  22  25
ATOM      1  F   UNL     1       5.607   0.964  25.053  0.00  0.00    -0.166 F 
ATOM      2  F   UNL     1       5.731  -1.190  24.832  0.00  0.00    -0.166 F 
ATOM      3  F   UNL     1       6.755   0.106  23.418  0.00  0.00    -0.166 F 
ATOM     25  C   UNL     1       5.593  -0.033  24.120  0.00  0.00    +0.417 C 
ENDBRANCH  22  25
ENDBRANCH   7  19
BRANCH   6  16
ATOM     16  C   UNL     1      -2.291   0.737  25.322  0.00  0.00    +0.124 C 
BRANCH  16  10
ATOM      5  N   UNL     1      -2.773   3.149  25.817  0.00  0.00    -0.298 NA
ATOM      8  C   UNL     1      -4.400   3.433  23.808  0.00  0.00    -0.004 C 
ATOM      9  C   UNL     1      -5.181   3.300  25.135  0.00  0.00    +0.006 C 
ATOM     10  C   UNL     1      -2.455   2.152  24.761  0.00  0.00    +0.074 C 
ATOM     11  C   UNL     1      -3.498   2.199  23.622  0.00  0.00    +0.024 C 
ATOM     12  C   UNL     1      -4.177   2.991  26.268  0.00  0.00    +0.088 C 
ATOM     13  C   UNL     1      -3.474   4.656  23.953  0.00  0.00    +0.019 C 
ATOM     14  C   UNL     1      -2.626   4.502  25.228  0.00  0.00    +0.085 C 
BRANCH   9  15
ATOM     15  C   UNL     1      -6.300   2.263  25.075  0.00  0.00    +0.002 C 
ATOM     17  C   UNL     1      -6.245   1.321  26.261  0.00  0.00    +0.004 C 
ENDBRANCH   9  15
ENDBRANCH  16  10
ENDBRANCH   6  16
TORSDOF 5
ENDMDL
MODEL 4
REMARK VINA RESULT:       0.2      3.542      4.849
REMARK  Name = 11943308
REMARK  6 active torsions:
REMARK  status: ('A' for Active; 'I' for Inactive)
REMARK    1  A    between atoms: N_6  and  C_16
REMARK    2  A    between atoms: N_7  and  C_19
REMARK    3  A    between atoms: C_9  and  C_15
REMARK    4  A    between atoms: C_10  and  C_16
REMARK    5  A    between atoms: C_15  and  C_17
REMARK    6  A    between atoms: C_22  and  C_25
REMARK                            x       y       z     vdW  Elec       q    Type
REMARK                         _______ _______ _______ _____ _____    ______ ____
ROOT
ATOM      4  O   UNL     1      -4.083   1.221  26.238  0.00  0.00    -0.253 OA
ATOM      6  N   UNL     1      -5.291   2.359  24.626  0.00  0.00    -0.298 N 
ATOM      7  N   UNL     1      -4.413   0.288  24.109  0.00  0.00    -0.269 N 
ATOM     18  C   UNL     1      -4.543   1.266  25.099  0.00  0.00    +0.304 C 
ATOM     26  H   UNL     1      -5.636   2.327  23.671  0.00  0.00    +0.150 HD
ATOM     27  H   UNL     1      -4.856   0.484  23.215  0.00  0.00    +0.156 HD
ENDROOT
BRANCH   7  19
ATOM     19  C   UNL     1      -3.736  -0.951  24.197  0.00  0.00    +0.035 A 
ATOM     20  C   UNL     1      -2.431  -0.981  24.662  0.00  0.00    +0.035 A 
ATOM     21  C   UNL     1      -4.393  -2.110  23.818  0.00  0.00    +0.023 A 
ATOM     22  C   UNL     1      -1.765  -2.203  24.748  0.00  0.00    +0.057 A 
ATOM     23  C   UNL     1      -3.727  -3.333  23.904  0.00  0.00    +0.002 A 
ATOM     24  C   UNL     1      -2.413  -3.379  24.370  0.00  0.00    +0.012 A 
BRANCH  22  25
ATOM      1  F   UNL     1       0.092  -3.521  25.480  0.00  0.00    -0.166 F 
ATOM      2  F   UNL     1       0.546  -1.708  24.380  0.00  0.00    -0.166 F 
ATOM      3  F   UNL     1      -0.194  -1.581  26.421  0.00  0.00    -0.166 F 
ATOM     25  C   UNL     1      -0.360  -2.253  25.245  0.00  0.00    +0.417 C 
ENDBRANCH  22  25
ENDBRANCH   7  19
BRANCH   6  16
ATOM     16  C   UNL     1      -5.590   3.514  25.414  0.00  0.00    +0.124 C 
BRANCH  16  10
ATOM      5  N   UNL     1      -3.879   4.600  23.935  0.00  0.00    -0.298 NA
ATOM      8  C   UNL     1      -2.000   4.524  25.732  0.00  0.00    -0.004 C 
ATOM      9  C   UNL     1      -1.795   3.416  24.674  0.00  0.00    +0.006 C 
ATOM     10  C   UNL     1      -4.478   4.559  25.296  0.00  0.00    +0.074 C 
ATOM     11  C   UNL     1      -3.390   4.363  26.375  0.00  0.00    +0.024 C 
ATOM     12  C   UNL     1      -3.011   3.417  23.719  0.00  0.00    +0.088 C 
ATOM     13  C   UNL     1      -1.998   5.868  24.981  0.00  0.00    +0.019 C 
ATOM     14  C   UNL     1      -3.034   5.816  23.844  0.00  0.00    +0.085 C 
BRANCH   9  15
ATOM     15  C   UNL     1      -1.557   2.036  25.282  0.00  0.00    +0.002 C 
ATOM     17  C   UNL     1      -0.201   1.956  25.956  0.00  0.00    +0.004 C 
ENDBRANCH   9  15
ENDBRANCH  16  10
ENDBRANCH   6  16
TORSDOF 5
ENDMDL
MODEL 5
REMARK VINA RESULT:       0.3      2.152      3.106
REMARK  Name = 11943308
REMARK  6 active torsions:
REMARK  status: ('A' for Active; 'I' for Inactive)
REMARK    1  A    between atoms: N_6  and  C_16
REMARK    2  A    between atoms: N_7  and  C_19
REMARK    3  A    between atoms: C_9  and  C_15
REMARK    4  A    between atoms: C_10  and  C_16
REMARK    5  A    between atoms: C_15  and  C_17
REMARK    6  A    between atoms: C_22  and  C_25
REMARK                            x       y       z     vdW  Elec       q    Type
REMARK                         _______ _______ _______ _____ _____    ______ ____
ROOT
ATOM      4  O   UNL     1       0.146  -1.116  25.413  0.00  0.00    -0.253 OA
ATOM      6  N   UNL     1      -1.428  -1.727  23.833  0.00  0.00    -0.298 N 
ATOM      7  N   UNL     1       0.530  -0.727  23.130  0.00  0.00    -0.269 N 
ATOM     18  C   UNL     1      -0.198  -1.176  24.235  0.00  0.00    +0.304 C 
ATOM     26  H   UNL     1      -1.647  -1.740  22.840  0.00  0.00    +0.150 HD
ATOM     27  H   UNL     1       0.096  -0.852  22.219  0.00  0.00    +0.156 HD
ENDROOT
BRANCH   7  19
ATOM     19  C   UNL     1       1.806  -0.116  23.122  0.00  0.00    +0.035 A 
ATOM     20  C   UNL     1       2.921  -0.866  23.454  0.00  0.00    +0.035 A 
ATOM     21  C   UNL     1       1.913   1.222  22.778  0.00  0.00    +0.023 A 
ATOM     22  C   UNL     1       4.179  -0.262  23.445  0.00  0.00    +0.057 A 
ATOM     23  C   UNL     1       3.169   1.827  22.769  0.00  0.00    +0.002 A 
ATOM     24  C   UNL     1       4.302   1.084  23.102  0.00  0.00    +0.012 A 
BRANCH  22  25
ATOM      1  F   UNL     1       5.198  -2.406  23.737  0.00  0.00    -0.166 F 
ATOM      2  F   UNL     1       6.463  -0.809  22.993  0.00  0.00    -0.166 F 
ATOM      3  F   UNL     1       5.824  -0.808  25.072  0.00  0.00    -0.166 F 
ATOM     25  C   UNL     1       5.390  -1.055  23.802  0.00  0.00    +0.417 C 
ENDBRANCH  22  25
ENDBRANCH   7  19
BRANCH   6  16
ATOM     16  C   UNL     1      -2.389  -2.270  24.743  0.00  0.00    +0.124 C 
BRANCH  16  10
ATOM      5  N   UNL     1      -4.240  -0.781  23.936  0.00  0.00    -0.298 NA
ATOM      8  C   UNL     1      -3.421   1.287  25.285  0.00  0.00    -0.004 C 
ATOM      9  C   UNL     1      -3.048   1.420  23.791  0.00  0.00    +0.006 C 
ATOM     10  C   UNL     1      -3.443  -1.223  25.111  0.00  0.00    +0.074 C 
ATOM     11  C   UNL     1      -2.819  -0.015  25.845  0.00  0.00    +0.024 C 
ATOM     12  C   UNL     1      -3.428   0.108  23.069  0.00  0.00    +0.088 C 
ATOM     13  C   UNL     1      -4.953   1.148  25.354  0.00  0.00    +0.019 C 
ATOM     14  C   UNL     1      -5.400  -0.004  24.436  0.00  0.00    +0.085 C 
BRANCH   9  15
ATOM     15  C   UNL     1      -1.582   1.784  23.565  0.00  0.00    +0.002 C 
ATOM     17  C   UNL     1      -1.192   3.023  24.347  0.00  0.00    +0.004 C 
ENDBRANCH   9  15
ENDBRANCH  16  10
ENDBRANCH   6  16
TORSDOF 5
ENDMDL
MODEL 6
REMARK VINA RESULT:       0.5      1.407      1.840
REMARK  Name = 11943308
REMARK  6 active torsions:
REMARK  status: ('A' for Active; 'I' for Inactive)
REMARK    1  A    between atoms: N_6  and  C_16
REMARK    2  A    between atoms: N_7  and  C_19
REMARK    3  A    between atoms: C_9  and  C_15
REMARK    4  A    between atoms: C_10  and  C_16
REMARK    5  A    between atoms: C_15  and  C_17
REMARK    6  A    between atoms: C_22  and  C_25
REMARK                            x       y       z     vdW  Elec       q    Type
REMARK                         _______ _______ _______ _____ _____    ______ ____
ROOT
ATOM      4  O   UNL     1      -0.335   2.671  25.108  0.00  0.00    -0.253 OA
ATOM      6  N   UNL     1      -1.843   3.173  23.428  0.00  0.00    -0.298 N 
ATOM      7  N   UNL     1      -0.244   1.554  23.045  0.00  0.00    -0.269 N 
ATOM     18  C   UNL     1      -0.752   2.470  23.970  0.00  0.00    +0.304 C 
ATOM     26  H   UNL     1      -2.130   2.956  22.478  0.00  0.00    +0.150 HD
ATOM     27  H   UNL     1      -0.708   1.515  22.141  0.00  0.00    +0.156 HD
ENDROOT
BRANCH   7  19
ATOM     19  C   UNL     1       0.845   0.666  23.212  0.00  0.00    +0.035 A 
ATOM     20  C   UNL     1       2.138   1.144  23.076  0.00  0.00    +0.035 A 
ATOM     21  C   UNL     1       0.595  -0.663  23.511  0.00  0.00    +0.023 A 
ATOM     22  C   UNL     1       3.211   0.268  23.241  0.00  0.00    +0.057 A 
ATOM     23  C   UNL     1       1.667  -1.540  23.676  0.00  0.00    +0.002 A 
ATOM     24  C   UNL     1       2.975  -1.074  23.541  0.00  0.00    +0.012 A 
BRANCH  22  25
ATOM      1  F   UNL     1       4.688   2.090  22.773  0.00  0.00    -0.166 F 
ATOM      2  F   UNL     1       5.357   0.632  24.231  0.00  0.00    -0.166 F 
ATOM      3  F   UNL     1       5.302   0.109  22.121  0.00  0.00    -0.166 F 
ATOM     25  C   UNL     1       4.609   0.765  23.096  0.00  0.00    +0.417 C 
ENDBRANCH  22  25
ENDBRANCH   7  19
BRANCH   6  16
ATOM     16  C   UNL     1      -2.570   4.178  24.140  0.00  0.00    +0.124 C 
BRANCH  16  10
ATOM      5  N   UNL     1      -4.083   3.182  25.877  0.00  0.00    -0.298 NA
ATOM      8  C   UNL     1      -5.176   1.492  24.229  0.00  0.00    -0.004 C 
ATOM      9  C   UNL     1      -4.142   0.788  25.136  0.00  0.00    +0.006 C 
ATOM     10  C   UNL     1      -3.980   3.692  24.484  0.00  0.00    +0.074 C 
ATOM     11  C   UNL     1      -4.487   2.642  23.470  0.00  0.00    +0.024 C 
ATOM     12  C   UNL     1      -3.425   1.858  25.990  0.00  0.00    +0.088 C 
ATOM     13  C   UNL     1      -6.228   2.126  25.158  0.00  0.00    +0.019 C 
ATOM     14  C   UNL     1      -5.520   3.013  26.197  0.00  0.00    +0.085 C 
BRANCH   9  15
ATOM     15  C   UNL     1      -3.148  -0.075  24.361  0.00  0.00    +0.002 C 
ATOM     17  C   UNL     1      -3.841  -1.231  23.668  0.00  0.00    +0.004 C 
ENDBRANCH   9  15
ENDBRANCH  16  10
ENDBRANCH   6  16
TORSDOF 5
ENDMDL
MODEL 7
REMARK VINA RESULT:       0.9      4.694      6.698
REMARK  Name = 11943308
REMARK  6 active torsions:
REMARK  status: ('A' for Active; 'I' for Inactive)
REMARK    1  A    between atoms: N_6  and  C_16
REMARK    2  A    between atoms: N_7  and  C_19
REMARK    3  A    between atoms: C_9  and  C_15
REMARK    4  A    between atoms: C_10  and  C_16
REMARK    5  A    between atoms: C_15  and  C_17
REMARK    6  A    between atoms: C_22  and  C_25
REMARK                            x       y       z     vdW  Elec       q    Type
REMARK                         _______ _______ _______ _____ _____    ______ ____
ROOT
ATOM      4  O   UNL     1      -1.921   0.824  23.357  0.00  0.00    -0.253 OA
ATOM      6  N   UNL     1      -0.049  -0.375  23.994  0.00  0.00    -0.298 N 
ATOM      7  N   UNL     1      -0.234   1.833  24.640  0.00  0.00    -0.269 N 
ATOM     18  C   UNL     1      -0.843   0.784  23.945  0.00  0.00    +0.304 C 
ATOM     26  H   UNL     1       0.833  -0.333  24.497  0.00  0.00    +0.150 HD
ATOM     27  H   UNL     1       0.665   1.630  25.071  0.00  0.00    +0.156 HD
ENDROOT
BRANCH   7  19
ATOM     19  C   UNL     1      -0.715   3.151  24.818  0.00  0.00    +0.035 A 
ATOM     20  C   UNL     1      -1.874   3.359  25.547  0.00  0.00    +0.035 A 
ATOM     21  C   UNL     1      -0.014   4.208  24.261  0.00  0.00    +0.023 A 
ATOM     22  C   UNL     1      -2.347   4.659  25.722  0.00  0.00    +0.057 A 
ATOM     23  C   UNL     1      -0.486   5.509  24.436  0.00  0.00    +0.002 A 
ATOM     24  C   UNL     1      -1.652   5.734  25.167  0.00  0.00    +0.012 A 
BRANCH  22  25
ATOM      1  F   UNL     1      -3.751   6.199  26.897  0.00  0.00    -0.166 F 
ATOM      2  F   UNL     1      -4.736   4.597  25.817  0.00  0.00    -0.166 F 
ATOM      3  F   UNL     1      -3.648   4.161  27.649  0.00  0.00    -0.166 F 
ATOM     25  C   UNL     1      -3.594   4.900  26.503  0.00  0.00    +0.417 C 
ENDBRANCH  22  25
ENDBRANCH   7  19
BRANCH   6  16
ATOM     16  C   UNL     1      -0.413  -1.611  23.373  0.00  0.00    +0.124 C 
BRANCH  16  10
ATOM      5  N   UNL     1      -2.653  -2.712  23.623  0.00  0.00    -0.298 NA
ATOM      8  C   UNL     1      -3.045  -1.802  26.028  0.00  0.00    -0.004 C 
ATOM      9  C   UNL     1      -3.871  -1.003  24.995  0.00  0.00    +0.006 C 
ATOM     10  C   UNL     1      -1.349  -2.420  24.274  0.00  0.00    +0.074 C 
ATOM     11  C   UNL     1      -1.554  -1.739  25.646  0.00  0.00    +0.024 C 
ATOM     12  C   UNL     1      -3.492  -1.490  23.578  0.00  0.00    +0.088 C 
ATOM     13  C   UNL     1      -3.483  -3.274  25.911  0.00  0.00    +0.019 C 
ATOM     14  C   UNL     1      -3.358  -3.726  24.444  0.00  0.00    +0.085 C 
BRANCH   9  15
ATOM     15  C   UNL     1      -3.710   0.509  25.134  0.00  0.00    +0.002 C 
ATOM     17  C   UNL     1      -5.048   1.217  25.056  0.00  0.00    +0.004 C 
ENDBRANCH   9  15
ENDBRANCH  16  10
ENDBRANCH   6  16
TORSDOF 5
ENDMDL
MODEL 8
REMARK VINA RESULT:       1.5      1.426      2.659
REMARK  Name = 11943308
REMARK  6 active torsions:
REMARK  status: ('A' for Active; 'I' for Inactive)
REMARK    1  A    between atoms: N_6  and  C_16
REMARK    2  A    between atoms: N_7  and  C_19
REMARK    3  A    between atoms: C_9  and  C_15
REMARK    4  A    between atoms: C_10  and  C_16
REMARK    5  A    between atoms: C_15  and  C_17
REMARK    6  A    between atoms: C_22  and  C_25
REMARK                            x       y       z     vdW  Elec       q    Type
REMARK                         _______ _______ _______ _____ _____    ______ ____
ROOT
ATOM      4  O   UNL     1      -0.332   0.312  24.235  0.00  0.00    -0.253 OA
ATOM      6  N   UNL     1      -0.529   2.489  24.991  0.00  0.00    -0.298 N 
ATOM      7  N   UNL     1       1.418   1.846  23.930  0.00  0.00    -0.269 N 
ATOM     18  C   UNL     1       0.154   1.433  24.363  0.00  0.00    +0.304 C 
ATOM     26  H   UNL     1      -0.061   3.388  25.063  0.00  0.00    +0.150 HD
ATOM     27  H   UNL     1       1.667   2.814  24.117  0.00  0.00    +0.156 HD
ENDROOT
BRANCH   7  19
ATOM     19  C   UNL     1       2.399   1.080  23.259  0.00  0.00    +0.035 A 
ATOM     20  C   UNL     1       3.662   0.956  23.815  0.00  0.00    +0.035 A 
ATOM     21  C   UNL     1       2.076   0.467  22.060  0.00  0.00    +0.023 A 
ATOM     22  C   UNL     1       4.629   0.200  23.153  0.00  0.00    +0.057 A 
ATOM     23  C   UNL     1       3.042  -0.290  21.396  0.00  0.00    +0.002 A 
ATOM     24  C   UNL     1       4.318  -0.423  21.943  0.00  0.00    +0.012 A 
BRANCH  22  25
ATOM      1  F   UNL     1       6.060  -0.851  24.755  0.00  0.00    -0.166 F 
ATOM      2  F   UNL     1       6.934  -0.351  22.835  0.00  0.00    -0.166 F 
ATOM      3  F   UNL     1       6.467   1.227  24.257  0.00  0.00    -0.166 F 
ATOM     25  C   UNL     1       5.993   0.057  23.736  0.00  0.00    +0.417 C 
ENDBRANCH  22  25
ENDBRANCH   7  19
BRANCH   6  16
ATOM     16  C   UNL     1      -1.845   2.367  25.537  0.00  0.00    +0.124 C 
BRANCH  16  10
ATOM      5  N   UNL     1      -3.198   1.370  23.674  0.00  0.00    -0.298 NA
ATOM      8  C   UNL     1      -4.859   0.163  25.271  0.00  0.00    -0.004 C 
ATOM      9  C   UNL     1      -5.497   1.436  24.672  0.00  0.00    +0.006 C 
ATOM     10  C   UNL     1      -2.550   1.123  24.990  0.00  0.00    +0.074 C 
ATOM     11  C   UNL     1      -3.560   0.543  26.006  0.00  0.00    +0.024 C 
ATOM     12  C   UNL     1      -4.424   2.185  23.849  0.00  0.00    +0.088 C 
ATOM     13  C   UNL     1      -4.466  -0.742  24.089  0.00  0.00    +0.019 C 
ATOM     14  C   UNL     1      -3.592   0.058  23.106  0.00  0.00    +0.085 C 
BRANCH   9  15
ATOM     15  C   UNL     1      -6.138   2.342  25.721  0.00  0.00    +0.002 C 
ATOM     17  C   UNL     1      -5.523   3.728  25.705  0.00  0.00    +0.004 C 
ENDBRANCH   9  15
ENDBRANCH  16  10
ENDBRANCH   6  16
TORSDOF 5
ENDMDL
MODEL 9
REMARK VINA RESULT:       2.1      1.805      2.823
REMARK  Name = 11943308
REMARK  6 active torsions:
REMARK  status: ('A' for Active; 'I' for Inactive)
REMARK    1  A    between atoms: N_6  and  C_16
REMARK    2  A    between atoms: N_7  and  C_19
REMARK    3  A    between atoms: C_9  and  C_15
REMARK    4  A    between atoms: C_10  and  C_16
REMARK    5  A    between atoms: C_15  and  C_17
REMARK    6  A    between atoms: C_22  and  C_25
REMARK                            x       y       z     vdW  Elec       q    Type
REMARK                         _______ _______ _______ _____ _____    ______ ____
ROOT
ATOM      4  O   UNL     1      -1.700  -0.154  25.649  0.00  0.00    -0.253 OA
ATOM      6  N   UNL     1      -3.151   0.303  23.906  0.00  0.00    -0.298 N 
ATOM      7  N   UNL     1      -0.954  -0.214  23.424  0.00  0.00    -0.269 N 
ATOM     18  C   UNL     1      -1.896  -0.039  24.441  0.00  0.00    +0.304 C 
ATOM     26  H   UNL     1      -3.237   0.384  22.897  0.00  0.00    +0.150 HD
ATOM     27  H   UNL     1      -1.283  -0.078  22.471  0.00  0.00    +0.156 HD
ENDROOT
BRANCH   7  19
ATOM     19  C   UNL     1       0.412  -0.560  23.556  0.00  0.00    +0.035 A 
ATOM     20  C   UNL     1       1.374   0.230  22.949  0.00  0.00    +0.035 A 
ATOM     21  C   UNL     1       0.758  -1.680  24.292  0.00  0.00    +0.023 A 
ATOM     22  C   UNL     1       2.720  -0.111  23.080  0.00  0.00    +0.057 A 
ATOM     23  C   UNL     1       2.104  -2.023  24.424  0.00  0.00    +0.002 A 
ATOM     24  C   UNL     1       3.085  -1.238  23.818  0.00  0.00    +0.012 A 
BRANCH  22  25
ATOM      1  F   UNL     1       3.663   2.057  22.723  0.00  0.00    -0.166 F 
ATOM      2  F   UNL     1       5.042   0.385  22.789  0.00  0.00    -0.166 F 
ATOM      3  F   UNL     1       3.737   0.648  21.069  0.00  0.00    -0.166 F 
ATOM     25  C   UNL     1       3.769   0.727  22.431  0.00  0.00    +0.417 C 
ENDBRANCH  22  25
ENDBRANCH   7  19
BRANCH   6  16
ATOM     16  C   UNL     1      -4.312   0.545  24.704  0.00  0.00    +0.124 C 
BRANCH  16  10
ATOM      5  N   UNL     1      -3.914   2.820  23.724  0.00  0.00    -0.298 NA
ATOM      8  C   UNL     1      -3.628   3.975  26.038  0.00  0.00    -0.004 C 
ATOM      9  C   UNL     1      -2.258   3.755  25.358  0.00  0.00    +0.006 C 
ATOM     10  C   UNL     1      -4.626   2.042  24.773  0.00  0.00    +0.074 C 
ATOM     11  C   UNL     1      -4.349   2.621  26.178  0.00  0.00    +0.024 C 
ATOM     12  C   UNL     1      -2.475   2.942  24.062  0.00  0.00    +0.088 C 
ATOM     13  C   UNL     1      -4.469   4.842  25.082  0.00  0.00    +0.019 C 
ATOM     14  C   UNL     1      -4.498   4.183  23.691  0.00  0.00    +0.085 C 
BRANCH   9  15
ATOM     15  C   UNL     1      -1.229   3.094  26.273  0.00  0.00    +0.002 C 
ATOM     17  C   UNL     1       0.076   2.838  25.545  0.00  0.00    +0.004 C 
ENDBRANCH   9  15
ENDBRANCH  16  10
ENDBRANCH   6  16
TORSDOF 5
ENDMDL
