MODEL 1
REMARK VINA RESULT:      -3.7      0.000      0.000
REMARK  Name = 26745439
REMARK  5 active torsions:
REMARK  status: ('A' for Active; 'I' for Inactive)
REMARK    1  A    between atoms: N_4  and  C_13
REMARK    2  A    between atoms: N_7  and  C_17
REMARK    3  A    between atoms: C_8  and  C_14
REMARK    4  A    between atoms: C_13  and  C_15
REMARK    5  A    between atoms: C_17  and  C_19
REMARK                            x       y       z     vdW  Elec       q    Type
REMARK                         _______ _______ _______ _____ _____    ______ ____
ROOT
ATOM      4  N   UNL     1      -2.552   1.218  25.266  0.00  0.00    -0.281 NA
ATOM      5  N   UNL     1      -4.196  -1.765  23.746  0.00  0.00    -0.347 N 
ATOM      6  N   UNL     1      -2.585  -2.914  24.787  0.00  0.00    -0.240 NA
ATOM      8  C   UNL     1      -1.209   0.595  25.365  0.00  0.00    +0.150 C 
ATOM      9  C   UNL     1      -1.264  -0.930  25.665  0.00  0.00    +0.085 C 
ATOM     10  C   UNL     1      -3.434   0.633  24.230  0.00  0.00    +0.140 C 
ATOM     11  C   UNL     1      -3.358  -0.843  24.296  0.00  0.00    +0.053 A 
ATOM     12  C   UNL     1      -2.377  -1.571  24.924  0.00  0.00    +0.065 A 
ATOM     16  C   UNL     1      -3.688  -2.999  24.070  0.00  0.00    +0.197 A 
ATOM     27  H   UNL     1      -5.028  -1.582  23.202  0.00  0.00    +0.167 HD
ENDROOT
BRANCH   8  14
ATOM      3  O   UNL     1      -0.501   1.915  23.502  0.00  0.00    -0.274 OA
ATOM      7  N   UNL     1       0.342  -0.242  23.738  0.00  0.00    -0.310 N 
ATOM     14  C   UNL     1      -0.424   0.850  24.108  0.00  0.00    +0.231 C 
ATOM     28  H   UNL     1       0.331  -1.081  24.310  0.00  0.00    +0.149 HD
BRANCH   7  17
ATOM     17  C   UNL     1       1.171  -0.261  22.554  0.00  0.00    +0.139 C 
BRANCH  17  19
ATOM      1 CL   UNL     1       7.027  -0.075  23.903  0.00  0.00    -0.084 Cl
ATOM     19  C   UNL     1       2.633  -0.214  22.891  0.00  0.00    -0.030 A 
ATOM     22  C   UNL     1       3.247  -1.317  23.486  0.00  0.00    +0.006 A 
ATOM     23  C   UNL     1       3.377   0.932  22.610  0.00  0.00    +0.006 A 
ATOM     24  C   UNL     1       4.605  -1.274  23.799  0.00  0.00    +0.020 A 
ATOM     25  C   UNL     1       4.735   0.975  22.924  0.00  0.00    +0.020 A 
ATOM     26  C   UNL     1       5.350  -0.128  23.519  0.00  0.00    +0.041 A 
ENDBRANCH  17  19
ENDBRANCH   7  17
ENDBRANCH   8  14
BRANCH   4  13
ATOM     13  C   UNL     1      -2.510   2.674  25.168  0.00  0.00    +0.128 C 
BRANCH  13  15
ATOM      2  S   UNL     1      -5.207   2.289  25.710  0.00  0.00    -0.100 S 
ATOM     15  C   UNL     1      -3.872   3.287  25.320  0.00  0.00    +0.004 A 
ATOM     18  C   UNL     1      -4.237   4.609  25.184  0.00  0.00    +0.012 A 
ATOM     20  C   UNL     1      -5.631   4.805  25.405  0.00  0.00    +0.008 A 
ATOM     21  C   UNL     1      -6.279   3.626  25.700  0.00  0.00    +0.045 A 
ENDBRANCH  13  15
ENDBRANCH   4  13
TORSDOF 5
ENDMDL
MODEL 2
REMARK VINA RESULT:      -2.1      1.556      1.814
REMARK  Name = 26745439
REMARK  5 active torsions:
REMARK  status: ('A' for Active; 'I' for Inactive)
REMARK    1  A    between atoms: N_4  and  C_13
REMARK    2  A    between atoms: N_7  and  C_17
REMARK    3  A    between atoms: C_8  and  C_14
REMARK    4  A    between atoms: C_13  and  C_15
REMARK    5  A    between atoms: C_17  and  C_19
REMARK                            x       y       z     vdW  Elec       q    Type
REMARK                         _______ _______ _______ _____ _____    ______ ____
ROOT
ATOM      4  N   UNL     1      -1.731   0.936  24.525  0.00  0.00    -0.281 NA
ATOM      5  N   UNL     1      -4.359  -1.548  23.610  0.00  0.00    -0.347 N 
ATOM      6  N   UNL     1      -3.624  -2.663  25.404  0.00  0.00    -0.240 NA
ATOM      8  C   UNL     1      -0.860  -0.042  25.224  0.00  0.00    +0.150 C 
ATOM      9  C   UNL     1      -1.660  -1.153  25.963  0.00  0.00    +0.085 C 
ATOM     10  C   UNL     1      -2.638   0.347  23.512  0.00  0.00    +0.140 C 
ATOM     11  C   UNL     1      -3.269  -0.871  24.066  0.00  0.00    +0.053 A 
ATOM     12  C   UNL     1      -2.834  -1.576  25.162  0.00  0.00    +0.065 A 
ATOM     16  C   UNL     1      -4.533  -2.621  24.450  0.00  0.00    +0.197 A 
ATOM     27  H   UNL     1      -4.929  -1.314  22.809  0.00  0.00    +0.167 HD
ENDROOT
BRANCH   8  14
ATOM      3  O   UNL     1       0.490  -1.820  24.368  0.00  0.00    -0.274 OA
ATOM      7  N   UNL     1       0.519   0.239  23.281  0.00  0.00    -0.310 N 
ATOM     14  C   UNL     1       0.112  -0.657  24.256  0.00  0.00    +0.231 C 
ATOM     28  H   UNL     1       0.148   1.184  23.281  0.00  0.00    +0.149 HD
BRANCH   7  17
ATOM     17  C   UNL     1       1.468  -0.098  22.245  0.00  0.00    +0.139 C 
BRANCH  17  19
ATOM      1 CL   UNL     1       7.119  -0.143  24.295  0.00  0.00    -0.084 Cl
ATOM     19  C   UNL     1       2.879  -0.108  22.757  0.00  0.00    -0.030 A 
ATOM     22  C   UNL     1       3.402  -1.266  23.334  0.00  0.00    +0.006 A 
ATOM     23  C   UNL     1       3.666   1.038  22.655  0.00  0.00    +0.006 A 
ATOM     24  C   UNL     1       4.713  -1.276  23.810  0.00  0.00    +0.020 A 
ATOM     25  C   UNL     1       4.977   1.028  23.132  0.00  0.00    +0.020 A 
ATOM     26  C   UNL     1       5.501  -0.129  23.709  0.00  0.00    +0.041 A 
ENDBRANCH  17  19
ENDBRANCH   7  17
ENDBRANCH   8  14
BRANCH   4  13
ATOM     13  C   UNL     1      -1.002   2.079  23.985  0.00  0.00    +0.128 C 
BRANCH  13  15
ATOM      2  S   UNL     1      -3.003   3.445  25.345  0.00  0.00    -0.100 S 
ATOM     15  C   UNL     1      -1.475   3.376  24.576  0.00  0.00    +0.004 A 
ATOM     18  C   UNL     1      -0.831   4.594  24.595  0.00  0.00    +0.012 A 
ATOM     20  C   UNL     1      -1.602   5.597  25.251  0.00  0.00    +0.008 A 
ATOM     21  C   UNL     1      -2.806   5.108  25.708  0.00  0.00    +0.045 A 
ENDBRANCH  13  15
ENDBRANCH   4  13
TORSDOF 5
ENDMDL
MODEL 3
REMARK VINA RESULT:      -1.1      3.656      7.217
REMARK  Name = 26745439
REMARK  5 active torsions:
REMARK  status: ('A' for Active; 'I' for Inactive)
REMARK    1  A    between atoms: N_4  and  C_13
REMARK    2  A    between atoms: N_7  and  C_17
REMARK    3  A    between atoms: C_8  and  C_14
REMARK    4  A    between atoms: C_13  and  C_15
REMARK    5  A    between atoms: C_17  and  C_19
REMARK                            x       y       z     vdW  Elec       q    Type
REMARK                         _______ _______ _______ _____ _____    ______ ____
ROOT
ATOM      4  N   UNL     1       0.402   1.324  23.449  0.00  0.00    -0.281 NA
ATOM      5  N   UNL     1      -2.734   3.340  23.576  0.00  0.00    -0.347 N 
ATOM      6  N   UNL     1      -2.060   3.860  25.644  0.00  0.00    -0.240 NA
ATOM      8  C   UNL     1       0.488   1.117  24.916  0.00  0.00    +0.150 C 
ATOM      9  C   UNL     1      -0.033   2.332  25.736  0.00  0.00    +0.085 C 
ATOM     10  C   UNL     1      -0.961   1.604  22.940  0.00  0.00    +0.140 C 
ATOM     11  C   UNL     1      -1.621   2.593  23.819  0.00  0.00    +0.053 A 
ATOM     12  C   UNL     1      -1.230   2.926  25.093  0.00  0.00    +0.065 A 
ATOM     16  C   UNL     1      -2.958   4.088  24.706  0.00  0.00    +0.197 A 
ATOM     27  H   UNL     1      -3.291   3.343  22.733  0.00  0.00    +0.167 HD
ENDROOT
BRANCH   8  14
ATOM      3  O   UNL     1       0.007  -1.223  24.812  0.00  0.00    -0.274 OA
ATOM      7  N   UNL     1      -1.241   0.119  26.247  0.00  0.00    -0.310 N 
ATOM     14  C   UNL     1      -0.254  -0.131  25.309  0.00  0.00    +0.231 C 
ATOM     28  H   UNL     1      -1.380   1.064  26.592  0.00  0.00    +0.149 HD
BRANCH   7  17
ATOM     17  C   UNL     1      -2.111  -0.909  26.772  0.00  0.00    +0.139 C 
BRANCH  17  19
ATOM      1 CL   UNL     1      -5.431  -3.468  22.461  0.00  0.00    -0.084 Cl
ATOM     19  C   UNL     1      -2.940  -1.547  25.694  0.00  0.00    -0.030 A 
ATOM     22  C   UNL     1      -2.872  -2.925  25.489  0.00  0.00    +0.006 A 
ATOM     23  C   UNL     1      -3.777  -0.763  24.901  0.00  0.00    +0.006 A 
ATOM     24  C   UNL     1      -3.642  -3.519  24.488  0.00  0.00    +0.020 A 
ATOM     25  C   UNL     1      -4.546  -1.356  23.901  0.00  0.00    +0.020 A 
ATOM     26  C   UNL     1      -4.479  -2.735  23.694  0.00  0.00    +0.041 A 
ENDBRANCH  17  19
ENDBRANCH   7  17
ENDBRANCH   8  14
BRANCH   4  13
ATOM     13  C   UNL     1       1.053   0.271  22.676  0.00  0.00    +0.128 C 
BRANCH  13  15
ATOM      2  S   UNL     1       3.248  -1.210  23.514  0.00  0.00    -0.100 S 
ATOM     15  C   UNL     1       2.534   0.228  22.920  0.00  0.00    +0.004 A 
ATOM     18  C   UNL     1       3.463   1.227  22.730  0.00  0.00    +0.012 A 
ATOM     20  C   UNL     1       4.780   0.806  23.075  0.00  0.00    +0.008 A 
ATOM     21  C   UNL     1       4.807  -0.500  23.517  0.00  0.00    +0.045 A 
ENDBRANCH  13  15
ENDBRANCH   4  13
TORSDOF 5
ENDMDL
MODEL 4
REMARK VINA RESULT:      -1.1      3.635      6.257
REMARK  Name = 26745439
REMARK  5 active torsions:
REMARK  status: ('A' for Active; 'I' for Inactive)
REMARK    1  A    between atoms: N_4  and  C_13
REMARK    2  A    between atoms: N_7  and  C_17
REMARK    3  A    between atoms: C_8  and  C_14
REMARK    4  A    between atoms: C_13  and  C_15
REMARK    5  A    between atoms: C_17  and  C_19
REMARK                            x       y       z     vdW  Elec       q    Type
REMARK                         _______ _______ _______ _____ _____    ______ ____
ROOT
ATOM      4  N   UNL     1      -1.483   3.681  24.220  0.00  0.00    -0.281 NA
ATOM      5  N   UNL     1      -4.996   2.431  24.295  0.00  0.00    -0.347 N 
ATOM      6  N   UNL     1      -5.101   3.484  26.265  0.00  0.00    -0.240 NA
ATOM      8  C   UNL     1      -1.341   3.770  25.694  0.00  0.00    +0.150 C 
ATOM      9  C   UNL     1      -2.661   4.174  26.412  0.00  0.00    +0.085 C 
ATOM     10  C   UNL     1      -2.510   2.722  23.751  0.00  0.00    +0.140 C 
ATOM     11  C   UNL     1      -3.740   2.884  24.558  0.00  0.00    +0.053 A 
ATOM     12  C   UNL     1      -3.828   3.522  25.771  0.00  0.00    +0.065 A 
ATOM     16  C   UNL     1      -5.781   2.817  25.354  0.00  0.00    +0.197 A 
ATOM     27  H   UNL     1      -5.297   1.908  23.484  0.00  0.00    +0.167 HD
ENDROOT
BRANCH   8  14
ATOM      3  O   UNL     1       0.184   2.415  26.942  0.00  0.00    -0.274 OA
ATOM      7  N   UNL     1      -1.602   1.391  25.855  0.00  0.00    -0.310 N 
ATOM     14  C   UNL     1      -0.826   2.469  26.245  0.00  0.00    +0.231 C 
ATOM     28  H   UNL     1      -2.418   1.544  25.271  0.00  0.00    +0.149 HD
BRANCH   7  17
ATOM     17  C   UNL     1      -1.307   0.027  26.232  0.00  0.00    +0.139 C 
BRANCH  17  19
ATOM      1 CL   UNL     1      -4.711  -3.917  23.232  0.00  0.00    -0.084 Cl
ATOM     19  C   UNL     1      -2.156  -0.959  25.484  0.00  0.00    -0.030 A 
ATOM     22  C   UNL     1      -3.465  -0.624  25.132  0.00  0.00    +0.006 A 
ATOM     23  C   UNL     1      -1.638  -2.206  25.140  0.00  0.00    +0.006 A 
ATOM     24  C   UNL     1      -4.255  -1.540  24.437  0.00  0.00    +0.020 A 
ATOM     25  C   UNL     1      -2.428  -3.122  24.445  0.00  0.00    +0.020 A 
ATOM     26  C   UNL     1      -3.737  -2.788  24.093  0.00  0.00    +0.041 A 
ENDBRANCH  17  19
ENDBRANCH   7  17
ENDBRANCH   8  14
BRANCH   4  13
ATOM     13  C   UNL     1      -0.215   3.484  23.525  0.00  0.00    +0.128 C 
BRANCH  13  15
ATOM      2  S   UNL     1       1.640   1.425  23.714  0.00  0.00    -0.100 S 
ATOM     15  C   UNL     1       0.090   2.030  23.312  0.00  0.00    +0.004 A 
ATOM     18  C   UNL     1      -0.735   1.045  22.811  0.00  0.00    +0.012 A 
ATOM     20  C   UNL     1      -0.085  -0.222  22.758  0.00  0.00    +0.008 A 
ATOM     21  C   UNL     1       1.212  -0.158  23.220  0.00  0.00    +0.045 A 
ENDBRANCH  13  15
ENDBRANCH   4  13
TORSDOF 5
ENDMDL
MODEL 5
REMARK VINA RESULT:      -0.9      4.220      6.903
REMARK  Name = 26745439
REMARK  5 active torsions:
REMARK  status: ('A' for Active; 'I' for Inactive)
REMARK    1  A    between atoms: N_4  and  C_13
REMARK    2  A    between atoms: N_7  and  C_17
REMARK    3  A    between atoms: C_8  and  C_14
REMARK    4  A    between atoms: C_13  and  C_15
REMARK    5  A    between atoms: C_17  and  C_19
REMARK                            x       y       z     vdW  Elec       q    Type
REMARK                         _______ _______ _______ _____ _____    ______ ____
ROOT
ATOM      4  N   UNL     1       0.479   1.844  25.772  0.00  0.00    -0.281 NA
ATOM      5  N   UNL     1      -1.350  -1.405  25.679  0.00  0.00    -0.347 N 
ATOM      6  N   UNL     1      -0.654  -1.490  23.556  0.00  0.00    -0.240 NA
ATOM      8  C   UNL     1       0.358   2.108  24.316  0.00  0.00    +0.150 C 
ATOM      9  C   UNL     1       0.412   0.814  23.455  0.00  0.00    +0.085 C 
ATOM     10  C   UNL     1      -0.556   0.943  26.329  0.00  0.00    +0.140 C 
ATOM     11  C   UNL     1      -0.735  -0.217  25.427  0.00  0.00    +0.053 A 
ATOM     12  C   UNL     1      -0.321  -0.290  24.119  0.00  0.00    +0.065 A 
ATOM     16  C   UNL     1      -1.275  -2.139  24.521  0.00  0.00    +0.197 A 
ATOM     27  H   UNL     1      -1.782  -1.694  26.546  0.00  0.00    +0.167 HD
ENDROOT
BRANCH   8  14
ATOM      3  O   UNL     1      -1.066   4.026  24.414  0.00  0.00    -0.274 OA
ATOM      7  N   UNL     1      -1.828   2.113  23.328  0.00  0.00    -0.310 N 
ATOM     14  C   UNL     1      -0.906   2.871  24.030  0.00  0.00    +0.231 C 
ATOM     28  H   UNL     1      -1.598   1.161  23.062  0.00  0.00    +0.149 HD
BRANCH   7  17
ATOM     17  C   UNL     1      -3.133   2.607  22.950  0.00  0.00    +0.139 C 
BRANCH  17  19
ATOM      1 CL   UNL     1      -7.212   1.716  27.275  0.00  0.00    -0.084 Cl
ATOM     19  C   UNL     1      -4.152   2.386  24.030  0.00  0.00    -0.030 A 
ATOM     22  C   UNL     1      -4.506   1.087  24.397  0.00  0.00    +0.006 A 
ATOM     23  C   UNL     1      -4.744   3.477  24.665  0.00  0.00    +0.006 A 
ATOM     24  C   UNL     1      -5.453   0.880  25.401  0.00  0.00    +0.020 A 
ATOM     25  C   UNL     1      -5.691   3.270  25.667  0.00  0.00    +0.020 A 
ATOM     26  C   UNL     1      -6.046   1.972  26.036  0.00  0.00    +0.041 A 
ENDBRANCH  17  19
ENDBRANCH   7  17
ENDBRANCH   8  14
BRANCH   4  13
ATOM     13  C   UNL     1       0.614   3.058  26.571  0.00  0.00    +0.128 C 
BRANCH  13  15
ATOM      2  S   UNL     1       2.756   2.704  28.303  0.00  0.00    -0.100 S 
ATOM     15  C   UNL     1       1.078   2.763  27.968  0.00  0.00    +0.004 A 
ATOM     18  C   UNL     1       0.319   2.515  29.090  0.00  0.00    +0.012 A 
ATOM     20  C   UNL     1       1.124   2.276  30.241  0.00  0.00    +0.008 A 
ATOM     21  C   UNL     1       2.470   2.349  29.954  0.00  0.00    +0.045 A 
ENDBRANCH  13  15
ENDBRANCH   4  13
TORSDOF 5
ENDMDL
MODEL 6
REMARK VINA RESULT:      -0.7      1.459      2.233
REMARK  Name = 26745439
REMARK  5 active torsions:
REMARK  status: ('A' for Active; 'I' for Inactive)
REMARK    1  A    between atoms: N_4  and  C_13
REMARK    2  A    between atoms: N_7  and  C_17
REMARK    3  A    between atoms: C_8  and  C_14
REMARK    4  A    between atoms: C_13  and  C_15
REMARK    5  A    between atoms: C_17  and  C_19
REMARK                            x       y       z     vdW  Elec       q    Type
REMARK                         _______ _______ _______ _____ _____    ______ ____
ROOT
ATOM      4  N   UNL     1      -3.200   0.889  24.941  0.00  0.00    -0.281 NA
ATOM      5  N   UNL     1      -4.504  -2.393  23.741  0.00  0.00    -0.347 N 
ATOM      6  N   UNL     1      -2.718  -3.240  24.786  0.00  0.00    -0.240 NA
ATOM      8  C   UNL     1      -1.785   0.450  25.021  0.00  0.00    +0.150 C 
ATOM      9  C   UNL     1      -1.631  -1.040  25.440  0.00  0.00    +0.085 C 
ATOM     10  C   UNL     1      -4.040   0.114  23.999  0.00  0.00    +0.140 C 
ATOM     11  C   UNL     1      -3.771  -1.331  24.175  0.00  0.00    +0.053 A 
ATOM     12  C   UNL     1      -2.680  -1.875  24.807  0.00  0.00    +0.065 A 
ATOM     16  C   UNL     1      -3.828  -3.522  24.133  0.00  0.00    +0.197 A 
ATOM     27  H   UNL     1      -5.374  -2.361  23.226  0.00  0.00    +0.167 HD
ENDROOT
BRANCH   8  14
ATOM      3  O   UNL     1      -1.588   1.400  22.835  0.00  0.00    -0.274 OA
ATOM      7  N   UNL     1       0.121   0.031  23.625  0.00  0.00    -0.310 N 
ATOM     14  C   UNL     1      -1.090   0.697  23.710  0.00  0.00    +0.231 C 
ATOM     28  H   UNL     1       0.441  -0.532  24.408  0.00  0.00    +0.149 HD
BRANCH   7  17
ATOM     17  C   UNL     1       0.972   0.085  22.459  0.00  0.00    +0.139 C 
BRANCH  17  19
ATOM      1 CL   UNL     1       6.797  -0.241  23.912  0.00  0.00    -0.084 Cl
ATOM     19  C   UNL     1       2.427   0.002  22.822  0.00  0.00    -0.030 A 
ATOM     22  C   UNL     1       3.256   1.109  22.630  0.00  0.00    +0.006 A 
ATOM     23  C   UNL     1       2.949  -1.178  23.349  0.00  0.00    +0.006 A 
ATOM     24  C   UNL     1       4.608   1.033  22.967  0.00  0.00    +0.020 A 
ATOM     25  C   UNL     1       4.300  -1.254  23.685  0.00  0.00    +0.020 A 
ATOM     26  C   UNL     1       5.130  -0.148  23.495  0.00  0.00    +0.041 A 
ENDBRANCH  17  19
ENDBRANCH   7  17
ENDBRANCH   8  14
BRANCH   4  13
ATOM     13  C   UNL     1      -3.351   2.325  24.729  0.00  0.00    +0.128 C 
BRANCH  13  15
ATOM      2  S   UNL     1      -1.102   2.647  26.327  0.00  0.00    -0.100 S 
ATOM     15  C   UNL     1      -2.071   3.068  24.980  0.00  0.00    +0.004 A 
ATOM     18  C   UNL     1      -1.521   4.100  24.251  0.00  0.00    +0.012 A 
ATOM     20  C   UNL     1      -0.288   4.550  24.805  0.00  0.00    +0.008 A 
ATOM     21  C   UNL     1       0.058   3.845  25.937  0.00  0.00    +0.045 A 
ENDBRANCH  13  15
ENDBRANCH   4  13
TORSDOF 5
ENDMDL
MODEL 7
REMARK VINA RESULT:       0.1      2.344      4.378
REMARK  Name = 26745439
REMARK  5 active torsions:
REMARK  status: ('A' for Active; 'I' for Inactive)
REMARK    1  A    between atoms: N_4  and  C_13
REMARK    2  A    between atoms: N_7  and  C_17
REMARK    3  A    between atoms: C_8  and  C_14
REMARK    4  A    between atoms: C_13  and  C_15
REMARK    5  A    between atoms: C_17  and  C_19
REMARK                            x       y       z     vdW  Elec       q    Type
REMARK                         _______ _______ _______ _____ _____    ______ ____
ROOT
ATOM      4  N   UNL     1      -3.444   1.800  25.048  0.00  0.00    -0.281 NA
ATOM      5  N   UNL     1      -0.147   1.957  26.784  0.00  0.00    -0.347 N 
ATOM      6  N   UNL     1       0.039   3.951  25.789  0.00  0.00    -0.240 NA
ATOM      8  C   UNL     1      -3.056   2.707  23.939  0.00  0.00    +0.150 C 
ATOM      9  C   UNL     1      -2.074   3.829  24.384  0.00  0.00    +0.085 C 
ATOM     10  C   UNL     1      -2.314   1.110  25.712  0.00  0.00    +0.140 C 
ATOM     11  C   UNL     1      -1.223   2.079  25.959  0.00  0.00    +0.053 A 
ATOM     12  C   UNL     1      -1.085   3.306  25.358  0.00  0.00    +0.065 A 
ATOM     16  C   UNL     1       0.584   3.112  26.646  0.00  0.00    +0.197 A 
ATOM     27  H   UNL     1       0.077   1.171  27.379  0.00  0.00    +0.167 HD
ENDROOT
BRANCH   8  14
ATOM      3  O   UNL     1      -2.845   2.061  21.647  0.00  0.00    -0.274 OA
ATOM      7  N   UNL     1      -1.492   1.030  23.235  0.00  0.00    -0.310 N 
ATOM     14  C   UNL     1      -2.464   1.917  22.805  0.00  0.00    +0.231 C 
ATOM     28  H   UNL     1      -1.253   0.985  24.222  0.00  0.00    +0.149 HD
BRANCH   7  17
ATOM     17  C   UNL     1      -0.785   0.138  22.344  0.00  0.00    +0.139 C 
BRANCH  17  19
ATOM      1 CL   UNL     1       5.175   0.562  23.005  0.00  0.00    -0.084 Cl
ATOM     19  C   UNL     1       0.703   0.244  22.508  0.00  0.00    -0.030 A 
ATOM     22  C   UNL     1       1.237   1.003  23.551  0.00  0.00    +0.006 A 
ATOM     23  C   UNL     1       1.552  -0.416  21.620  0.00  0.00    +0.006 A 
ATOM     24  C   UNL     1       2.620   1.101  23.703  0.00  0.00    +0.020 A 
ATOM     25  C   UNL     1       2.934  -0.317  21.772  0.00  0.00    +0.020 A 
ATOM     26  C   UNL     1       3.469   0.442  22.814  0.00  0.00    +0.041 A 
ENDBRANCH  17  19
ENDBRANCH   7  17
ENDBRANCH   8  14
BRANCH   4  13
ATOM     13  C   UNL     1      -4.501   0.861  24.685  0.00  0.00    +0.128 C 
BRANCH  13  15
ATOM      2  S   UNL     1      -4.179  -1.638  23.516  0.00  0.00    -0.100 S 
ATOM     15  C   UNL     1      -4.066  -0.566  24.847  0.00  0.00    +0.004 A 
ATOM     18  C   UNL     1      -3.559  -1.187  25.968  0.00  0.00    +0.012 A 
ATOM     20  C   UNL     1      -3.259  -2.560  25.731  0.00  0.00    +0.008 A 
ATOM     21  C   UNL     1      -3.548  -2.936  24.437  0.00  0.00    +0.045 A 
ENDBRANCH  13  15
ENDBRANCH   4  13
TORSDOF 5
ENDMDL
MODEL 8
REMARK VINA RESULT:       0.3      3.882      6.205
REMARK  Name = 26745439
REMARK  5 active torsions:
REMARK  status: ('A' for Active; 'I' for Inactive)
REMARK    1  A    between atoms: N_4  and  C_13
REMARK    2  A    between atoms: N_7  and  C_17
REMARK    3  A    between atoms: C_8  and  C_14
REMARK    4  A    between atoms: C_13  and  C_15
REMARK    5  A    between atoms: C_17  and  C_19
REMARK                            x       y       z     vdW  Elec       q    Type
REMARK                         _______ _______ _______ _____ _____    ______ ____
ROOT
ATOM      4  N   UNL     1       0.412   1.377  25.211  0.00  0.00    -0.281 NA
ATOM      5  N   UNL     1      -1.693  -1.647  25.791  0.00  0.00    -0.347 N 
ATOM      6  N   UNL     1      -0.945  -2.288  23.784  0.00  0.00    -0.240 NA
ATOM      8  C   UNL     1       0.357   1.297  23.730  0.00  0.00    +0.150 C 
ATOM      9  C   UNL     1       0.322  -0.165  23.199  0.00  0.00    +0.085 C 
ATOM     10  C   UNL     1      -0.714   0.718  25.912  0.00  0.00    +0.140 C 
ATOM     11  C   UNL     1      -0.969  -0.605  25.298  0.00  0.00    +0.053 A 
ATOM     12  C   UNL     1      -0.525  -1.019  24.066  0.00  0.00    +0.065 A 
ATOM     16  C   UNL     1      -1.649  -2.638  24.842  0.00  0.00    +0.197 A 
ATOM     27  H   UNL     1      -2.174  -1.687  26.679  0.00  0.00    +0.167 HD
ENDROOT
BRANCH   8  14
ATOM      3  O   UNL     1      -0.715   3.212  22.783  0.00  0.00    -0.274 OA
ATOM      7  N   UNL     1      -2.003   1.345  23.304  0.00  0.00    -0.310 N 
ATOM     14  C   UNL     1      -0.825   2.067  23.212  0.00  0.00    +0.231 C 
ATOM     28  H   UNL     1      -1.986   0.401  23.680  0.00  0.00    +0.149 HD
BRANCH   7  17
ATOM     17  C   UNL     1      -3.286   1.868  22.894  0.00  0.00    +0.139 C 
BRANCH  17  19
ATOM      1 CL   UNL     1      -7.313   1.715  27.355  0.00  0.00    -0.084 Cl
ATOM     19  C   UNL     1      -4.291   1.829  24.008  0.00  0.00    -0.030 A 
ATOM     22  C   UNL     1      -5.012   2.978  24.336  0.00  0.00    +0.006 A 
ATOM     23  C   UNL     1      -4.504   0.646  24.715  0.00  0.00    +0.006 A 
ATOM     24  C   UNL     1      -5.946   2.942  25.371  0.00  0.00    +0.020 A 
ATOM     25  C   UNL     1      -5.437   0.611  25.750  0.00  0.00    +0.020 A 
ATOM     26  C   UNL     1      -6.159   1.759  26.079  0.00  0.00    +0.041 A 
ENDBRANCH  17  19
ENDBRANCH   7  17
ENDBRANCH   8  14
BRANCH   4  13
ATOM     13  C   UNL     1       0.629   2.731  25.711  0.00  0.00    +0.128 C 
BRANCH  13  15
ATOM      2  S   UNL     1      -0.739   5.019  24.933  0.00  0.00    -0.100 S 
ATOM     15  C   UNL     1      -0.644   3.524  25.761  0.00  0.00    +0.004 A 
ATOM     18  C   UNL     1      -1.821   3.217  26.409  0.00  0.00    +0.012 A 
ATOM     20  C   UNL     1      -2.813   4.222  26.223  0.00  0.00    +0.008 A 
ATOM     21  C   UNL     1      -2.358   5.260  25.440  0.00  0.00    +0.045 A 
ENDBRANCH  13  15
ENDBRANCH   4  13
TORSDOF 5
ENDMDL
