MODEL 1
REMARK VINA RESULT:      -2.1      0.000      0.000
REMARK  Name = 51136947
REMARK  5 active torsions:
REMARK  status: ('A' for Active; 'I' for Inactive)
REMARK    1  A    between atoms: N_2  and  C_14
REMARK    2  A    between atoms: N_3  and  C_19
REMARK    3  A    between atoms: C_10  and  C_15
REMARK    4  A    between atoms: C_14  and  C_16
REMARK    5  A    between atoms: C_20  and  C_23
REMARK                            x       y       z     vdW  Elec       q    Type
REMARK                         _______ _______ _______ _____ _____    ______ ____
ROOT
ATOM      2  N   UNL     1      -0.649   3.096  25.418  0.00  0.00    -0.284 NA
ATOM     10  C   UNL     1      -0.829   2.591  24.042  0.00  0.00    +0.146 C 
ATOM     11  C   UNL     1      -0.800   3.851  23.157  0.00  0.00    +0.030 C 
ATOM     12  C   UNL     1      -1.187   4.456  25.433  0.00  0.00    +0.085 C 
ATOM     13  C   UNL     1      -0.660   5.015  24.126  0.00  0.00    +0.017 C 
ENDROOT
BRANCH  10  15
ATOM      1  O   UNL     1      -0.188   0.545  22.869  0.00  0.00    -0.336 OA
ATOM      4  N   UNL     1       1.497   1.540  23.959  0.00  0.00    -0.190 NA
ATOM      6  N   UNL     1       0.945  -0.248  22.644  0.00  0.00    -0.056 NA
ATOM     15  C   UNL     1       0.225   1.576  23.652  0.00  0.00    +0.245 A 
ATOM     20  C   UNL     1       1.896   0.403  23.319  0.00  0.00    +0.207 A 
BRANCH  20  23
ATOM      7  N   UNL     1       5.616   0.282  23.048  0.00  0.00    -0.220 NA
ATOM      8  N   UNL     1       4.109   2.032  22.529  0.00  0.00    -0.342 N 
ATOM      9  N   UNL     1       4.803  -1.822  23.894  0.00  0.00    -0.243 NA
ATOM     23  C   UNL     1       3.254  -0.054  23.373  0.00  0.00    +0.080 A 
ATOM     26  C   UNL     1       4.339   0.714  22.997  0.00  0.00    +0.130 A 
ATOM     27  C   UNL     1       3.550  -1.327  23.817  0.00  0.00    +0.127 A 
ATOM     28  C   UNL     1       5.773  -0.977  23.500  0.00  0.00    +0.223 A 
ATOM     29  H   UNL     1       4.933   2.566  22.275  0.00  0.00    +0.144 HD
ATOM     30  H   UNL     1       3.256   2.230  22.024  0.00  0.00    +0.144 HD
ENDBRANCH  20  23
ENDBRANCH  10  15
BRANCH   2  14
ATOM     14  C   UNL     1      -1.273   2.248  26.427  0.00  0.00    +0.159 C 
BRANCH  14  16
ATOM      3  N   UNL     1      -3.086   0.997  25.214  0.00  0.00    -0.330 N 
ATOM      5  N   UNL     1      -1.302  -0.187  25.809  0.00  0.00    -0.231 NA
ATOM     16  C   UNL     1      -1.862   1.002  25.824  0.00  0.00    +0.125 A 
ATOM     17  C   UNL     1      -3.331  -0.280  24.776  0.00  0.00    +0.069 A 
ATOM     18  C   UNL     1      -2.203  -0.999  25.159  0.00  0.00    +0.089 A 
ATOM     19  C   UNL     1      -3.969   2.131  25.058  0.00  0.00    +0.150 C 
ATOM     21  C   UNL     1      -4.410  -0.849  24.099  0.00  0.00    +0.028 A 
ATOM     22  C   UNL     1      -2.129  -2.369  24.856  0.00  0.00    +0.030 A 
ATOM     24  C   UNL     1      -4.319  -2.213  23.806  0.00  0.00    +0.002 A 
ATOM     25  C   UNL     1      -3.200  -2.962  24.177  0.00  0.00    +0.002 A 
ENDBRANCH  14  16
ENDBRANCH   2  14
TORSDOF 4
ENDMDL
MODEL 2
REMARK VINA RESULT:      -2.1      1.399      4.168
REMARK  Name = 51136947
REMARK  5 active torsions:
REMARK  status: ('A' for Active; 'I' for Inactive)
REMARK    1  A    between atoms: N_2  and  C_14
REMARK    2  A    between atoms: N_3  and  C_19
REMARK    3  A    between atoms: C_10  and  C_15
REMARK    4  A    between atoms: C_14  and  C_16
REMARK    5  A    between atoms: C_20  and  C_23
REMARK                            x       y       z     vdW  Elec       q    Type
REMARK                         _______ _______ _______ _____ _____    ______ ____
ROOT
ATOM      2  N   UNL     1      -2.840  -1.135  23.533  0.00  0.00    -0.284 NA
ATOM     10  C   UNL     1      -1.778  -0.789  24.499  0.00  0.00    +0.146 C 
ATOM     11  C   UNL     1      -1.811  -1.924  25.539  0.00  0.00    +0.030 C 
ATOM     12  C   UNL     1      -3.834  -1.913  24.273  0.00  0.00    +0.085 C 
ATOM     13  C   UNL     1      -2.959  -2.825  25.109  0.00  0.00    +0.017 C 
ENDROOT
BRANCH  10  15
ATOM      1  O   UNL     1      -0.418  -0.454  22.497  0.00  0.00    -0.336 OA
ATOM      4  N   UNL     1       0.770  -0.653  24.385  0.00  0.00    -0.190 NA
ATOM      6  N   UNL     1       0.929  -0.339  22.125  0.00  0.00    -0.056 NA
ATOM     15  C   UNL     1      -0.421  -0.636  23.843  0.00  0.00    +0.245 A 
ATOM     20  C   UNL     1       1.566  -0.467  23.292  0.00  0.00    +0.207 A 
BRANCH  20  23
ATOM      7  N   UNL     1       5.088   0.764  23.243  0.00  0.00    -0.220 NA
ATOM      8  N   UNL     1       3.073   1.899  22.741  0.00  0.00    -0.342 N 
ATOM      9  N   UNL     1       5.055  -1.552  23.907  0.00  0.00    -0.243 NA
ATOM     23  C   UNL     1       2.995  -0.414  23.402  0.00  0.00    +0.080 A 
ATOM     26  C   UNL     1       3.743   0.716  23.140  0.00  0.00    +0.130 A 
ATOM     27  C   UNL     1       3.712  -1.530  23.784  0.00  0.00    +0.127 A 
ATOM     28  C   UNL     1       5.671  -0.388  23.626  0.00  0.00    +0.223 A 
ATOM     29  H   UNL     1       3.658   2.709  22.572  0.00  0.00    +0.144 HD
ATOM     30  H   UNL     1       2.223   1.820  22.198  0.00  0.00    +0.144 HD
ENDBRANCH  20  23
ENDBRANCH  10  15
BRANCH   2  14
ATOM     14  C   UNL     1      -3.427   0.030  22.884  0.00  0.00    +0.159 C 
BRANCH  14  16
ATOM      3  N   UNL     1      -3.779   1.876  24.556  0.00  0.00    -0.330 N 
ATOM      5  N   UNL     1      -1.950   2.020  23.302  0.00  0.00    -0.231 NA
ATOM     16  C   UNL     1      -3.026   1.312  23.564  0.00  0.00    +0.125 A 
ATOM     17  C   UNL     1      -3.147   3.023  24.961  0.00  0.00    +0.069 A 
ATOM     18  C   UNL     1      -2.008   3.091  24.163  0.00  0.00    +0.089 A 
ATOM     19  C   UNL     1      -5.021   1.358  25.086  0.00  0.00    +0.150 C 
ATOM     21  C   UNL     1      -3.465   3.980  25.927  0.00  0.00    +0.028 A 
ATOM     22  C   UNL     1      -1.122   4.170  24.326  0.00  0.00    +0.030 A 
ATOM     24  C   UNL     1      -2.571   5.045  26.074  0.00  0.00    +0.002 A 
ATOM     25  C   UNL     1      -1.420   5.140  25.289  0.00  0.00    +0.002 A 
ENDBRANCH  14  16
ENDBRANCH   2  14
TORSDOF 4
ENDMDL
MODEL 3
REMARK VINA RESULT:      -1.5      1.676      4.713
REMARK  Name = 51136947
REMARK  5 active torsions:
REMARK  status: ('A' for Active; 'I' for Inactive)
REMARK    1  A    between atoms: N_2  and  C_14
REMARK    2  A    between atoms: N_3  and  C_19
REMARK    3  A    between atoms: C_10  and  C_15
REMARK    4  A    between atoms: C_14  and  C_16
REMARK    5  A    between atoms: C_20  and  C_23
REMARK                            x       y       z     vdW  Elec       q    Type
REMARK                         _______ _______ _______ _____ _____    ______ ____
ROOT
ATOM      2  N   UNL     1      -3.738  -0.866  23.839  0.00  0.00    -0.284 NA
ATOM     10  C   UNL     1      -2.835  -0.972  25.003  0.00  0.00    +0.146 C 
ATOM     11  C   UNL     1      -2.744  -2.482  25.290  0.00  0.00    +0.030 C 
ATOM     12  C   UNL     1      -4.630  -2.024  23.902  0.00  0.00    +0.085 C 
ATOM     13  C   UNL     1      -3.673  -3.137  24.279  0.00  0.00    +0.017 C 
ENDROOT
BRANCH  10  15
ATOM      1  O   UNL     1      -1.080   0.608  25.634  0.00  0.00    -0.336 OA
ATOM      4  N   UNL     1      -0.624  -0.576  23.788  0.00  0.00    -0.190 NA
ATOM      6  N   UNL     1       0.180   1.036  25.198  0.00  0.00    -0.056 NA
ATOM     15  C   UNL     1      -1.482  -0.342  24.749  0.00  0.00    +0.245 A 
ATOM     20  C   UNL     1       0.379   0.293  24.105  0.00  0.00    +0.207 A 
BRANCH  20  23
ATOM      7  N   UNL     1       2.803  -0.023  21.286  0.00  0.00    -0.220 NA
ATOM      8  N   UNL     1       0.567  -0.779  21.461  0.00  0.00    -0.342 N 
ATOM      9  N   UNL     1       3.844   1.154  23.113  0.00  0.00    -0.243 NA
ATOM     23  C   UNL     1       1.568   0.393  23.310  0.00  0.00    +0.080 A 
ATOM     26  C   UNL     1       1.683  -0.117  22.033  0.00  0.00    +0.130 A 
ATOM     27  C   UNL     1       2.693   1.024  23.804  0.00  0.00    +0.127 A 
ATOM     28  C   UNL     1       3.830   0.616  21.879  0.00  0.00    +0.223 A 
ATOM     29  H   UNL     1       0.689  -1.128  20.517  0.00  0.00    +0.144 HD
ATOM     30  H   UNL     1      -0.058  -1.293  22.067  0.00  0.00    +0.144 HD
ENDBRANCH  20  23
ENDBRANCH  10  15
BRANCH   2  14
ATOM     14  C   UNL     1      -4.474   0.392  23.795  0.00  0.00    +0.159 C 
BRANCH  14  16
ATOM      3  N   UNL     1      -3.803   2.514  24.966  0.00  0.00    -0.330 N 
ATOM      5  N   UNL     1      -2.488   1.850  23.303  0.00  0.00    -0.231 NA
ATOM     16  C   UNL     1      -3.568   1.577  23.999  0.00  0.00    +0.125 A 
ATOM     17  C   UNL     1      -2.807   3.454  24.890  0.00  0.00    +0.069 A 
ATOM     18  C   UNL     1      -1.999   3.017  23.844  0.00  0.00    +0.089 A 
ATOM     19  C   UNL     1      -4.903   2.519  25.904  0.00  0.00    +0.150 C 
ATOM     21  C   UNL     1      -2.551   4.614  25.622  0.00  0.00    +0.028 A 
ATOM     22  C   UNL     1      -0.863   3.768  23.495  0.00  0.00    +0.030 A 
ATOM     24  C   UNL     1      -1.418   5.348  25.261  0.00  0.00    +0.002 A 
ATOM     25  C   UNL     1      -0.588   4.935  24.217  0.00  0.00    +0.002 A 
ENDBRANCH  14  16
ENDBRANCH   2  14
TORSDOF 4
ENDMDL
MODEL 4
REMARK VINA RESULT:      -0.2      2.820      7.446
REMARK  Name = 51136947
REMARK  5 active torsions:
REMARK  status: ('A' for Active; 'I' for Inactive)
REMARK    1  A    between atoms: N_2  and  C_14
REMARK    2  A    between atoms: N_3  and  C_19
REMARK    3  A    between atoms: C_10  and  C_15
REMARK    4  A    between atoms: C_14  and  C_16
REMARK    5  A    between atoms: C_20  and  C_23
REMARK                            x       y       z     vdW  Elec       q    Type
REMARK                         _______ _______ _______ _____ _____    ______ ____
ROOT
ATOM      2  N   UNL     1      -2.051  -2.336  24.762  0.00  0.00    -0.284 NA
ATOM     10  C   UNL     1      -2.957  -1.615  23.846  0.00  0.00    +0.146 C 
ATOM     11  C   UNL     1      -3.993  -2.668  23.411  0.00  0.00    +0.030 C 
ATOM     12  C   UNL     1      -2.077  -3.739  24.350  0.00  0.00    +0.085 C 
ATOM     13  C   UNL     1      -3.553  -3.960  24.084  0.00  0.00    +0.017 C 
ENDROOT
BRANCH  10  15
ATOM      1  O   UNL     1      -4.102  -0.576  25.739  0.00  0.00    -0.336 OA
ATOM      4  N   UNL     1      -3.728   0.813  24.022  0.00  0.00    -0.190 NA
ATOM      6  N   UNL     1      -4.627   0.666  26.121  0.00  0.00    -0.056 NA
ATOM     15  C   UNL     1      -3.592  -0.401  24.492  0.00  0.00    +0.245 A 
ATOM     20  C   UNL     1      -4.369   1.432  25.057  0.00  0.00    +0.207 A 
BRANCH  20  23
ATOM      7  N   UNL     1      -6.091   4.680  25.689  0.00  0.00    -0.220 NA
ATOM      8  N   UNL     1      -6.472   2.547  26.640  0.00  0.00    -0.342 N 
ATOM      9  N   UNL     1      -4.364   4.995  24.039  0.00  0.00    -0.243 NA
ATOM     23  C   UNL     1      -4.735   2.816  24.995  0.00  0.00    +0.080 A 
ATOM     26  C   UNL     1      -5.747   3.377  25.749  0.00  0.00    +0.130 A 
ATOM     27  C   UNL     1      -4.072   3.682  24.148  0.00  0.00    +0.127 A 
ATOM     28  C   UNL     1      -5.369   5.421  24.827  0.00  0.00    +0.223 A 
ATOM     29  H   UNL     1      -7.198   3.000  27.183  0.00  0.00    +0.144 HD
ATOM     30  H   UNL     1      -6.615   1.576  26.396  0.00  0.00    +0.144 HD
ENDBRANCH  20  23
ENDBRANCH  10  15
BRANCH   2  14
ATOM     14  C   UNL     1      -0.698  -1.793  24.777  0.00  0.00    +0.159 C 
BRANCH  14  16
ATOM      3  N   UNL     1      -0.250   0.519  23.895  0.00  0.00    -0.330 N 
ATOM      5  N   UNL     1      -1.108   0.395  25.942  0.00  0.00    -0.231 NA
ATOM     16  C   UNL     1      -0.698  -0.293  24.900  0.00  0.00    +0.125 A 
ATOM     17  C   UNL     1      -0.381   1.818  24.316  0.00  0.00    +0.069 A 
ATOM     18  C   UNL     1      -0.918   1.714  25.597  0.00  0.00    +0.089 A 
ATOM     19  C   UNL     1       0.269   0.091  22.616  0.00  0.00    +0.150 C 
ATOM     21  C   UNL     1      -0.084   3.037  23.707  0.00  0.00    +0.028 A 
ATOM     22  C   UNL     1      -1.182   2.886  26.326  0.00  0.00    +0.030 A 
ATOM     24  C   UNL     1      -0.352   4.192  24.447  0.00  0.00    +0.002 A 
ATOM     25  C   UNL     1      -0.892   4.120  25.734  0.00  0.00    +0.002 A 
ENDBRANCH  14  16
ENDBRANCH   2  14
TORSDOF 4
ENDMDL
MODEL 5
REMARK VINA RESULT:       1.2      1.636      2.566
REMARK  Name = 51136947
REMARK  5 active torsions:
REMARK  status: ('A' for Active; 'I' for Inactive)
REMARK    1  A    between atoms: N_2  and  C_14
REMARK    2  A    between atoms: N_3  and  C_19
REMARK    3  A    between atoms: C_10  and  C_15
REMARK    4  A    between atoms: C_14  and  C_16
REMARK    5  A    between atoms: C_20  and  C_23
REMARK                            x       y       z     vdW  Elec       q    Type
REMARK                         _______ _______ _______ _____ _____    ______ ____
ROOT
ATOM      2  N   UNL     1      -3.544   3.326  25.186  0.00  0.00    -0.284 NA
ATOM     10  C   UNL     1      -2.996   2.757  23.938  0.00  0.00    +0.146 C 
ATOM     11  C   UNL     1      -3.367   3.778  22.847  0.00  0.00    +0.030 C 
ATOM     12  C   UNL     1      -4.694   4.144  24.797  0.00  0.00    +0.085 C 
ATOM     13  C   UNL     1      -4.171   4.853  23.564  0.00  0.00    +0.017 C 
ENDROOT
BRANCH  10  15
ATOM      1  O   UNL     1      -0.803   3.293  24.873  0.00  0.00    -0.336 OA
ATOM      4  N   UNL     1      -0.778   1.621  23.383  0.00  0.00    -0.190 NA
ATOM      6  N   UNL     1       0.531   2.876  24.777  0.00  0.00    -0.056 NA
ATOM     15  C   UNL     1      -1.506   2.503  24.020  0.00  0.00    +0.245 A 
ATOM     20  C   UNL     1       0.465   1.888  23.879  0.00  0.00    +0.207 A 
BRANCH  20  23
ATOM      7  N   UNL     1       2.744  -0.922  22.968  0.00  0.00    -0.220 NA
ATOM      8  N   UNL     1       0.494  -0.965  23.698  0.00  0.00    -0.342 N 
ATOM      9  N   UNL     1       3.909   1.173  22.715  0.00  0.00    -0.243 NA
ATOM     23  C   UNL     1       1.619   1.149  23.458  0.00  0.00    +0.080 A 
ATOM     26  C   UNL     1       1.657  -0.228  23.364  0.00  0.00    +0.130 A 
ATOM     27  C   UNL     1       2.787   1.803  23.119  0.00  0.00    +0.127 A 
ATOM     28  C   UNL     1       3.819  -0.170  22.663  0.00  0.00    +0.223 A 
ATOM     29  H   UNL     1       0.560  -1.972  23.604  0.00  0.00    +0.144 HD
ATOM     30  H   UNL     1      -0.122  -0.607  24.417  0.00  0.00    +0.144 HD
ENDBRANCH  20  23
ENDBRANCH  10  15
BRANCH   2  14
ATOM     14  C   UNL     1      -3.900   2.313  26.172  0.00  0.00    +0.159 C 
BRANCH  14  16
ATOM      3  N   UNL     1      -4.609   0.262  24.901  0.00  0.00    -0.330 N 
ATOM      5  N   UNL     1      -2.596   0.191  25.839  0.00  0.00    -0.231 NA
ATOM     16  C   UNL     1      -3.673   0.920  25.649  0.00  0.00    +0.125 A 
ATOM     17  C   UNL     1      -4.102  -0.973  24.586  0.00  0.00    +0.069 A 
ATOM     18  C   UNL     1      -2.845  -0.993  25.183  0.00  0.00    +0.089 A 
ATOM     19  C   UNL     1      -5.904   0.773  24.509  0.00  0.00    +0.150 C 
ATOM     21  C   UNL     1      -4.620  -2.042  23.854  0.00  0.00    +0.028 A 
ATOM     22  C   UNL     1      -2.042  -2.139  25.051  0.00  0.00    +0.030 A 
ATOM     24  C   UNL     1      -3.808  -3.173  23.733  0.00  0.00    +0.002 A 
ATOM     25  C   UNL     1      -2.541  -3.223  24.320  0.00  0.00    +0.002 A 
ENDBRANCH  14  16
ENDBRANCH   2  14
TORSDOF 4
ENDMDL
MODEL 6
REMARK VINA RESULT:       1.4      3.152      7.285
REMARK  Name = 51136947
REMARK  5 active torsions:
REMARK  status: ('A' for Active; 'I' for Inactive)
REMARK    1  A    between atoms: N_2  and  C_14
REMARK    2  A    between atoms: N_3  and  C_19
REMARK    3  A    between atoms: C_10  and  C_15
REMARK    4  A    between atoms: C_14  and  C_16
REMARK    5  A    between atoms: C_20  and  C_23
REMARK                            x       y       z     vdW  Elec       q    Type
REMARK                         _______ _______ _______ _____ _____    ______ ____
ROOT
ATOM      2  N   UNL     1      -2.064  -2.241  24.286  0.00  0.00    -0.284 NA
ATOM     10  C   UNL     1      -3.274  -1.700  23.635  0.00  0.00    +0.146 C 
ATOM     11  C   UNL     1      -4.280  -2.865  23.650  0.00  0.00    +0.030 C 
ATOM     12  C   UNL     1      -2.072  -3.683  24.038  0.00  0.00    +0.085 C 
ATOM     13  C   UNL     1      -3.528  -4.033  24.271  0.00  0.00    +0.017 C 
ENDROOT
BRANCH  10  15
ATOM      1  O   UNL     1      -4.192  -0.611  25.622  0.00  0.00    -0.336 OA
ATOM      4  N   UNL     1      -3.944   0.754  23.863  0.00  0.00    -0.190 NA
ATOM      6  N   UNL     1      -4.635   0.650  26.041  0.00  0.00    -0.056 NA
ATOM     15  C   UNL     1      -3.802  -0.461  24.329  0.00  0.00    +0.245 A 
ATOM     20  C   UNL     1      -4.458   1.400  24.950  0.00  0.00    +0.207 A 
BRANCH  20  23
ATOM      7  N   UNL     1      -4.611   4.984  23.923  0.00  0.00    -0.220 NA
ATOM      8  N   UNL     1      -3.439   3.172  22.950  0.00  0.00    -0.342 N 
ATOM      9  N   UNL     1      -5.968   4.652  25.886  0.00  0.00    -0.243 NA
ATOM     23  C   UNL     1      -4.784   2.796  24.911  0.00  0.00    +0.080 A 
ATOM     26  C   UNL     1      -4.304   3.671  23.957  0.00  0.00    +0.130 A 
ATOM     27  C   UNL     1      -5.619   3.349  25.861  0.00  0.00    +0.127 A 
ATOM     28  C   UNL     1      -5.436   5.402  24.902  0.00  0.00    +0.223 A 
ATOM     29  H   UNL     1      -3.120   3.844  22.262  0.00  0.00    +0.144 HD
ATOM     30  H   UNL     1      -2.815   2.409  23.176  0.00  0.00    +0.144 HD
ENDBRANCH  20  23
ENDBRANCH  10  15
BRANCH   2  14
ATOM     14  C   UNL     1      -0.833  -1.612  23.824  0.00  0.00    +0.159 C 
BRANCH  14  16
ATOM      3  N   UNL     1      -0.883   0.275  25.486  0.00  0.00    -0.330 N 
ATOM      5  N   UNL     1      -0.629   0.847  23.354  0.00  0.00    -0.231 NA
ATOM     16  C   UNL     1      -0.777  -0.154  24.192  0.00  0.00    +0.125 A 
ATOM     17  C   UNL     1      -0.796   1.643  25.482  0.00  0.00    +0.069 A 
ATOM     18  C   UNL     1      -0.638   1.977  24.140  0.00  0.00    +0.089 A 
ATOM     19  C   UNL     1      -1.056  -0.561  26.653  0.00  0.00    +0.150 C 
ATOM     21  C   UNL     1      -0.841   2.590  26.507  0.00  0.00    +0.028 A 
ATOM     22  C   UNL     1      -0.515   3.330  23.780  0.00  0.00    +0.030 A 
ATOM     24  C   UNL     1      -0.718   3.931  26.130  0.00  0.00    +0.002 A 
ATOM     25  C   UNL     1      -0.558   4.296  24.791  0.00  0.00    +0.002 A 
ENDBRANCH  14  16
ENDBRANCH   2  14
TORSDOF 4
ENDMDL
