MODEL 1
REMARK VINA RESULT:       0.2      0.000      0.000
REMARK  Name = 51138098
REMARK  11 active torsions:
REMARK  status: ('A' for Active; 'I' for Inactive)
REMARK    1  A    between atoms: N_3  and  C_20
REMARK    2  A    between atoms: N_4  and  C_25
REMARK    3  A    between atoms: N_5  and  C_28
REMARK    4  A    between atoms: C_7  and  C_12
REMARK    5  A    between atoms: C_10  and  C_18
REMARK    6  A    between atoms: C_12  and  C_15
REMARK    7  A    between atoms: C_15  and  C_22
REMARK    8  A    between atoms: C_15  and  C_23
REMARK    9  A    between atoms: C_20  and  C_24
REMARK   10  A    between atoms: C_25  and  C_26
REMARK   11  A    between atoms: C_26  and  C_30
REMARK                            x       y       z     vdW  Elec       q    Type
REMARK                         _______ _______ _______ _____ _____    ______ ____
ROOT
ATOM      2  N   UNL     1      -2.850   1.568  25.153  0.00  0.00    -0.299 NA
ATOM      3  N   UNL     1       1.506   0.110  23.055  0.00  0.00    -0.339 N 
ATOM      7  C   UNL     1      -2.510   0.289  25.790  0.00  0.00    +0.085 C 
ATOM      8  C   UNL     1      -1.314  -0.459  25.192  0.00  0.00    -0.021 A 
ATOM      9  C   UNL     1      -0.332   0.116  24.334  0.00  0.00    +0.008 A 
ATOM     10  C   UNL     1      -1.824   2.594  25.265  0.00  0.00    +0.145 C 
ATOM     11  C   UNL     1      -0.122   1.432  23.796  0.00  0.00    -0.020 A 
ATOM     13  C   UNL     1      -0.951   2.654  24.013  0.00  0.00    +0.065 C 
ATOM     14  C   UNL     1       0.723  -0.676  23.866  0.00  0.00    +0.050 A 
ATOM     16  C   UNL     1       1.011   1.379  23.010  0.00  0.00    +0.091 A 
ATOM     17  C   UNL     1      -1.101  -1.810  25.569  0.00  0.00    +0.006 A 
ATOM     19  C   UNL     1       0.889  -2.019  24.211  0.00  0.00    +0.026 A 
ATOM     21  C   UNL     1      -0.039  -2.571  25.085  0.00  0.00    +0.002 A 
ATOM     31  H   UNL     1      -3.128   1.428  24.182  0.00  0.00    +0.123 HD
ENDROOT
BRANCH  10  18
ATOM      1  O   UNL     1      -2.004   4.941  25.663  0.00  0.00    -0.274 OA
ATOM      4  N   UNL     1      -3.936   3.721  25.222  0.00  0.00    -0.314 N 
ATOM     18  C   UNL     1      -2.573   3.885  25.401  0.00  0.00    +0.230 C 
ATOM     32  H   UNL     1      -4.310   2.802  25.005  0.00  0.00    +0.149 HD
BRANCH   4  25
ATOM     25  C   UNL     1      -4.884   4.808  25.324  0.00  0.00    +0.104 C 
BRANCH  25  26
ATOM     26  C   UNL     1      -6.287   4.324  25.672  0.00  0.00    +0.015 C 
ATOM     30  C   UNL     1      -6.383   2.806  25.748  0.00  0.00    +0.005 C 
ENDBRANCH  25  26
ENDBRANCH   4  25
ENDBRANCH  10  18
BRANCH   7  12
ATOM     12  C   UNL     1      -3.809  -0.534  25.731  0.00  0.00    +0.026 C 
BRANCH  12  15
ATOM     15  C   UNL     1      -4.338  -0.715  24.305  0.00  0.00    -0.015 C 
ATOM     22  C   UNL     1      -3.626   0.183  23.292  0.00  0.00    +0.007 C 
ATOM     23  C   UNL     1      -4.187  -2.181  23.891  0.00  0.00    +0.007 C 
ENDBRANCH  12  15
ENDBRANCH   7  12
BRANCH   3  20
ATOM     20  C   UNL     1       2.697  -0.324  22.357  0.00  0.00    +0.196 C 
BRANCH  20  24
ATOM      5  N   UNL     1       4.699  -0.924  23.763  0.00  0.00    -0.336 N 
ATOM      6  N   UNL     1       4.530   1.206  23.158  0.00  0.00    -0.239 NA
ATOM     24  C   UNL     1       3.974   0.016  23.085  0.00  0.00    +0.129 A 
ATOM     27  C   UNL     1       5.785  -0.294  24.302  0.00  0.00    +0.106 A 
ATOM     28  C   UNL     1       4.390  -2.328  23.897  0.00  0.00    +0.150 C 
ATOM     29  C   UNL     1       5.659   1.019  23.916  0.00  0.00    +0.130 A 
ENDBRANCH  20  24
ENDBRANCH   3  20
TORSDOF 7
ENDMDL
MODEL 2
REMARK VINA RESULT:       1.9      1.494      2.227
REMARK  Name = 51138098
REMARK  11 active torsions:
REMARK  status: ('A' for Active; 'I' for Inactive)
REMARK    1  A    between atoms: N_3  and  C_20
REMARK    2  A    between atoms: N_4  and  C_25
REMARK    3  A    between atoms: N_5  and  C_28
REMARK    4  A    between atoms: C_7  and  C_12
REMARK    5  A    between atoms: C_10  and  C_18
REMARK    6  A    between atoms: C_12  and  C_15
REMARK    7  A    between atoms: C_15  and  C_22
REMARK    8  A    between atoms: C_15  and  C_23
REMARK    9  A    between atoms: C_20  and  C_24
REMARK   10  A    between atoms: C_25  and  C_26
REMARK   11  A    between atoms: C_26  and  C_30
REMARK                            x       y       z     vdW  Elec       q    Type
REMARK                         _______ _______ _______ _____ _____    ______ ____
ROOT
ATOM      2  N   UNL     1      -3.240   2.224  25.014  0.00  0.00    -0.299 NA
ATOM      3  N   UNL     1       0.812  -0.355  23.453  0.00  0.00    -0.339 N 
ATOM      7  C   UNL     1      -3.459   0.838  25.447  0.00  0.00    +0.085 C 
ATOM      8  C   UNL     1      -2.449  -0.192  24.932  0.00  0.00    -0.021 A 
ATOM      9  C   UNL     1      -1.172   0.116  24.378  0.00  0.00    +0.008 A 
ATOM     10  C   UNL     1      -2.001   2.820  25.490  0.00  0.00    +0.145 C 
ATOM     11  C   UNL     1      -0.455   1.339  24.141  0.00  0.00    -0.020 A 
ATOM     13  C   UNL     1      -0.895   2.734  24.440  0.00  0.00    +0.065 C 
ATOM     14  C   UNL     1      -0.335  -0.922  23.956  0.00  0.00    +0.050 A 
ATOM     16  C   UNL     1       0.753   1.002  23.564  0.00  0.00    +0.091 A 
ATOM     17  C   UNL     1      -2.750  -1.570  25.077  0.00  0.00    +0.006 A 
ATOM     19  C   UNL     1      -0.670  -2.273  24.064  0.00  0.00    +0.026 A 
ATOM     21  C   UNL     1      -1.892  -2.581  24.647  0.00  0.00    +0.002 A 
ATOM     31  H   UNL     1      -3.323   2.306  24.000  0.00  0.00    +0.123 HD
ENDROOT
BRANCH  10  18
ATOM      1  O   UNL     1      -3.153   4.604  26.582  0.00  0.00    -0.274 OA
ATOM      4  N   UNL     1      -1.622   5.111  24.904  0.00  0.00    -0.314 N 
ATOM     18  C   UNL     1      -2.329   4.262  25.738  0.00  0.00    +0.230 C 
ATOM     32  H   UNL     1      -0.957   4.727  24.239  0.00  0.00    +0.149 HD
BRANCH   4  25
ATOM     25  C   UNL     1      -1.772   6.548  24.927  0.00  0.00    +0.104 C 
BRANCH  25  26
ATOM     26  C   UNL     1      -2.654   7.057  23.792  0.00  0.00    +0.015 C 
ATOM     30  C   UNL     1      -3.684   6.031  23.343  0.00  0.00    +0.005 C 
ENDBRANCH  25  26
ENDBRANCH   4  25
ENDBRANCH  10  18
BRANCH   7  12
ATOM     12  C   UNL     1      -4.901   0.517  25.013  0.00  0.00    +0.026 C 
BRANCH  12  15
ATOM     15  C   UNL     1      -5.835   1.728  25.097  0.00  0.00    -0.015 C 
ATOM     22  C   UNL     1      -7.101   1.556  24.257  0.00  0.00    +0.007 C 
ATOM     23  C   UNL     1      -6.214   1.973  26.560  0.00  0.00    +0.007 C 
ENDBRANCH  12  15
ENDBRANCH   7  12
BRANCH   3  20
ATOM     20  C   UNL     1       1.937  -1.078  22.900  0.00  0.00    +0.196 C 
BRANCH  20  24
ATOM      5  N   UNL     1       4.371  -0.871  23.512  0.00  0.00    -0.336 N 
ATOM      6  N   UNL     1       3.439   0.918  22.585  0.00  0.00    -0.239 NA
ATOM     24  C   UNL     1       3.237  -0.318  22.986  0.00  0.00    +0.129 A 
ATOM     27  C   UNL     1       5.359   0.071  23.442  0.00  0.00    +0.106 A 
ATOM     28  C   UNL     1       4.518  -2.204  24.048  0.00  0.00    +0.150 C 
ATOM     29  C   UNL     1       4.759   1.166  22.866  0.00  0.00    +0.130 A 
ENDBRANCH  20  24
ENDBRANCH   3  20
TORSDOF 7
ENDMDL
MODEL 3
REMARK VINA RESULT:       2.0      1.969      7.469
REMARK  Name = 51138098
REMARK  11 active torsions:
REMARK  status: ('A' for Active; 'I' for Inactive)
REMARK    1  A    between atoms: N_3  and  C_20
REMARK    2  A    between atoms: N_4  and  C_25
REMARK    3  A    between atoms: N_5  and  C_28
REMARK    4  A    between atoms: C_7  and  C_12
REMARK    5  A    between atoms: C_10  and  C_18
REMARK    6  A    between atoms: C_12  and  C_15
REMARK    7  A    between atoms: C_15  and  C_22
REMARK    8  A    between atoms: C_15  and  C_23
REMARK    9  A    between atoms: C_20  and  C_24
REMARK   10  A    between atoms: C_25  and  C_26
REMARK   11  A    between atoms: C_26  and  C_30
REMARK                            x       y       z     vdW  Elec       q    Type
REMARK                         _______ _______ _______ _____ _____    ______ ____
ROOT
ATOM      2  N   UNL     1       0.552  -0.774  23.394  0.00  0.00    -0.299 NA
ATOM      3  N   UNL     1      -2.006   3.023  25.526  0.00  0.00    -0.339 N 
ATOM      7  C   UNL     1      -0.868  -1.076  23.171  0.00  0.00    +0.085 C 
ATOM      8  C   UNL     1      -1.867  -0.161  23.886  0.00  0.00    -0.021 A 
ATOM      9  C   UNL     1      -1.559   1.113  24.446  0.00  0.00    +0.008 A 
ATOM     10  C   UNL     1       0.985   0.521  22.891  0.00  0.00    +0.145 C 
ATOM     11  C   UNL     1      -0.363   1.906  24.525  0.00  0.00    -0.020 A 
ATOM     13  C   UNL     1       0.993   1.578  23.994  0.00  0.00    +0.065 C 
ATOM     14  C   UNL     1      -2.570   1.858  25.063  0.00  0.00    +0.050 A 
ATOM     16  C   UNL     1      -0.682   3.065  25.204  0.00  0.00    +0.091 A 
ATOM     17  C   UNL     1      -3.229  -0.554  23.941  0.00  0.00    +0.006 A 
ATOM     19  C   UNL     1      -3.896   1.431  25.149  0.00  0.00    +0.026 A 
ATOM     21  C   UNL     1      -4.213   0.212  24.562  0.00  0.00    +0.002 A 
ATOM     31  H   UNL     1       0.798  -0.889  24.378  0.00  0.00    +0.123 HD
ENDROOT
BRANCH  10  18
ATOM      1  O   UNL     1       2.630  -0.308  21.374  0.00  0.00    -0.274 OA
ATOM      4  N   UNL     1       3.326   0.853  23.267  0.00  0.00    -0.314 N 
ATOM     18  C   UNL     1       2.387   0.306  22.409  0.00  0.00    +0.230 C 
ATOM     32  H   UNL     1       3.021   1.347  24.099  0.00  0.00    +0.149 HD
BRANCH   4  25
ATOM     25  C   UNL     1       4.751   0.764  23.041  0.00  0.00    +0.104 C 
BRANCH  25  26
ATOM     26  C   UNL     1       5.428  -0.222  23.986  0.00  0.00    +0.015 C 
ATOM     30  C   UNL     1       4.780  -1.599  23.962  0.00  0.00    +0.005 C 
ENDBRANCH  25  26
ENDBRANCH   4  25
ENDBRANCH  10  18
BRANCH   7  12
ATOM     12  C   UNL     1      -1.022  -2.551  23.580  0.00  0.00    +0.026 C 
BRANCH  12  15
ATOM     15  C   UNL     1      -1.155  -2.742  25.094  0.00  0.00    -0.015 C 
ATOM     22  C   UNL     1      -0.553  -1.582  25.890  0.00  0.00    +0.007 C 
ATOM     23  C   UNL     1      -2.633  -2.904  25.456  0.00  0.00    +0.007 C 
ENDBRANCH  12  15
ENDBRANCH   7  12
BRANCH   3  20
ATOM     20  C   UNL     1      -2.704   4.072  26.237  0.00  0.00    +0.196 C 
BRANCH  20  24
ATOM      5  N   UNL     1      -4.697   4.562  24.778  0.00  0.00    -0.336 N 
ATOM      6  N   UNL     1      -5.135   3.700  26.777  0.00  0.00    -0.239 NA
ATOM     24  C   UNL     1      -4.186   4.100  25.959  0.00  0.00    +0.129 A 
ATOM     27  C   UNL     1      -6.058   4.450  24.848  0.00  0.00    +0.106 A 
ATOM     28  C   UNL     1      -3.954   5.077  23.653  0.00  0.00    +0.150 C 
ATOM     29  C   UNL     1      -6.303   3.917  26.091  0.00  0.00    +0.130 A 
ENDBRANCH  20  24
ENDBRANCH   3  20
TORSDOF 7
ENDMDL
MODEL 4
REMARK VINA RESULT:       3.9      1.350      2.046
REMARK  Name = 51138098
REMARK  11 active torsions:
REMARK  status: ('A' for Active; 'I' for Inactive)
REMARK    1  A    between atoms: N_3  and  C_20
REMARK    2  A    between atoms: N_4  and  C_25
REMARK    3  A    between atoms: N_5  and  C_28
REMARK    4  A    between atoms: C_7  and  C_12
REMARK    5  A    between atoms: C_10  and  C_18
REMARK    6  A    between atoms: C_12  and  C_15
REMARK    7  A    between atoms: C_15  and  C_22
REMARK    8  A    between atoms: C_15  and  C_23
REMARK    9  A    between atoms: C_20  and  C_24
REMARK   10  A    between atoms: C_25  and  C_26
REMARK   11  A    between atoms: C_26  and  C_30
REMARK                            x       y       z     vdW  Elec       q    Type
REMARK                         _______ _______ _______ _____ _____    ______ ____
ROOT
ATOM      2  N   UNL     1      -3.070   0.738  25.192  0.00  0.00    -0.299 NA
ATOM      3  N   UNL     1       1.354  -0.375  23.026  0.00  0.00    -0.339 N 
ATOM      7  C   UNL     1      -2.544  -0.417  25.931  0.00  0.00    +0.085 C 
ATOM      8  C   UNL     1      -1.286  -1.068  25.349  0.00  0.00    -0.021 A 
ATOM      9  C   UNL     1      -0.419  -0.467  24.390  0.00  0.00    +0.008 A 
ATOM     10  C   UNL     1      -2.181   1.890  25.151  0.00  0.00    +0.145 C 
ATOM     11  C   UNL     1      -0.402   0.803  23.717  0.00  0.00    -0.020 A 
ATOM     13  C   UNL     1      -1.371   1.929  23.857  0.00  0.00    +0.065 C 
ATOM     14  C   UNL     1       0.710  -1.165  23.948  0.00  0.00    +0.050 A 
ATOM     16  C   UNL     1       0.699   0.811  22.883  0.00  0.00    +0.091 A 
ATOM     17  C   UNL     1      -0.887  -2.336  25.843  0.00  0.00    +0.006 A 
ATOM     19  C   UNL     1       1.060  -2.435  24.412  0.00  0.00    +0.026 A 
ATOM     21  C   UNL     1       0.245  -3.006  25.382  0.00  0.00    +0.002 A 
ATOM     31  H   UNL     1      -3.365   0.466  24.253  0.00  0.00    +0.123 HD
ENDROOT
BRANCH  10  18
ATOM      1  O   UNL     1      -4.255   3.029  24.832  0.00  0.00    -0.274 OA
ATOM      4  N   UNL     1      -2.436   4.212  25.675  0.00  0.00    -0.314 N 
ATOM     18  C   UNL     1      -3.084   3.085  25.200  0.00  0.00    +0.230 C 
ATOM     32  H   UNL     1      -1.463   4.153  25.958  0.00  0.00    +0.149 HD
BRANCH   4  25
ATOM     25  C   UNL     1      -3.079   5.501  25.799  0.00  0.00    +0.104 C 
BRANCH  25  26
ATOM     26  C   UNL     1      -2.303   6.607  25.093  0.00  0.00    +0.015 C 
ATOM     30  C   UNL     1      -0.975   6.124  24.527  0.00  0.00    +0.005 C 
ENDBRANCH  25  26
ENDBRANCH   4  25
ENDBRANCH  10  18
BRANCH   7  12
ATOM     12  C   UNL     1      -3.728  -1.396  26.018  0.00  0.00    +0.026 C 
BRANCH  12  15
ATOM     15  C   UNL     1      -4.267  -1.807  24.644  0.00  0.00    -0.015 C 
ATOM     22  C   UNL     1      -4.030  -0.740  23.574  0.00  0.00    +0.007 C 
ATOM     23  C   UNL     1      -3.612  -3.122  24.216  0.00  0.00    +0.007 C 
ENDBRANCH  12  15
ENDBRANCH   7  12
BRANCH   3  20
ATOM     20  C   UNL     1       2.564  -0.727  22.314  0.00  0.00    +0.196 C 
BRANCH  20  24
ATOM      5  N   UNL     1       4.483   0.655  23.177  0.00  0.00    -0.336 N 
ATOM      6  N   UNL     1       4.401  -1.451  23.875  0.00  0.00    -0.239 NA
ATOM     24  C   UNL     1       3.816  -0.537  23.132  0.00  0.00    +0.129 A 
ATOM     27  C   UNL     1       5.562   0.492  24.001  0.00  0.00    +0.106 A 
ATOM     28  C   UNL     1       4.129   1.874  22.489  0.00  0.00    +0.150 C 
ATOM     29  C   UNL     1       5.490  -0.816  24.418  0.00  0.00    +0.130 A 
ENDBRANCH  20  24
ENDBRANCH   3  20
TORSDOF 7
ENDMDL
MODEL 5
REMARK VINA RESULT:       3.9     12.987     16.386
REMARK  Name = 51138098
REMARK  11 active torsions:
REMARK  status: ('A' for Active; 'I' for Inactive)
REMARK    1  A    between atoms: N_3  and  C_20
REMARK    2  A    between atoms: N_4  and  C_25
REMARK    3  A    between atoms: N_5  and  C_28
REMARK    4  A    between atoms: C_7  and  C_12
REMARK    5  A    between atoms: C_10  and  C_18
REMARK    6  A    between atoms: C_12  and  C_15
REMARK    7  A    between atoms: C_15  and  C_22
REMARK    8  A    between atoms: C_15  and  C_23
REMARK    9  A    between atoms: C_20  and  C_24
REMARK   10  A    between atoms: C_25  and  C_26
REMARK   11  A    between atoms: C_26  and  C_30
REMARK                            x       y       z     vdW  Elec       q    Type
REMARK                         _______ _______ _______ _____ _____    ______ ____
ROOT
ATOM      2  N   UNL     1      10.327  -6.556  32.243  0.00  0.00    -0.299 NA
ATOM      3  N   UNL     1      14.631  -8.073  30.080  0.00  0.00    -0.339 N 
ATOM      7  C   UNL     1      10.656  -7.843  32.870  0.00  0.00    +0.085 C 
ATOM      8  C   UNL     1      11.832  -8.607  32.254  0.00  0.00    -0.021 A 
ATOM      9  C   UNL     1      12.811  -8.044  31.385  0.00  0.00    +0.008 A 
ATOM     10  C   UNL     1      11.370  -5.546  32.344  0.00  0.00    +0.145 C 
ATOM     11  C   UNL     1      13.033  -6.729  30.848  0.00  0.00    -0.020 A 
ATOM     13  C   UNL     1      12.227  -5.495  31.081  0.00  0.00    +0.065 C 
ATOM     14  C   UNL     1      13.847  -8.850  30.899  0.00  0.00    +0.050 A 
ATOM     16  C   UNL     1      14.155  -6.796  30.046  0.00  0.00    +0.091 A 
ATOM     17  C   UNL     1      12.029  -9.962  32.622  0.00  0.00    +0.006 A 
ATOM     19  C   UNL     1      13.997 -10.196  31.237  0.00  0.00    +0.026 A 
ATOM     21  C   UNL     1      13.073 -10.738  32.122  0.00  0.00    +0.002 A 
ATOM     31  H   UNL     1      10.034  -6.688  31.275  0.00  0.00    +0.123 HD
ENDROOT
BRANCH  10  18
ATOM      1  O   UNL     1      11.231  -3.167  32.476  0.00  0.00    -0.274 OA
ATOM      4  N   UNL     1       9.281  -4.423  32.674  0.00  0.00    -0.314 N 
ATOM     18  C   UNL     1      10.642  -4.245  32.495  0.00  0.00    +0.230 C 
ATOM     32  H   UNL     1       8.890  -5.360  32.671  0.00  0.00    +0.149 HD
BRANCH   4  25
ATOM     25  C   UNL     1       8.359  -3.327  32.866  0.00  0.00    +0.104 C 
BRANCH  25  26
ATOM     26  C   UNL     1       6.931  -3.696  32.477  0.00  0.00    +0.015 C 
ATOM     30  C   UNL     1       6.566  -5.121  32.866  0.00  0.00    +0.005 C 
ENDBRANCH  25  26
ENDBRANCH   4  25
ENDBRANCH  10  18
BRANCH   7  12
ATOM     12  C   UNL     1       9.344  -8.646  32.826  0.00  0.00    +0.026 C 
BRANCH  12  15
ATOM     15  C   UNL     1       8.632  -8.555  31.473  0.00  0.00    -0.015 C 
ATOM     22  C   UNL     1       8.639  -9.882  30.712  0.00  0.00    +0.007 C 
ATOM     23  C   UNL     1       7.189  -8.092  31.690  0.00  0.00    +0.007 C 
ENDBRANCH  12  15
ENDBRANCH   7  12
BRANCH   3  20
ATOM     20  C   UNL     1      15.806  -8.522  29.365  0.00  0.00    +0.196 C 
BRANCH  20  24
ATOM      5  N   UNL     1      15.751  -8.581  26.848  0.00  0.00    -0.336 N 
ATOM      6  N   UNL     1      16.296  -6.636  27.771  0.00  0.00    -0.239 NA
ATOM     24  C   UNL     1      15.959  -7.885  28.006  0.00  0.00    +0.129 A 
ATOM     27  C   UNL     1      15.969  -7.721  25.808  0.00  0.00    +0.106 A 
ATOM     28  C   UNL     1      15.371  -9.968  26.725  0.00  0.00    +0.150 C 
ATOM     29  C   UNL     1      16.305  -6.528  26.403  0.00  0.00    +0.130 A 
ENDBRANCH  20  24
ENDBRANCH   3  20
TORSDOF 7
ENDMDL
