MODEL 1
REMARK VINA RESULT:      10.0      0.000      0.000
REMARK  Name = 11941654
REMARK  8 active torsions:
REMARK  status: ('A' for Active; 'I' for Inactive)
REMARK    1  A    between atoms: O_5  and  C_27
REMARK    2  A    between atoms: O_5  and  C_33
REMARK    3  A    between atoms: O_6  and  C_28
REMARK    4  A    between atoms: O_6  and  C_34
REMARK    5  A    between atoms: N_7  and  C_14
REMARK    6  A    between atoms: N_8  and  C_15
REMARK    7  A    between atoms: N_9  and  C_21
REMARK    8  A    between atoms: C_20  and  C_24
REMARK                            x       y       z     vdW  Elec       q    Type
REMARK                         _______ _______ _______ _____ _____    ______ ____
ROOT
ATOM      1  O   UNL     1      -4.913  -1.095  23.710  0.00  0.00    -0.370 OA
ATOM      2  O   UNL     1      -3.329  -1.077  26.398  0.00  0.00    -0.370 OA
ATOM     12  C   UNL     1      -3.454  -0.131  25.324  0.00  0.00    +0.171 C 
ATOM     13  C   UNL     1      -3.523  -0.923  24.033  0.00  0.00    +0.171 C 
ATOM     14  C   UNL     1      -4.788   0.573  25.398  0.00  0.00    +0.130 C 
ATOM     15  C   UNL     1      -2.896  -2.254  24.383  0.00  0.00    +0.131 C 
ATOM     16  C   UNL     1      -5.712  -0.388  24.671  0.00  0.00    +0.185 C 
ATOM     17  C   UNL     1      -3.250  -2.402  25.852  0.00  0.00    +0.185 C 
ENDROOT
BRANCH  14   7
ATOM      7  N   UNL     1      -4.723   1.834  24.693  0.00  0.00    -0.306 N 
ATOM     10  N   UNL     1      -2.715   2.407  25.710  0.00  0.00    -0.211 NA
ATOM     11  N   UNL     1      -3.775   3.874  24.118  0.00  0.00    -0.223 NA
ATOM     18  C   UNL     1      -3.693   2.744  24.846  0.00  0.00    +0.216 A 
ATOM     20  C   UNL     1      -1.727   3.317  25.834  0.00  0.00    +0.111 A 
ATOM     22  C   UNL     1      -2.754   4.739  24.292  0.00  0.00    +0.116 A 
ATOM     23  C   UNL     1      -1.693   4.512  25.145  0.00  0.00    +0.051 A 
ATOM     35  H   UNL     1      -5.435   2.058  24.006  0.00  0.00    +0.149 HD
BRANCH  20  24
ATOM      4  O   UNL     1       0.547   2.788  26.210  0.00  0.00    -0.461 OA
ATOM     24  C   UNL     1      -0.686   2.952  26.758  0.00  0.00    +0.153 A 
ATOM     29  C   UNL     1      -0.646   2.723  28.114  0.00  0.00    +0.051 A 
ATOM     31  C   UNL     1       0.697   2.398  28.419  0.00  0.00    +0.042 A 
ATOM     32  C   UNL     1       1.383   2.450  27.227  0.00  0.00    +0.196 A 
ENDBRANCH  20  24
ENDBRANCH  14   7
BRANCH  15   8
ATOM      3  O   UNL     1      -1.291   0.053  23.823  0.00  0.00    -0.252 OA
ATOM      8  N   UNL     1      -1.466  -2.224  24.190  0.00  0.00    -0.292 N 
ATOM      9  N   UNL     1       0.608  -1.326  23.778  0.00  0.00    -0.269 N 
ATOM     19  C   UNL     1      -0.755  -1.049  23.917  0.00  0.00    +0.304 C 
ATOM     36  H   UNL     1      -0.943  -3.084  24.319  0.00  0.00    +0.151 HD
ATOM     37  H   UNL     1       0.888  -2.298  23.886  0.00  0.00    +0.156 HD
BRANCH   9  21
ATOM     21  C   UNL     1       1.655  -0.417  23.502  0.00  0.00    +0.042 A 
ATOM     25  C   UNL     1       1.382   0.945  23.378  0.00  0.00    +0.069 A 
ATOM     26  C   UNL     1       2.961  -0.883  23.353  0.00  0.00    +0.069 A 
ATOM     27  C   UNL     1       3.994   0.012  23.080  0.00  0.00    +0.125 A 
ATOM     28  C   UNL     1       2.416   1.841  23.106  0.00  0.00    +0.125 A 
ATOM     30  C   UNL     1       3.722   1.375  22.957  0.00  0.00    +0.091 A 
BRANCH  27   5
ATOM      5  O   UNL     1       5.270  -0.441  22.934  0.00  0.00    -0.495 OA
ATOM     33  C   UNL     1       6.097  -0.436  24.096  0.00  0.00    +0.277 C 
ENDBRANCH  27   5
BRANCH  28   6
ATOM      6  O   UNL     1       2.150   3.171  22.985  0.00  0.00    -0.495 OA
ATOM     34  C   UNL     1       0.815   3.593  23.256  0.00  0.00    +0.277 C 
ENDBRANCH  28   6
ENDBRANCH   9  21
ENDBRANCH  15   8
TORSDOF 6
ENDMDL
MODEL 2
REMARK VINA RESULT:      10.0      0.180      2.142
REMARK  Name = 11941654
REMARK  8 active torsions:
REMARK  status: ('A' for Active; 'I' for Inactive)
REMARK    1  A    between atoms: O_5  and  C_27
REMARK    2  A    between atoms: O_5  and  C_33
REMARK    3  A    between atoms: O_6  and  C_28
REMARK    4  A    between atoms: O_6  and  C_34
REMARK    5  A    between atoms: N_7  and  C_14
REMARK    6  A    between atoms: N_8  and  C_15
REMARK    7  A    between atoms: N_9  and  C_21
REMARK    8  A    between atoms: C_20  and  C_24
REMARK                            x       y       z     vdW  Elec       q    Type
REMARK                         _______ _______ _______ _____ _____    ______ ____
ROOT
ATOM      1  O   UNL     1      -4.829  -1.057  23.688  0.00  0.00    -0.370 OA
ATOM      2  O   UNL     1      -3.312  -1.032  26.415  0.00  0.00    -0.370 OA
ATOM     12  C   UNL     1      -3.390  -0.100  25.324  0.00  0.00    +0.171 C 
ATOM     13  C   UNL     1      -3.444  -0.910  24.043  0.00  0.00    +0.171 C 
ATOM     14  C   UNL     1      -4.709   0.634  25.354  0.00  0.00    +0.130 C 
ATOM     15  C   UNL     1      -2.855  -2.248  24.428  0.00  0.00    +0.131 C 
ATOM     16  C   UNL     1      -5.636  -0.318  24.618  0.00  0.00    +0.185 C 
ATOM     17  C   UNL     1      -3.248  -2.367  25.890  0.00  0.00    +0.185 C 
ENDROOT
BRANCH  14   7
ATOM      7  N   UNL     1      -4.600   1.882  24.632  0.00  0.00    -0.306 N 
ATOM     10  N   UNL     1      -2.615   2.436  25.704  0.00  0.00    -0.211 NA
ATOM     11  N   UNL     1      -3.597   3.896  24.057  0.00  0.00    -0.223 NA
ATOM     18  C   UNL     1      -3.559   2.776  24.805  0.00  0.00    +0.216 A 
ATOM     20  C   UNL     1      -1.615   3.331  25.846  0.00  0.00    +0.111 A 
ATOM     22  C   UNL     1      -2.567   4.746  24.251  0.00  0.00    +0.116 A 
ATOM     23  C   UNL     1      -1.539   4.514  25.140  0.00  0.00    +0.051 A 
ATOM     35  H   UNL     1      -5.285   2.107  23.920  0.00  0.00    +0.149 HD
BRANCH  20  24
ATOM      4  O   UNL     1       0.641   2.789  26.306  0.00  0.00    -0.461 OA
ATOM     24  C   UNL     1      -0.610   2.963  26.808  0.00  0.00    +0.153 A 
ATOM     29  C   UNL     1      -0.621   2.738  28.165  0.00  0.00    +0.051 A 
ATOM     31  C   UNL     1       0.707   2.405  28.520  0.00  0.00    +0.042 A 
ATOM     32  C   UNL     1       1.437   2.450  27.354  0.00  0.00    +0.196 A 
ENDBRANCH  20  24
ENDBRANCH  14   7
BRANCH  15   8
ATOM      3  O   UNL     1      -1.198  -0.003  23.778  0.00  0.00    -0.252 OA
ATOM      8  N   UNL     1      -1.421  -2.252  24.270  0.00  0.00    -0.292 N 
ATOM      9  N   UNL     1       0.678  -1.412  23.862  0.00  0.00    -0.269 N 
ATOM     19  C   UNL     1      -0.683  -1.106  23.949  0.00  0.00    +0.304 C 
ATOM     36  H   UNL     1      -0.915  -3.112  24.463  0.00  0.00    +0.151 HD
ATOM     37  H   UNL     1       0.939  -2.380  24.032  0.00  0.00    +0.156 HD
BRANCH   9  21
ATOM     21  C   UNL     1       1.747  -0.537  23.561  0.00  0.00    +0.042 A 
ATOM     25  C   UNL     1       3.042  -1.037  23.429  0.00  0.00    +0.069 A 
ATOM     26  C   UNL     1       1.506   0.827  23.395  0.00  0.00    +0.069 A 
ATOM     27  C   UNL     1       2.560   1.691  23.098  0.00  0.00    +0.125 A 
ATOM     28  C   UNL     1       4.097  -0.173  23.132  0.00  0.00    +0.125 A 
ATOM     30  C   UNL     1       3.856   1.191  22.966  0.00  0.00    +0.091 A 
BRANCH  27   5
ATOM      5  O   UNL     1       2.326   3.023  22.937  0.00  0.00    -0.495 OA
ATOM     33  C   UNL     1       1.006   3.486  23.213  0.00  0.00    +0.277 C 
ENDBRANCH  27   5
BRANCH  28   6
ATOM      6  O   UNL     1       5.361  -0.661  23.004  0.00  0.00    -0.495 OA
ATOM     34  C   UNL     1       6.385  -0.018  23.762  0.00  0.00    +0.277 C 
ENDBRANCH  28   6
ENDBRANCH   9  21
ENDBRANCH  15   8
TORSDOF 6
ENDMDL
MODEL 3
REMARK VINA RESULT:      10.5      2.342      5.661
REMARK  Name = 11941654
REMARK  8 active torsions:
REMARK  status: ('A' for Active; 'I' for Inactive)
REMARK    1  A    between atoms: O_5  and  C_27
REMARK    2  A    between atoms: O_5  and  C_33
REMARK    3  A    between atoms: O_6  and  C_28
REMARK    4  A    between atoms: O_6  and  C_34
REMARK    5  A    between atoms: N_7  and  C_14
REMARK    6  A    between atoms: N_8  and  C_15
REMARK    7  A    between atoms: N_9  and  C_21
REMARK    8  A    between atoms: C_20  and  C_24
REMARK                            x       y       z     vdW  Elec       q    Type
REMARK                         _______ _______ _______ _____ _____    ______ ____
ROOT
ATOM      1  O   UNL     1      -5.377   2.538  25.765  0.00  0.00    -0.370 OA
ATOM      2  O   UNL     1      -3.681   2.968  23.181  0.00  0.00    -0.370 OA
ATOM     12  C   UNL     1      -3.832   1.862  24.086  0.00  0.00    +0.171 C 
ATOM     13  C   UNL     1      -3.971   2.439  25.482  0.00  0.00    +0.171 C 
ATOM     14  C   UNL     1      -5.147   1.161  23.843  0.00  0.00    +0.130 C 
ATOM     15  C   UNL     1      -3.357   3.816  25.374  0.00  0.00    +0.131 C 
ATOM     16  C   UNL     1      -6.120   1.982  24.670  0.00  0.00    +0.185 C 
ATOM     17  C   UNL     1      -3.651   4.191  23.933  0.00  0.00    +0.185 C 
ENDROOT
BRANCH  14   7
ATOM      7  N   UNL     1      -5.087  -0.195  24.342  0.00  0.00    -0.306 N 
ATOM     10  N   UNL     1      -2.771  -0.251  24.181  0.00  0.00    -0.211 NA
ATOM     11  N   UNL     1      -4.016  -2.150  24.989  0.00  0.00    -0.223 NA
ATOM     18  C   UNL     1      -3.907  -0.896  24.512  0.00  0.00    +0.216 A 
ATOM     20  C   UNL     1      -1.639  -0.964  24.359  0.00  0.00    +0.111 A 
ATOM     22  C   UNL     1      -2.845  -2.805  25.142  0.00  0.00    +0.116 A 
ATOM     23  C   UNL     1      -1.615  -2.257  24.840  0.00  0.00    +0.051 A 
ATOM     35  H   UNL     1      -5.941  -0.655  24.638  0.00  0.00    +0.149 HD
BRANCH  20  24
ATOM      4  O   UNL     1      -0.303   0.981  24.517  0.00  0.00    -0.461 OA
ATOM     24  C   UNL     1      -0.429  -0.272  24.004  0.00  0.00    +0.153 A 
ATOM     29  C   UNL     1       0.668  -0.593  23.239  0.00  0.00    +0.051 A 
ATOM     31  C   UNL     1       1.523   0.533  23.285  0.00  0.00    +0.042 A 
ATOM     32  C   UNL     1       0.888   1.464  24.075  0.00  0.00    +0.196 A 
ENDBRANCH  20  24
ENDBRANCH  14   7
BRANCH  15   8
ATOM      3  O   UNL     1      -2.065   2.905  27.763  0.00  0.00    -0.252 OA
ATOM      8  N   UNL     1      -1.937   3.774  25.625  0.00  0.00    -0.292 N 
ATOM      9  N   UNL     1       0.011   3.390  26.781  0.00  0.00    -0.269 N 
ATOM     19  C   UNL     1      -1.384   3.313  26.825  0.00  0.00    +0.304 C 
ATOM     36  H   UNL     1      -1.305   4.032  24.872  0.00  0.00    +0.151 HD
ATOM     37  H   UNL     1       0.420   3.756  25.924  0.00  0.00    +0.156 HD
BRANCH   9  21
ATOM     21  C   UNL     1       0.934   3.023  27.787  0.00  0.00    +0.042 A 
ATOM     25  C   UNL     1       2.304   3.084  27.533  0.00  0.00    +0.069 A 
ATOM     26  C   UNL     1       0.473   2.599  29.034  0.00  0.00    +0.069 A 
ATOM     27  C   UNL     1       1.382   2.237  30.027  0.00  0.00    +0.125 A 
ATOM     28  C   UNL     1       3.213   2.721  28.527  0.00  0.00    +0.125 A 
ATOM     30  C   UNL     1       2.753   2.298  29.774  0.00  0.00    +0.091 A 
BRANCH  27   5
ATOM      5  O   UNL     1       0.934   1.823  31.245  0.00  0.00    -0.495 OA
ATOM     33  C   UNL     1       0.181   2.760  32.011  0.00  0.00    +0.277 C 
ENDBRANCH  27   5
BRANCH  28   6
ATOM      6  O   UNL     1       4.550   2.780  28.280  0.00  0.00    -0.495 OA
ATOM     34  C   UNL     1       5.120   1.708  27.531  0.00  0.00    +0.277 C 
ENDBRANCH  28   6
ENDBRANCH   9  21
ENDBRANCH  15   8
TORSDOF 6
ENDMDL
MODEL 4
REMARK VINA RESULT:      10.5      2.345      5.456
REMARK  Name = 11941654
REMARK  8 active torsions:
REMARK  status: ('A' for Active; 'I' for Inactive)
REMARK    1  A    between atoms: O_5  and  C_27
REMARK    2  A    between atoms: O_5  and  C_33
REMARK    3  A    between atoms: O_6  and  C_28
REMARK    4  A    between atoms: O_6  and  C_34
REMARK    5  A    between atoms: N_7  and  C_14
REMARK    6  A    between atoms: N_8  and  C_15
REMARK    7  A    between atoms: N_9  and  C_21
REMARK    8  A    between atoms: C_20  and  C_24
REMARK                            x       y       z     vdW  Elec       q    Type
REMARK                         _______ _______ _______ _____ _____    ______ ____
ROOT
ATOM      1  O   UNL     1      -5.386   2.517  25.766  0.00  0.00    -0.370 OA
ATOM      2  O   UNL     1      -3.697   2.961  23.181  0.00  0.00    -0.370 OA
ATOM     12  C   UNL     1      -3.845   1.850  24.080  0.00  0.00    +0.171 C 
ATOM     13  C   UNL     1      -3.981   2.420  25.479  0.00  0.00    +0.171 C 
ATOM     14  C   UNL     1      -5.160   1.150  23.836  0.00  0.00    +0.130 C 
ATOM     15  C   UNL     1      -3.368   3.798  25.377  0.00  0.00    +0.131 C 
ATOM     16  C   UNL     1      -6.132   1.966  24.670  0.00  0.00    +0.185 C 
ATOM     17  C   UNL     1      -3.666   4.180  23.938  0.00  0.00    +0.185 C 
ENDROOT
BRANCH  14   7
ATOM      7  N   UNL     1      -5.097  -0.208  24.328  0.00  0.00    -0.306 N 
ATOM     10  N   UNL     1      -2.781  -0.259  24.170  0.00  0.00    -0.211 NA
ATOM     11  N   UNL     1      -4.022  -2.165  24.966  0.00  0.00    -0.223 NA
ATOM     18  C   UNL     1      -3.916  -0.908  24.496  0.00  0.00    +0.216 A 
ATOM     20  C   UNL     1      -1.648  -0.970  24.345  0.00  0.00    +0.111 A 
ATOM     22  C   UNL     1      -2.851  -2.818  25.116  0.00  0.00    +0.116 A 
ATOM     23  C   UNL     1      -1.622  -2.266  24.819  0.00  0.00    +0.051 A 
ATOM     35  H   UNL     1      -5.950  -0.672  24.621  0.00  0.00    +0.149 HD
BRANCH  20  24
ATOM      4  O   UNL     1      -0.343   0.998  24.465  0.00  0.00    -0.461 OA
ATOM     24  C   UNL     1      -0.439  -0.273  23.995  0.00  0.00    +0.153 A 
ATOM     29  C   UNL     1       0.681  -0.606  23.270  0.00  0.00    +0.051 A 
ATOM     31  C   UNL     1       1.520   0.533  23.296  0.00  0.00    +0.042 A 
ATOM     32  C   UNL     1       0.852   1.483  24.035  0.00  0.00    +0.196 A 
ENDBRANCH  20  24
ENDBRANCH  14   7
BRANCH  15   8
ATOM      3  O   UNL     1      -2.070   2.903  27.769  0.00  0.00    -0.252 OA
ATOM      8  N   UNL     1      -1.947   3.756  25.623  0.00  0.00    -0.292 N 
ATOM      9  N   UNL     1       0.003   3.378  26.777  0.00  0.00    -0.269 N 
ATOM     19  C   UNL     1      -1.391   3.303  26.826  0.00  0.00    +0.304 C 
ATOM     36  H   UNL     1      -1.317   4.007  24.867  0.00  0.00    +0.151 HD
ATOM     37  H   UNL     1       0.410   3.737  25.916  0.00  0.00    +0.156 HD
BRANCH   9  21
ATOM     21  C   UNL     1       0.929   3.017  27.783  0.00  0.00    +0.042 A 
ATOM     25  C   UNL     1       0.472   2.589  29.029  0.00  0.00    +0.069 A 
ATOM     26  C   UNL     1       2.298   3.089  27.529  0.00  0.00    +0.069 A 
ATOM     27  C   UNL     1       3.211   2.733  28.521  0.00  0.00    +0.125 A 
ATOM     28  C   UNL     1       1.386   2.232  30.022  0.00  0.00    +0.125 A 
ATOM     30  C   UNL     1       2.755   2.304  29.768  0.00  0.00    +0.091 A 
BRANCH  27   5
ATOM      5  O   UNL     1       4.549   2.804  28.275  0.00  0.00    -0.495 OA
ATOM     33  C   UNL     1       5.133   1.721  27.553  0.00  0.00    +0.277 C 
ENDBRANCH  27   5
BRANCH  28   6
ATOM      6  O   UNL     1       0.941   1.814  31.238  0.00  0.00    -0.495 OA
ATOM     34  C   UNL     1       0.188   2.749  32.010  0.00  0.00    +0.277 C 
ENDBRANCH  28   6
ENDBRANCH   9  21
ENDBRANCH  15   8
TORSDOF 6
ENDMDL
MODEL 5
REMARK VINA RESULT:      11.0      2.356      5.141
REMARK  Name = 11941654
REMARK  8 active torsions:
REMARK  status: ('A' for Active; 'I' for Inactive)
REMARK    1  A    between atoms: O_5  and  C_27
REMARK    2  A    between atoms: O_5  and  C_33
REMARK    3  A    between atoms: O_6  and  C_28
REMARK    4  A    between atoms: O_6  and  C_34
REMARK    5  A    between atoms: N_7  and  C_14
REMARK    6  A    between atoms: N_8  and  C_15
REMARK    7  A    between atoms: N_9  and  C_21
REMARK    8  A    between atoms: C_20  and  C_24
REMARK                            x       y       z     vdW  Elec       q    Type
REMARK                         _______ _______ _______ _____ _____    ______ ____
ROOT
ATOM      1  O   UNL     1      -3.477   4.806  27.070  0.00  0.00    -0.370 OA
ATOM      2  O   UNL     1      -3.823   5.302  24.009  0.00  0.00    -0.370 OA
ATOM     12  C   UNL     1      -3.885   4.122  24.828  0.00  0.00    +0.171 C 
ATOM     13  C   UNL     1      -2.828   4.268  25.906  0.00  0.00    +0.171 C 
ATOM     14  C   UNL     1      -5.188   4.080  25.590  0.00  0.00    +0.130 C 
ATOM     15  C   UNL     1      -1.854   5.273  25.334  0.00  0.00    +0.131 C 
ATOM     16  C   UNL     1      -4.885   4.925  26.814  0.00  0.00    +0.185 C 
ATOM     17  C   UNL     1      -2.753   6.140  24.470  0.00  0.00    +0.185 C 
ENDROOT
BRANCH  14   7
ATOM      7  N   UNL     1      -5.489   2.721  25.982  0.00  0.00    -0.306 N 
ATOM     10  N   UNL     1      -4.158   1.839  24.296  0.00  0.00    -0.211 NA
ATOM     11  N   UNL     1      -5.350   0.409  25.826  0.00  0.00    -0.223 NA
ATOM     18  C   UNL     1      -4.977   1.608  25.341  0.00  0.00    +0.216 A 
ATOM     20  C   UNL     1      -3.676   0.732  23.695  0.00  0.00    +0.111 A 
ATOM     22  C   UNL     1      -4.832  -0.655  25.177  0.00  0.00    +0.116 A 
ATOM     23  C   UNL     1      -3.982  -0.553  24.095  0.00  0.00    +0.051 A 
ATOM     35  H   UNL     1      -6.064   2.555  26.801  0.00  0.00    +0.149 HD
BRANCH  20  24
ATOM      4  O   UNL     1      -2.918   2.215  22.016  0.00  0.00    -0.461 OA
ATOM     24  C   UNL     1      -2.803   0.984  22.579  0.00  0.00    +0.153 A 
ATOM     29  C   UNL     1      -1.845   0.243  21.928  0.00  0.00    +0.051 A 
ATOM     31  C   UNL     1      -1.339   1.071  20.898  0.00  0.00    +0.042 A 
ATOM     32  C   UNL     1      -2.024   2.260  20.993  0.00  0.00    +0.196 A 
ENDBRANCH  20  24
ENDBRANCH  14   7
BRANCH  15   8
ATOM      3  O   UNL     1      -1.056   2.526  25.495  0.00  0.00    -0.252 OA
ATOM      8  N   UNL     1      -0.838   4.622  24.544  0.00  0.00    -0.292 N 
ATOM      9  N   UNL     1       0.510   2.921  23.792  0.00  0.00    -0.269 N 
ATOM     19  C   UNL     1      -0.506   3.270  24.686  0.00  0.00    +0.304 C 
ATOM     36  H   UNL     1      -0.385   5.154  23.806  0.00  0.00    +0.151 HD
ATOM     37  H   UNL     1       0.859   3.661  23.187  0.00  0.00    +0.156 HD
BRANCH   9  21
ATOM     21  C   UNL     1       1.122   1.657  23.622  0.00  0.00    +0.042 A 
ATOM     25  C   UNL     1       2.418   1.573  23.115  0.00  0.00    +0.069 A 
ATOM     26  C   UNL     1       0.428   0.496  23.962  0.00  0.00    +0.069 A 
ATOM     27  C   UNL     1       1.030  -0.750  23.795  0.00  0.00    +0.125 A 
ATOM     28  C   UNL     1       3.021   0.325  22.948  0.00  0.00    +0.125 A 
ATOM     30  C   UNL     1       2.327  -0.836  23.288  0.00  0.00    +0.091 A 
BRANCH  27   5
ATOM      5  O   UNL     1       0.354  -1.885  24.125  0.00  0.00    -0.495 OA
ATOM     33  C   UNL     1      -0.653  -1.770  25.129  0.00  0.00    +0.277 C 
ENDBRANCH  27   5
BRANCH  28   6
ATOM      6  O   UNL     1       4.286   0.242  22.454  0.00  0.00    -0.495 OA
ATOM     34  C   UNL     1       5.341   0.051  23.396  0.00  0.00    +0.277 C 
ENDBRANCH  28   6
ENDBRANCH   9  21
ENDBRANCH  15   8
TORSDOF 6
ENDMDL
MODEL 6
REMARK VINA RESULT:      11.1      2.349      4.972
REMARK  Name = 11941654
REMARK  8 active torsions:
REMARK  status: ('A' for Active; 'I' for Inactive)
REMARK    1  A    between atoms: O_5  and  C_27
REMARK    2  A    between atoms: O_5  and  C_33
REMARK    3  A    between atoms: O_6  and  C_28
REMARK    4  A    between atoms: O_6  and  C_34
REMARK    5  A    between atoms: N_7  and  C_14
REMARK    6  A    between atoms: N_8  and  C_15
REMARK    7  A    between atoms: N_9  and  C_21
REMARK    8  A    between atoms: C_20  and  C_24
REMARK                            x       y       z     vdW  Elec       q    Type
REMARK                         _______ _______ _______ _____ _____    ______ ____
ROOT
ATOM      1  O   UNL     1      -3.402   4.824  27.104  0.00  0.00    -0.370 OA
ATOM      2  O   UNL     1      -3.782   5.311  24.046  0.00  0.00    -0.370 OA
ATOM     12  C   UNL     1      -3.834   4.134  24.869  0.00  0.00    +0.171 C 
ATOM     13  C   UNL     1      -2.766   4.284  25.935  0.00  0.00    +0.171 C 
ATOM     14  C   UNL     1      -5.128   4.093  25.645  0.00  0.00    +0.130 C 
ATOM     15  C   UNL     1      -1.799   5.288  25.349  0.00  0.00    +0.131 C 
ATOM     16  C   UNL     1      -4.813   4.942  26.864  0.00  0.00    +0.185 C 
ATOM     17  C   UNL     1      -2.708   6.152  24.492  0.00  0.00    +0.185 C 
ENDROOT
BRANCH  14   7
ATOM      7  N   UNL     1      -5.424   2.735  26.044  0.00  0.00    -0.306 N 
ATOM     10  N   UNL     1      -4.127   1.849  24.333  0.00  0.00    -0.211 NA
ATOM     11  N   UNL     1      -5.292   0.422  25.888  0.00  0.00    -0.223 NA
ATOM     18  C   UNL     1      -4.926   1.620  25.394  0.00  0.00    +0.216 A 
ATOM     20  C   UNL     1      -3.659   0.740  23.724  0.00  0.00    +0.111 A 
ATOM     22  C   UNL     1      -4.787  -0.643  25.230  0.00  0.00    +0.116 A 
ATOM     23  C   UNL     1      -3.959  -0.544  24.131  0.00  0.00    +0.051 A 
ATOM     35  H   UNL     1      -5.983   2.570  26.874  0.00  0.00    +0.149 HD
BRANCH  20  24
ATOM      4  O   UNL     1      -2.941   2.216  22.021  0.00  0.00    -0.461 OA
ATOM     24  C   UNL     1      -2.807   0.990  22.592  0.00  0.00    +0.153 A 
ATOM     29  C   UNL     1      -1.855   0.250  21.929  0.00  0.00    +0.051 A 
ATOM     31  C   UNL     1      -1.373   1.074  20.884  0.00  0.00    +0.042 A 
ATOM     32  C   UNL     1      -2.066   2.259  20.982  0.00  0.00    +0.196 A 
ENDBRANCH  20  24
ENDBRANCH  14   7
BRANCH  15   8
ATOM      3  O   UNL     1      -1.012   2.537  25.493  0.00  0.00    -0.252 OA
ATOM      8  N   UNL     1      -0.790   4.636  24.549  0.00  0.00    -0.292 N 
ATOM      9  N   UNL     1       0.545   2.932  23.782  0.00  0.00    -0.269 N 
ATOM     19  C   UNL     1      -0.464   3.282  24.684  0.00  0.00    +0.304 C 
ATOM     36  H   UNL     1      -0.340   5.169  23.811  0.00  0.00    +0.151 HD
ATOM     37  H   UNL     1       0.893   3.673  23.178  0.00  0.00    +0.156 HD
BRANCH   9  21
ATOM     21  C   UNL     1       1.150   1.666  23.603  0.00  0.00    +0.042 A 
ATOM     25  C   UNL     1       0.450   0.506  23.934  0.00  0.00    +0.069 A 
ATOM     26  C   UNL     1       2.446   1.579  23.096  0.00  0.00    +0.069 A 
ATOM     27  C   UNL     1       3.043   0.331  22.919  0.00  0.00    +0.125 A 
ATOM     28  C   UNL     1       1.048  -0.742  23.757  0.00  0.00    +0.125 A 
ATOM     30  C   UNL     1       2.344  -0.830  23.250  0.00  0.00    +0.091 A 
BRANCH  27   5
ATOM      5  O   UNL     1       4.309   0.245  22.424  0.00  0.00    -0.495 OA
ATOM     33  C   UNL     1       5.367   0.120  23.372  0.00  0.00    +0.277 C 
ENDBRANCH  27   5
BRANCH  28   6
ATOM      6  O   UNL     1       0.366  -1.875  24.080  0.00  0.00    -0.495 OA
ATOM     34  C   UNL     1      -0.603  -1.775  25.123  0.00  0.00    +0.277 C 
ENDBRANCH  28   6
ENDBRANCH   9  21
ENDBRANCH  15   8
TORSDOF 6
ENDMDL
MODEL 7
REMARK VINA RESULT:      11.1      2.003      4.258
REMARK  Name = 11941654
REMARK  8 active torsions:
REMARK  status: ('A' for Active; 'I' for Inactive)
REMARK    1  A    between atoms: O_5  and  C_27
REMARK    2  A    between atoms: O_5  and  C_33
REMARK    3  A    between atoms: O_6  and  C_28
REMARK    4  A    between atoms: O_6  and  C_34
REMARK    5  A    between atoms: N_7  and  C_14
REMARK    6  A    between atoms: N_8  and  C_15
REMARK    7  A    between atoms: N_9  and  C_21
REMARK    8  A    between atoms: C_20  and  C_24
REMARK                            x       y       z     vdW  Elec       q    Type
REMARK                         _______ _______ _______ _____ _____    ______ ____
ROOT
ATOM      1  O   UNL     1      -3.592   4.370  27.030  0.00  0.00    -0.370 OA
ATOM      2  O   UNL     1      -2.115   4.716  24.303  0.00  0.00    -0.370 OA
ATOM     12  C   UNL     1      -3.157   3.835  24.752  0.00  0.00    +0.171 C 
ATOM     13  C   UNL     1      -2.848   3.470  26.191  0.00  0.00    +0.171 C 
ATOM     14  C   UNL     1      -4.471   4.575  24.832  0.00  0.00    +0.130 C 
ATOM     15  C   UNL     1      -1.364   3.729  26.326  0.00  0.00    +0.131 C 
ATOM     16  C   UNL     1      -4.409   5.216  26.207  0.00  0.00    +0.185 C 
ATOM     17  C   UNL     1      -1.144   4.869  25.349  0.00  0.00    +0.185 C 
ENDROOT
BRANCH  14   7
ATOM      7  N   UNL     1      -5.572   3.639  24.766  0.00  0.00    -0.306 N 
ATOM     10  N   UNL     1      -4.144   1.809  24.852  0.00  0.00    -0.211 NA
ATOM     11  N   UNL     1      -6.534   1.526  24.712  0.00  0.00    -0.223 NA
ATOM     18  C   UNL     1      -5.410   2.265  24.778  0.00  0.00    +0.216 A 
ATOM     20  C   UNL     1      -4.023   0.465  24.862  0.00  0.00    +0.111 A 
ATOM     22  C   UNL     1      -6.339   0.191  24.725  0.00  0.00    +0.116 A 
ATOM     23  C   UNL     1      -5.095  -0.402  24.799  0.00  0.00    +0.051 A 
ATOM     35  H   UNL     1      -6.523   3.989  24.764  0.00  0.00    +0.149 HD
BRANCH  20  24
ATOM      4  O   UNL     1      -2.178  -0.167  26.198  0.00  0.00    -0.461 OA
ATOM     24  C   UNL     1      -2.670  -0.017  24.940  0.00  0.00    +0.153 A 
ATOM     29  C   UNL     1      -1.726  -0.375  24.006  0.00  0.00    +0.051 A 
ATOM     31  C   UNL     1      -0.580  -0.769  24.736  0.00  0.00    +0.042 A 
ATOM     32  C   UNL     1      -0.905  -0.625  26.065  0.00  0.00    +0.196 A 
ENDBRANCH  20  24
ENDBRANCH  14   7
BRANCH  15   8
ATOM      3  O   UNL     1       0.282   3.434  24.001  0.00  0.00    -0.252 OA
ATOM      8  N   UNL     1      -0.596   2.565  25.955  0.00  0.00    -0.292 N 
ATOM      9  N   UNL     1       0.813   1.257  24.698  0.00  0.00    -0.269 N 
ATOM     19  C   UNL     1       0.186   2.502  24.796  0.00  0.00    +0.304 C 
ATOM     36  H   UNL     1      -0.571   1.778  26.597  0.00  0.00    +0.151 HD
ATOM     37  H   UNL     1       0.625   0.593  25.445  0.00  0.00    +0.156 HD
BRANCH   9  21
ATOM     21  C   UNL     1       1.681   0.799  23.680  0.00  0.00    +0.042 A 
ATOM     25  C   UNL     1       1.159   0.190  22.540  0.00  0.00    +0.069 A 
ATOM     26  C   UNL     1       3.060   0.957  23.818  0.00  0.00    +0.069 A 
ATOM     27  C   UNL     1       3.918   0.505  22.816  0.00  0.00    +0.125 A 
ATOM     28  C   UNL     1       2.017  -0.261  21.536  0.00  0.00    +0.125 A 
ATOM     30  C   UNL     1       3.396  -0.104  21.674  0.00  0.00    +0.091 A 
BRANCH  27   5
ATOM      5  O   UNL     1       5.264   0.658  22.949  0.00  0.00    -0.495 OA
ATOM     33  C   UNL     1       5.857   0.154  24.145  0.00  0.00    +0.277 C 
ENDBRANCH  27   5
BRANCH  28   6
ATOM      6  O   UNL     1       1.508  -0.856  20.423  0.00  0.00    -0.495 OA
ATOM     34  C   UNL     1       0.109  -0.704  20.187  0.00  0.00    +0.277 C 
ENDBRANCH  28   6
ENDBRANCH   9  21
ENDBRANCH  15   8
TORSDOF 6
ENDMDL
MODEL 8
REMARK VINA RESULT:      11.1      2.015      4.504
REMARK  Name = 11941654
REMARK  8 active torsions:
REMARK  status: ('A' for Active; 'I' for Inactive)
REMARK    1  A    between atoms: O_5  and  C_27
REMARK    2  A    between atoms: O_5  and  C_33
REMARK    3  A    between atoms: O_6  and  C_28
REMARK    4  A    between atoms: O_6  and  C_34
REMARK    5  A    between atoms: N_7  and  C_14
REMARK    6  A    between atoms: N_8  and  C_15
REMARK    7  A    between atoms: N_9  and  C_21
REMARK    8  A    between atoms: C_20  and  C_24
REMARK                            x       y       z     vdW  Elec       q    Type
REMARK                         _______ _______ _______ _____ _____    ______ ____
ROOT
ATOM      1  O   UNL     1      -3.715   4.276  27.010  0.00  0.00    -0.370 OA
ATOM      2  O   UNL     1      -2.193   4.676  24.315  0.00  0.00    -0.370 OA
ATOM     12  C   UNL     1      -3.224   3.768  24.738  0.00  0.00    +0.171 C 
ATOM     13  C   UNL     1      -2.935   3.399  26.180  0.00  0.00    +0.171 C 
ATOM     14  C   UNL     1      -4.556   4.477  24.796  0.00  0.00    +0.130 C 
ATOM     15  C   UNL     1      -1.461   3.691  26.346  0.00  0.00    +0.131 C 
ATOM     16  C   UNL     1      -4.535   5.110  26.176  0.00  0.00    +0.185 C 
ATOM     17  C   UNL     1      -1.247   4.844  25.382  0.00  0.00    +0.185 C 
ENDROOT
BRANCH  14   7
ATOM      7  N   UNL     1      -5.633   3.517  24.702  0.00  0.00    -0.306 N 
ATOM     10  N   UNL     1      -4.169   1.719  24.841  0.00  0.00    -0.211 NA
ATOM     11  N   UNL     1      -6.546   1.383  24.630  0.00  0.00    -0.223 NA
ATOM     18  C   UNL     1      -5.441   2.147  24.726  0.00  0.00    +0.216 A 
ATOM     20  C   UNL     1      -4.019   0.378  24.861  0.00  0.00    +0.111 A 
ATOM     22  C   UNL     1      -6.323   0.053  24.656  0.00  0.00    +0.116 A 
ATOM     23  C   UNL     1      -5.069  -0.512  24.771  0.00  0.00    +0.051 A 
ATOM     35  H   UNL     1      -6.592   3.845  24.669  0.00  0.00    +0.149 HD
BRANCH  20  24
ATOM      4  O   UNL     1      -2.192  -0.178  26.256  0.00  0.00    -0.461 OA
ATOM     24  C   UNL     1      -2.659  -0.074  24.983  0.00  0.00    +0.153 A 
ATOM     29  C   UNL     1      -1.686  -0.437  24.081  0.00  0.00    +0.051 A 
ATOM     31  C   UNL     1      -0.550  -0.788  24.847  0.00  0.00    +0.042 A 
ATOM     32  C   UNL     1      -0.907  -0.613  26.164  0.00  0.00    +0.196 A 
ENDBRANCH  20  24
ENDBRANCH  14   7
BRANCH  15   8
ATOM      3  O   UNL     1       0.203   3.434  24.028  0.00  0.00    -0.252 OA
ATOM      8  N   UNL     1      -0.658   2.548  25.982  0.00  0.00    -0.292 N 
ATOM      9  N   UNL     1       0.791   1.275  24.736  0.00  0.00    -0.269 N 
ATOM     19  C   UNL     1       0.129   2.503  24.826  0.00  0.00    +0.304 C 
ATOM     36  H   UNL     1      -0.613   1.764  26.627  0.00  0.00    +0.151 HD
ATOM     37  H   UNL     1       0.619   0.609  25.484  0.00  0.00    +0.156 HD
BRANCH   9  21
ATOM     21  C   UNL     1       1.676   0.838  23.723  0.00  0.00    +0.042 A 
ATOM     25  C   UNL     1       3.050   1.037  23.864  0.00  0.00    +0.069 A 
ATOM     26  C   UNL     1       1.176   0.208  22.584  0.00  0.00    +0.069 A 
ATOM     27  C   UNL     1       2.048  -0.223  21.585  0.00  0.00    +0.125 A 
ATOM     28  C   UNL     1       3.922   0.605  22.864  0.00  0.00    +0.125 A 
ATOM     30  C   UNL     1       3.421  -0.025  21.725  0.00  0.00    +0.091 A 
BRANCH  27   5
ATOM      5  O   UNL     1       1.560  -0.837  20.472  0.00  0.00    -0.495 OA
ATOM     33  C   UNL     1       0.157  -0.731  20.236  0.00  0.00    +0.277 C 
ENDBRANCH  27   5
BRANCH  28   6
ATOM      6  O   UNL     1       5.262   0.799  23.001  0.00  0.00    -0.495 OA
ATOM     34  C   UNL     1       5.984  -0.168  23.763  0.00  0.00    +0.277 C 
ENDBRANCH  28   6
ENDBRANCH   9  21
ENDBRANCH  15   8
TORSDOF 6
ENDMDL
MODEL 9
REMARK VINA RESULT:      12.6      2.769      4.491
REMARK  Name = 11941654
REMARK  8 active torsions:
REMARK  status: ('A' for Active; 'I' for Inactive)
REMARK    1  A    between atoms: O_5  and  C_27
REMARK    2  A    between atoms: O_5  and  C_33
REMARK    3  A    between atoms: O_6  and  C_28
REMARK    4  A    between atoms: O_6  and  C_34
REMARK    5  A    between atoms: N_7  and  C_14
REMARK    6  A    between atoms: N_8  and  C_15
REMARK    7  A    between atoms: N_9  and  C_21
REMARK    8  A    between atoms: C_20  and  C_24
REMARK                            x       y       z     vdW  Elec       q    Type
REMARK                         _______ _______ _______ _____ _____    ______ ____
ROOT
ATOM      1  O   UNL     1      -3.444   0.001  22.721  0.00  0.00    -0.370 OA
ATOM      2  O   UNL     1      -1.970  -1.232  25.180  0.00  0.00    -0.370 OA
ATOM     12  C   UNL     1      -3.028  -0.269  25.048  0.00  0.00    +0.171 C 
ATOM     13  C   UNL     1      -2.721   0.572  23.824  0.00  0.00    +0.171 C 
ATOM     14  C   UNL     1      -4.327  -0.959  24.707  0.00  0.00    +0.130 C 
ATOM     15  C   UNL     1      -1.233   0.402  23.624  0.00  0.00    +0.131 C 
ATOM     16  C   UNL     1      -4.247  -1.090  23.196  0.00  0.00    +0.185 C 
ATOM     17  C   UNL     1      -0.993  -1.001  24.154  0.00  0.00    +0.185 C 
ENDROOT
BRANCH  14   7
ATOM      7  N   UNL     1      -5.446  -0.122  25.077  0.00  0.00    -0.306 N 
ATOM     10  N   UNL     1      -4.145   1.801  25.031  0.00  0.00    -0.211 NA
ATOM     11  N   UNL     1      -6.489   1.890  25.583  0.00  0.00    -0.223 NA
ATOM     18  C   UNL     1      -5.356   1.249  25.237  0.00  0.00    +0.216 A 
ATOM     20  C   UNL     1      -4.094   3.139  25.195  0.00  0.00    +0.111 A 
ATOM     22  C   UNL     1      -6.365   3.225  25.731  0.00  0.00    +0.116 A 
ATOM     23  C   UNL     1      -5.182   3.911  25.548  0.00  0.00    +0.051 A 
ATOM     35  H   UNL     1      -6.366  -0.537  25.179  0.00  0.00    +0.149 HD
BRANCH  20  24
ATOM      4  O   UNL     1      -2.258   3.498  23.748  0.00  0.00    -0.461 OA
ATOM     24  C   UNL     1      -2.798   3.724  24.975  0.00  0.00    +0.153 A 
ATOM     29  C   UNL     1      -1.947   4.484  25.744  0.00  0.00    +0.051 A 
ATOM     31  C   UNL     1      -0.814   4.742  24.939  0.00  0.00    +0.042 A 
ATOM     32  C   UNL     1      -1.050   4.121  23.734  0.00  0.00    +0.196 A 
ENDBRANCH  20  24
ENDBRANCH  14   7
BRANCH  15   8
ATOM      3  O   UNL     1      -0.446   0.210  26.372  0.00  0.00    -0.252 OA
ATOM      8  N   UNL     1      -0.489   1.381  24.379  0.00  0.00    -0.292 N 
ATOM      9  N   UNL     1       0.571   2.317  26.189  0.00  0.00    -0.269 N 
ATOM     19  C   UNL     1      -0.144   1.210  25.725  0.00  0.00    +0.304 C 
ATOM     36  H   UNL     1      -0.145   2.205  23.894  0.00  0.00    +0.151 HD
ATOM     37  H   UNL     1       0.735   3.066  25.520  0.00  0.00    +0.156 HD
BRANCH   9  21
ATOM     21  C   UNL     1       1.096   2.531  27.484  0.00  0.00    +0.042 A 
ATOM     25  C   UNL     1       0.240   2.592  28.583  0.00  0.00    +0.069 A 
ATOM     26  C   UNL     1       2.471   2.682  27.662  0.00  0.00    +0.069 A 
ATOM     27  C   UNL     1       2.990   2.893  28.939  0.00  0.00    +0.125 A 
ATOM     28  C   UNL     1       0.759   2.803  29.861  0.00  0.00    +0.125 A 
ATOM     30  C   UNL     1       2.134   2.953  30.039  0.00  0.00    +0.091 A 
BRANCH  27   5
ATOM      5  O   UNL     1       4.333   3.041  29.114  0.00  0.00    -0.495 OA
ATOM     33  C   UNL     1       5.185   2.289  28.252  0.00  0.00    +0.277 C 
ENDBRANCH  27   5
BRANCH  28   6
ATOM      6  O   UNL     1      -0.076   2.862  30.934  0.00  0.00    -0.495 OA
ATOM     34  C   UNL     1       0.427   2.374  32.176  0.00  0.00    +0.277 C 
ENDBRANCH  28   6
ENDBRANCH   9  21
ENDBRANCH  15   8
TORSDOF 6
ENDMDL
MODEL 10
REMARK VINA RESULT:      12.6      2.764      4.764
REMARK  Name = 11941654
REMARK  8 active torsions:
REMARK  status: ('A' for Active; 'I' for Inactive)
REMARK    1  A    between atoms: O_5  and  C_27
REMARK    2  A    between atoms: O_5  and  C_33
REMARK    3  A    between atoms: O_6  and  C_28
REMARK    4  A    between atoms: O_6  and  C_34
REMARK    5  A    between atoms: N_7  and  C_14
REMARK    6  A    between atoms: N_8  and  C_15
REMARK    7  A    between atoms: N_9  and  C_21
REMARK    8  A    between atoms: C_20  and  C_24
REMARK                            x       y       z     vdW  Elec       q    Type
REMARK                         _______ _______ _______ _____ _____    ______ ____
ROOT
ATOM      1  O   UNL     1      -3.434   0.018  22.732  0.00  0.00    -0.370 OA
ATOM      2  O   UNL     1      -1.919  -1.237  25.154  0.00  0.00    -0.370 OA
ATOM     12  C   UNL     1      -2.988  -0.282  25.050  0.00  0.00    +0.171 C 
ATOM     13  C   UNL     1      -2.704   0.580  23.835  0.00  0.00    +0.171 C 
ATOM     14  C   UNL     1      -4.284  -0.981  24.713  0.00  0.00    +0.130 C 
ATOM     15  C   UNL     1      -1.216   0.427  23.615  0.00  0.00    +0.131 C 
ATOM     16  C   UNL     1      -4.220  -1.088  23.200  0.00  0.00    +0.185 C 
ATOM     17  C   UNL     1      -0.956  -0.980  24.121  0.00  0.00    +0.185 C 
ENDROOT
BRANCH  14   7
ATOM      7  N   UNL     1      -5.407  -0.160  25.109  0.00  0.00    -0.306 N 
ATOM     10  N   UNL     1      -4.131   1.779  25.055  0.00  0.00    -0.211 NA
ATOM     11  N   UNL     1      -6.466   1.835  25.648  0.00  0.00    -0.223 NA
ATOM     18  C   UNL     1      -5.331   1.210  25.278  0.00  0.00    +0.216 A 
ATOM     20  C   UNL     1      -4.093   3.117  25.227  0.00  0.00    +0.111 A 
ATOM     22  C   UNL     1      -6.356   3.171  25.803  0.00  0.00    +0.116 A 
ATOM     23  C   UNL     1      -5.185   3.872  25.605  0.00  0.00    +0.051 A 
ATOM     35  H   UNL     1      -6.319  -0.587  25.224  0.00  0.00    +0.149 HD
BRANCH  20  24
ATOM      4  O   UNL     1      -2.299   3.529  23.743  0.00  0.00    -0.461 OA
ATOM     24  C   UNL     1      -2.809   3.719  24.989  0.00  0.00    +0.153 A 
ATOM     29  C   UNL     1      -1.946   4.469  25.754  0.00  0.00    +0.051 A 
ATOM     31  C   UNL     1      -0.836   4.758  24.927  0.00  0.00    +0.042 A 
ATOM     32  C   UNL     1      -1.097   4.164  23.714  0.00  0.00    +0.196 A 
ENDBRANCH  20  24
ENDBRANCH  14   7
BRANCH  15   8
ATOM      3  O   UNL     1      -0.417   0.213  26.358  0.00  0.00    -0.252 OA
ATOM      8  N   UNL     1      -0.473   1.403  24.376  0.00  0.00    -0.292 N 
ATOM      9  N   UNL     1       0.590   2.326  26.191  0.00  0.00    -0.269 N 
ATOM     19  C   UNL     1      -0.122   1.220  25.719  0.00  0.00    +0.304 C 
ATOM     36  H   UNL     1      -0.134   2.232  23.898  0.00  0.00    +0.151 HD
ATOM     37  H   UNL     1       0.749   3.082  25.529  0.00  0.00    +0.156 HD
BRANCH   9  21
ATOM     21  C   UNL     1       1.121   2.530  27.486  0.00  0.00    +0.042 A 
ATOM     25  C   UNL     1       2.495   2.691  27.659  0.00  0.00    +0.069 A 
ATOM     26  C   UNL     1       0.269   2.569  28.589  0.00  0.00    +0.069 A 
ATOM     27  C   UNL     1       0.791   2.770  29.867  0.00  0.00    +0.125 A 
ATOM     28  C   UNL     1       3.017   2.892  28.937  0.00  0.00    +0.125 A 
ATOM     30  C   UNL     1       2.166   2.932  30.041  0.00  0.00    +0.091 A 
BRANCH  27   5
ATOM      5  O   UNL     1      -0.040   2.808  30.945  0.00  0.00    -0.495 OA
ATOM     33  C   UNL     1       0.491   2.350  32.188  0.00  0.00    +0.277 C 
ENDBRANCH  27   5
BRANCH  28   6
ATOM      6  O   UNL     1       4.359   3.050  29.107  0.00  0.00    -0.495 OA
ATOM     34  C   UNL     1       5.215   2.298  28.248  0.00  0.00    +0.277 C 
ENDBRANCH  28   6
ENDBRANCH   9  21
ENDBRANCH  15   8
TORSDOF 6
ENDMDL
