MODEL 1
REMARK VINA RESULT:      24.0      0.000      0.000
REMARK  Name = 11884208
REMARK  2 active torsions:
REMARK  status: ('A' for Active; 'I' for Inactive)
REMARK    1  A    between atoms: C_16  and  C_20
REMARK    2  A    between atoms: C_19  and  C_22
REMARK                            x       y       z     vdW  Elec       q    Type
REMARK                         _______ _______ _______ _____ _____    ______ ____
ROOT
ATOM      2  O   UNL     1      -2.570   0.896  22.504  0.00  0.00    -0.273 OA
ATOM      3  O   UNL     1       1.325   1.475  26.029  0.00  0.00    -0.270 OA
ATOM      4  O   UNL     1      -4.552   4.417  22.866  0.00  0.00    -0.269 OA
ATOM      5  N   UNL     1      -0.400   2.149  24.644  0.00  0.00    -0.283 N 
ATOM      6  N   UNL     1      -3.025   3.322  24.216  0.00  0.00    -0.293 N 
ATOM      7  N   UNL     1      -0.423   0.143  22.471  0.00  0.00    -0.283 N 
ATOM      8  C   UNL     1      -0.874   2.421  23.294  0.00  0.00    +0.180 C 
ATOM      9  C   UNL     1      -1.939   3.524  23.252  0.00  0.00    +0.140 C 
ATOM     10  C   UNL     1      -1.182   2.698  25.753  0.00  0.00    +0.128 C 
ATOM     11  C   UNL     1      -2.675   2.643  25.471  0.00  0.00    +0.127 C 
ATOM     12  C   UNL     1      -1.380   1.093  22.756  0.00  0.00    +0.239 C 
ATOM     13  C   UNL     1       0.825   1.542  24.905  0.00  0.00    +0.249 C 
ATOM     14  C   UNL     1       1.567   0.908  23.783  0.00  0.00    +0.059 A 
ATOM     15  C   UNL     1       0.961   0.190  22.739  0.00  0.00    +0.046 A 
ATOM     16  C   UNL     1      -4.299   3.854  23.932  0.00  0.00    +0.253 C 
ATOM     17  C   UNL     1       2.969   0.895  23.907  0.00  0.00    +0.023 A 
ATOM     18  C   UNL     1       1.771  -0.581  21.885  0.00  0.00    +0.024 A 
ATOM     19  C   UNL     1       3.759   0.164  23.021  0.00  0.00    -0.017 A 
ATOM     21  C   UNL     1       3.159  -0.585  22.017  0.00  0.00    +0.010 A 
ATOM     31  H   UNL     1      -0.741  -0.645  21.912  0.00  0.00    +0.155 HD
ENDROOT
BRANCH  19  22
ATOM     22  C   UNL     1       5.199   0.167  23.161  0.00  0.00    -0.018 A 
ATOM     25  C   UNL     1       5.815   1.084  24.012  0.00  0.00    +0.008 A 
ATOM     26  C   UNL     1       5.971  -0.748  22.445  0.00  0.00    +0.008 A 
ATOM     28  C   UNL     1       7.203   1.087  24.148  0.00  0.00    +0.001 A 
ATOM     29  C   UNL     1       7.360  -0.745  22.581  0.00  0.00    +0.001 A 
ATOM     30  C   UNL     1       7.976   0.173  23.432  0.00  0.00    +0.000 A 
ENDBRANCH  19  22
BRANCH  16  20
ATOM      1  S   UNL     1      -5.853   2.163  25.412  0.00  0.00    -0.092 S 
ATOM     20  C   UNL     1      -5.325   3.726  24.963  0.00  0.00    +0.074 A 
ATOM     23  C   UNL     1      -5.966   4.717  25.663  0.00  0.00    +0.021 A 
ATOM     24  C   UNL     1      -6.910   4.187  26.590  0.00  0.00    +0.008 A 
ATOM     27  C   UNL     1      -6.950   2.811  26.556  0.00  0.00    +0.046 A 
ENDBRANCH  16  20
TORSDOF 2
ENDMDL
MODEL 2
REMARK VINA RESULT:      26.0      3.071      9.460
REMARK  Name = 11884208
REMARK  2 active torsions:
REMARK  status: ('A' for Active; 'I' for Inactive)
REMARK    1  A    between atoms: C_16  and  C_20
REMARK    2  A    between atoms: C_19  and  C_22
REMARK                            x       y       z     vdW  Elec       q    Type
REMARK                         _______ _______ _______ _____ _____    ______ ____
ROOT
ATOM      2  O   UNL     1       1.876  -0.726  21.428  0.00  0.00    -0.273 OA
ATOM      3  O   UNL     1       0.485   3.074  24.825  0.00  0.00    -0.270 OA
ATOM      4  O   UNL     1       4.689  -2.745  23.542  0.00  0.00    -0.269 OA
ATOM      5  N   UNL     1       1.447   1.084  24.146  0.00  0.00    -0.283 N 
ATOM      6  N   UNL     1       3.756  -0.640  23.769  0.00  0.00    -0.293 N 
ATOM      7  N   UNL     1      -0.138   0.270  21.786  0.00  0.00    -0.283 N 
ATOM      8  C   UNL     1       1.272  -0.299  23.725  0.00  0.00    +0.180 C 
ATOM      9  C   UNL     1       2.449  -1.195  24.132  0.00  0.00    +0.140 C 
ATOM     10  C   UNL     1       2.782   1.487  24.591  0.00  0.00    +0.128 C 
ATOM     11  C   UNL     1       3.874   0.824  23.766  0.00  0.00    +0.127 C 
ATOM     12  C   UNL     1       1.062  -0.251  22.220  0.00  0.00    +0.239 C 
ATOM     13  C   UNL     1       0.382   1.968  24.292  0.00  0.00    +0.249 C 
ATOM     14  C   UNL     1      -0.950   1.584  23.755  0.00  0.00    +0.059 A 
ATOM     15  C   UNL     1      -1.148   0.891  22.549  0.00  0.00    +0.046 A 
ATOM     16  C   UNL     1       4.831  -1.521  23.530  0.00  0.00    +0.253 C 
ATOM     17  C   UNL     1      -2.062   2.122  24.431  0.00  0.00    +0.023 A 
ATOM     18  C   UNL     1      -2.447   0.814  22.014  0.00  0.00    +0.024 A 
ATOM     19  C   UNL     1      -3.348   1.993  23.911  0.00  0.00    -0.017 A 
ATOM     21  C   UNL     1      -3.539   1.350  22.694  0.00  0.00    +0.010 A 
ATOM     31  H   UNL     1      -0.362   0.096  20.808  0.00  0.00    +0.155 HD
ENDROOT
BRANCH  19  22
ATOM     22  C   UNL     1      -4.479   2.548  24.623  0.00  0.00    -0.018 A 
ATOM     25  C   UNL     1      -5.524   1.718  25.026  0.00  0.00    +0.008 A 
ATOM     26  C   UNL     1      -4.522   3.913  24.908  0.00  0.00    +0.008 A 
ATOM     28  C   UNL     1      -6.614   2.251  25.714  0.00  0.00    +0.001 A 
ATOM     29  C   UNL     1      -5.612   4.447  25.596  0.00  0.00    +0.001 A 
ATOM     30  C   UNL     1      -6.658   3.617  25.998  0.00  0.00    +0.000 A 
ENDBRANCH  19  22
BRANCH  16  20
ATOM      1  S   UNL     1       6.544   0.543  24.043  0.00  0.00    -0.092 S 
ATOM     20  C   UNL     1       6.141  -0.930  23.276  0.00  0.00    +0.074 A 
ATOM     23  C   UNL     1       7.152  -1.397  22.474  0.00  0.00    +0.021 A 
ATOM     24  C   UNL     1       8.284  -0.532  22.488  0.00  0.00    +0.008 A 
ATOM     27  C   UNL     1       8.086   0.563  23.301  0.00  0.00    +0.046 A 
ENDBRANCH  16  20
TORSDOF 2
ENDMDL
