MODEL 1
REMARK VINA RESULT:       7.9      0.000      0.000
REMARK  Name = 28961971
REMARK  13 active torsions:
REMARK  status: ('A' for Active; 'I' for Inactive)
REMARK    1  A    between atoms: O_2  and  C_12
REMARK    2  A    between atoms: O_3  and  C_19
REMARK    3  A    between atoms: O_4  and  C_22
REMARK    4  A    between atoms: O_4  and  C_30
REMARK    5  A    between atoms: N_6  and  C_10
REMARK    6  A    between atoms: N_7  and  C_20
REMARK    7  A    between atoms: N_8  and  C_16
REMARK    8  A    between atoms: N_9  and  C_33
REMARK    9  A    between atoms: N_9  and  C_34
REMARK   10  A    between atoms: N_9  and  C_35
REMARK   11  A    between atoms: C_11  and  C_16
REMARK   12  A    between atoms: C_13  and  C_19
REMARK   13  A    between atoms: C_21  and  C_25
REMARK                            x       y       z     vdW  Elec       q    Type
REMARK                         _______ _______ _______ _____ _____    ______ ____
ROOT
ATOM      1  O   UNL     1       4.325   1.143  23.242  0.00  0.00    -0.365 OA
ATOM     10  C   UNL     1       2.353   0.141  22.361  0.00  0.00    +0.118 C 
ATOM     11  C   UNL     1       2.900   1.356  23.120  0.00  0.00    +0.155 C 
ATOM     12  C   UNL     1       3.365  -0.948  22.681  0.00  0.00    +0.165 C 
ATOM     13  C   UNL     1       4.657  -0.140  22.676  0.00  0.00    +0.174 C 
ENDROOT
BRANCH  10   6
ATOM      6  N   UNL     1       0.966  -0.206  22.622  0.00  0.00    -0.292 NA
ATOM      7  N   UNL     1      -1.620   0.095  23.796  0.00  0.00    -0.325 N 
ATOM     14  C   UNL     1       0.763  -0.478  24.050  0.00  0.00    +0.104 C 
ATOM     15  C   UNL     1       0.075   0.877  22.188  0.00  0.00    +0.104 C 
ATOM     17  C   UNL     1      -0.681  -0.900  24.329  0.00  0.00    +0.120 C 
ATOM     18  C   UNL     1      -1.394   0.500  22.405  0.00  0.00    +0.120 C 
BRANCH   7  20
ATOM     20  C   UNL     1      -2.915   0.127  24.325  0.00  0.00    +0.072 A 
ATOM     22  C   UNL     1      -3.402  -0.942  25.077  0.00  0.00    +0.141 A 
ATOM     23  C   UNL     1      -3.720   1.244  24.098  0.00  0.00    +0.027 A 
ATOM     24  C   UNL     1      -4.694  -0.897  25.600  0.00  0.00    +0.047 A 
ATOM     26  C   UNL     1      -5.013   1.290  24.622  0.00  0.00    +0.002 A 
ATOM     27  C   UNL     1      -5.499   0.220  25.373  0.00  0.00    +0.004 A 
BRANCH  22   4
ATOM      4  O   UNL     1      -2.631  -2.042  25.310  0.00  0.00    -0.493 OA
ATOM     30  C   UNL     1      -3.158  -3.301  24.899  0.00  0.00    +0.277 C 
ENDBRANCH  22   4
ENDBRANCH   7  20
ENDBRANCH  10   6
BRANCH  12   2
ATOM      2  O   UNL     1       3.137  -1.509  23.968  0.00  0.00    -0.388 OA
ATOM     36  H   UNL     1       3.470  -2.423  23.954  0.00  0.00    +0.210 HD
ENDBRANCH  12   2
BRANCH  11  16
ATOM     16  C   UNL     1       2.357   1.589  24.525  0.00  0.00    +0.137 C 
BRANCH  16   8
ATOM      5  O   UNL     1       0.873   2.617  26.758  0.00  0.00    -0.270 OA
ATOM      8  N   UNL     1       1.061   2.196  24.484  0.00  0.00    -0.309 N 
ATOM     21  C   UNL     1       0.411   2.670  25.621  0.00  0.00    +0.244 C 
ATOM     37  H   UNL     1       0.592   2.206  23.585  0.00  0.00    +0.149 HD
BRANCH  21  25
ATOM     25  C   UNL     1      -0.941   3.248  25.413  0.00  0.00    +0.037 A 
ATOM     28  C   UNL     1      -1.852   3.288  26.469  0.00  0.00    +0.015 A 
ATOM     29  C   UNL     1      -1.300   3.751  24.163  0.00  0.00    +0.015 A 
ATOM     31  C   UNL     1      -3.123   3.832  26.274  0.00  0.00    +0.024 A 
ATOM     32  C   UNL     1      -2.571   4.294  23.968  0.00  0.00    +0.024 A 
ATOM     33  C   UNL     1      -3.481   4.334  25.023  0.00  0.00    +0.029 A 
BRANCH  33   9
ATOM      9  N   UNL     1      -4.765   4.883  24.825  0.00  0.00    -0.336 N 
ATOM     34  C   UNL     1      -4.998   5.841  23.762  0.00  0.00    +0.129 C 
ATOM     35  C   UNL     1      -5.870   4.492  25.677  0.00  0.00    +0.129 C 
ENDBRANCH  33   9
ENDBRANCH  21  25
ENDBRANCH  16   8
ENDBRANCH  11  16
BRANCH  13  19
ATOM     19  C   UNL     1       5.810  -0.746  23.455  0.00  0.00    +0.190 C 
BRANCH  19   3
ATOM      3  O   UNL     1       5.540  -0.624  24.842  0.00  0.00    -0.392 OA
ATOM     38  H   UNL     1       5.919   0.224  25.134  0.00  0.00    +0.210 HD
ENDBRANCH  19   3
ENDBRANCH  13  19
TORSDOF 10
ENDMDL
MODEL 2
REMARK VINA RESULT:       8.9      2.436      6.204
REMARK  Name = 28961971
REMARK  13 active torsions:
REMARK  status: ('A' for Active; 'I' for Inactive)
REMARK    1  A    between atoms: O_2  and  C_12
REMARK    2  A    between atoms: O_3  and  C_19
REMARK    3  A    between atoms: O_4  and  C_22
REMARK    4  A    between atoms: O_4  and  C_30
REMARK    5  A    between atoms: N_6  and  C_10
REMARK    6  A    between atoms: N_7  and  C_20
REMARK    7  A    between atoms: N_8  and  C_16
REMARK    8  A    between atoms: N_9  and  C_33
REMARK    9  A    between atoms: N_9  and  C_34
REMARK   10  A    between atoms: N_9  and  C_35
REMARK   11  A    between atoms: C_11  and  C_16
REMARK   12  A    between atoms: C_13  and  C_19
REMARK   13  A    between atoms: C_21  and  C_25
REMARK                            x       y       z     vdW  Elec       q    Type
REMARK                         _______ _______ _______ _____ _____    ______ ____
ROOT
ATOM      1  O   UNL     1      -2.926   5.684  26.146  0.00  0.00    -0.365 OA
ATOM     10  C   UNL     1      -4.204   4.239  24.751  0.00  0.00    +0.118 C 
ATOM     11  C   UNL     1      -3.750   4.497  26.192  0.00  0.00    +0.155 C 
ATOM     12  C   UNL     1      -3.105   4.887  23.923  0.00  0.00    +0.165 C 
ATOM     13  C   UNL     1      -2.798   6.112  24.776  0.00  0.00    +0.174 C 
ENDROOT
BRANCH  10   6
ATOM      6  N   UNL     1      -4.504   2.859  24.410  0.00  0.00    -0.292 NA
ATOM      7  N   UNL     1      -4.137   0.026  24.444  0.00  0.00    -0.325 N 
ATOM     14  C   UNL     1      -3.377   2.248  23.696  0.00  0.00    +0.104 C 
ATOM     15  C   UNL     1      -4.807   2.085  25.620  0.00  0.00    +0.104 C 
ATOM     17  C   UNL     1      -3.702   0.811  23.282  0.00  0.00    +0.120 C 
ATOM     18  C   UNL     1      -5.180   0.641  25.270  0.00  0.00    +0.120 C 
BRANCH   7  20
ATOM     20  C   UNL     1      -4.043  -1.368  24.367  0.00  0.00    +0.072 A 
ATOM     22  C   UNL     1      -3.443  -2.097  25.393  0.00  0.00    +0.141 A 
ATOM     23  C   UNL     1      -4.560  -2.028  23.251  0.00  0.00    +0.027 A 
ATOM     24  C   UNL     1      -3.358  -3.486  25.304  0.00  0.00    +0.047 A 
ATOM     26  C   UNL     1      -4.475  -3.418  23.163  0.00  0.00    +0.002 A 
ATOM     27  C   UNL     1      -3.874  -4.147  24.189  0.00  0.00    +0.004 A 
BRANCH  22   4
ATOM      4  O   UNL     1      -2.933  -1.471  26.491  0.00  0.00    -0.493 OA
ATOM     30  C   UNL     1      -1.522  -1.267  26.523  0.00  0.00    +0.277 C 
ENDBRANCH  22   4
ENDBRANCH   7  20
ENDBRANCH  10   6
BRANCH  12   2
ATOM      2  O   UNL     1      -1.960   4.049  23.829  0.00  0.00    -0.388 OA
ATOM     36  H   UNL     1      -2.168   3.336  23.202  0.00  0.00    +0.210 HD
ENDBRANCH  12   2
BRANCH  11  16
ATOM     16  C   UNL     1      -2.925   3.401  26.857  0.00  0.00    +0.137 C 
BRANCH  16   8
ATOM      5  O   UNL     1      -0.215   2.544  27.269  0.00  0.00    -0.270 OA
ATOM      8  N   UNL     1      -2.083   2.739  25.906  0.00  0.00    -0.309 N 
ATOM     21  C   UNL     1      -0.774   2.357  26.191  0.00  0.00    +0.244 C 
ATOM     37  H   UNL     1      -2.460   2.618  24.972  0.00  0.00    +0.149 HD
BRANCH  21  25
ATOM     25  C   UNL     1      -0.024   1.705  25.087  0.00  0.00    +0.037 A 
ATOM     28  C   UNL     1       1.027   2.378  24.465  0.00  0.00    +0.015 A 
ATOM     29  C   UNL     1      -0.370   0.419  24.673  0.00  0.00    +0.015 A 
ATOM     31  C   UNL     1       1.732   1.765  23.428  0.00  0.00    +0.024 A 
ATOM     32  C   UNL     1       0.334  -0.194  23.636  0.00  0.00    +0.024 A 
ATOM     33  C   UNL     1       1.384   0.479  23.014  0.00  0.00    +0.029 A 
BRANCH  33   9
ATOM      9  N   UNL     1       2.096  -0.141  21.967  0.00  0.00    -0.336 N 
ATOM     34  C   UNL     1       1.406  -0.980  21.006  0.00  0.00    +0.129 C 
ATOM     35  C   UNL     1       3.525   0.058  21.832  0.00  0.00    +0.129 C 
ENDBRANCH  33   9
ENDBRANCH  21  25
ENDBRANCH  16   8
ENDBRANCH  11  16
BRANCH  13  19
ATOM     19  C   UNL     1      -1.423   6.723  24.570  0.00  0.00    +0.190 C 
BRANCH  19   3
ATOM      3  O   UNL     1      -0.439   5.739  24.846  0.00  0.00    -0.392 OA
ATOM     38  H   UNL     1      -0.212   5.316  24.000  0.00  0.00    +0.210 HD
ENDBRANCH  19   3
ENDBRANCH  13  19
TORSDOF 10
ENDMDL
MODEL 3
REMARK VINA RESULT:      10.6      2.459      7.225
REMARK  Name = 28961971
REMARK  13 active torsions:
REMARK  status: ('A' for Active; 'I' for Inactive)
REMARK    1  A    between atoms: O_2  and  C_12
REMARK    2  A    between atoms: O_3  and  C_19
REMARK    3  A    between atoms: O_4  and  C_22
REMARK    4  A    between atoms: O_4  and  C_30
REMARK    5  A    between atoms: N_6  and  C_10
REMARK    6  A    between atoms: N_7  and  C_20
REMARK    7  A    between atoms: N_8  and  C_16
REMARK    8  A    between atoms: N_9  and  C_33
REMARK    9  A    between atoms: N_9  and  C_34
REMARK   10  A    between atoms: N_9  and  C_35
REMARK   11  A    between atoms: C_11  and  C_16
REMARK   12  A    between atoms: C_13  and  C_19
REMARK   13  A    between atoms: C_21  and  C_25
REMARK                            x       y       z     vdW  Elec       q    Type
REMARK                         _______ _______ _______ _____ _____    ______ ____
ROOT
ATOM      1  O   UNL     1      -4.939   4.937  24.999  0.00  0.00    -0.365 OA
ATOM     10  C   UNL     1      -2.666   4.722  25.674  0.00  0.00    +0.118 C 
ATOM     11  C   UNL     1      -3.590   5.035  24.490  0.00  0.00    +0.155 C 
ATOM     12  C   UNL     1      -3.537   3.850  26.566  0.00  0.00    +0.165 C 
ATOM     13  C   UNL     1      -4.892   4.521  26.377  0.00  0.00    +0.174 C 
ENDROOT
BRANCH  10   6
ATOM      6  N   UNL     1      -1.366   4.165  25.342  0.00  0.00    -0.292 NA
ATOM      7  N   UNL     1       0.450   2.326  24.126  0.00  0.00    -0.325 N 
ATOM     14  C   UNL     1      -1.249   2.793  25.850  0.00  0.00    +0.104 C 
ATOM     15  C   UNL     1      -1.155   4.180  23.889  0.00  0.00    +0.104 C 
ATOM     17  C   UNL     1       0.138   2.215  25.556  0.00  0.00    +0.120 C 
ATOM     18  C   UNL     1       0.235   3.649  23.530  0.00  0.00    +0.120 C 
BRANCH   7  20
ATOM     20  C   UNL     1       1.431   1.479  23.599  0.00  0.00    +0.072 A 
ATOM     22  C   UNL     1       1.173   0.120  23.416  0.00  0.00    +0.141 A 
ATOM     23  C   UNL     1       2.677   2.005  23.255  0.00  0.00    +0.027 A 
ATOM     24  C   UNL     1       2.160  -0.712  22.890  0.00  0.00    +0.047 A 
ATOM     26  C   UNL     1       3.664   1.172  22.728  0.00  0.00    +0.002 A 
ATOM     27  C   UNL     1       3.405  -0.187  22.545  0.00  0.00    +0.004 A 
BRANCH  22   4
ATOM      4  O   UNL     1      -0.037  -0.413  23.746  0.00  0.00    -0.493 OA
ATOM     30  C   UNL     1      -0.046  -1.431  24.743  0.00  0.00    +0.277 C 
ENDBRANCH  22   4
ENDBRANCH   7  20
ENDBRANCH  10   6
BRANCH  12   2
ATOM      2  O   UNL     1      -3.579   2.507  26.101  0.00  0.00    -0.388 OA
ATOM     36  H   UNL     1      -2.737   2.324  25.651  0.00  0.00    +0.210 HD
ENDBRANCH  12   2
BRANCH  11  16
ATOM     16  C   UNL     1      -3.495   4.109  23.283  0.00  0.00    +0.137 C 
BRANCH  16   8
ATOM      5  O   UNL     1      -2.532   1.850  21.795  0.00  0.00    -0.270 OA
ATOM      8  N   UNL     1      -3.556   2.735  23.679  0.00  0.00    -0.309 N 
ATOM     21  C   UNL     1      -3.063   1.697  22.893  0.00  0.00    +0.244 C 
ATOM     37  H   UNL     1      -4.047   2.533  24.544  0.00  0.00    +0.149 HD
BRANCH  21  25
ATOM     25  C   UNL     1      -3.227   0.324  23.434  0.00  0.00    +0.037 A 
ATOM     28  C   UNL     1      -3.614  -0.717  22.590  0.00  0.00    +0.015 A 
ATOM     29  C   UNL     1      -2.997   0.076  24.787  0.00  0.00    +0.015 A 
ATOM     31  C   UNL     1      -3.768  -2.007  23.099  0.00  0.00    +0.024 A 
ATOM     32  C   UNL     1      -3.152  -1.214  25.296  0.00  0.00    +0.024 A 
ATOM     33  C   UNL     1      -3.538  -2.255  24.453  0.00  0.00    +0.029 A 
BRANCH  33   9
ATOM      9  N   UNL     1      -3.694  -3.558  24.967  0.00  0.00    -0.336 N 
ATOM     34  C   UNL     1      -3.162  -3.901  26.272  0.00  0.00    +0.129 C 
ATOM     35  C   UNL     1      -4.396  -4.570  24.203  0.00  0.00    +0.129 C 
ENDBRANCH  33   9
ENDBRANCH  21  25
ENDBRANCH  16   8
ENDBRANCH  11  16
BRANCH  13  19
ATOM     19  C   UNL     1      -6.099   3.650  26.678  0.00  0.00    +0.190 C 
BRANCH  19   3
ATOM      3  O   UNL     1      -6.243   2.693  25.641  0.00  0.00    -0.392 OA
ATOM     38  H   UNL     1      -5.510   2.060  25.731  0.00  0.00    +0.210 HD
ENDBRANCH  19   3
ENDBRANCH  13  19
TORSDOF 10
ENDMDL
MODEL 4
REMARK VINA RESULT:      11.7      2.731      7.339
REMARK  Name = 28961971
REMARK  13 active torsions:
REMARK  status: ('A' for Active; 'I' for Inactive)
REMARK    1  A    between atoms: O_2  and  C_12
REMARK    2  A    between atoms: O_3  and  C_19
REMARK    3  A    between atoms: O_4  and  C_22
REMARK    4  A    between atoms: O_4  and  C_30
REMARK    5  A    between atoms: N_6  and  C_10
REMARK    6  A    between atoms: N_7  and  C_20
REMARK    7  A    between atoms: N_8  and  C_16
REMARK    8  A    between atoms: N_9  and  C_33
REMARK    9  A    between atoms: N_9  and  C_34
REMARK   10  A    between atoms: N_9  and  C_35
REMARK   11  A    between atoms: C_11  and  C_16
REMARK   12  A    between atoms: C_13  and  C_19
REMARK   13  A    between atoms: C_21  and  C_25
REMARK                            x       y       z     vdW  Elec       q    Type
REMARK                         _______ _______ _______ _____ _____    ______ ____
ROOT
ATOM      1  O   UNL     1      -4.517   5.180  25.053  0.00  0.00    -0.365 OA
ATOM     10  C   UNL     1      -4.514   3.087  26.186  0.00  0.00    +0.118 C 
ATOM     11  C   UNL     1      -3.724   3.984  25.225  0.00  0.00    +0.155 C 
ATOM     12  C   UNL     1      -5.951   3.537  25.973  0.00  0.00    +0.165 C 
ATOM     13  C   UNL     1      -5.751   5.035  25.782  0.00  0.00    +0.174 C 
ENDROOT
BRANCH  10   6
ATOM      6  N   UNL     1      -4.286   1.657  26.062  0.00  0.00    -0.292 NA
ATOM      7  N   UNL     1      -3.392  -0.739  24.792  0.00  0.00    -0.325 N 
ATOM     14  C   UNL     1      -5.005   1.121  24.900  0.00  0.00    +0.104 C 
ATOM     15  C   UNL     1      -2.851   1.374  25.937  0.00  0.00    +0.104 C 
ATOM     17  C   UNL     1      -4.819  -0.394  24.790  0.00  0.00    +0.120 C 
ATOM     18  C   UNL     1      -2.593  -0.134  25.862  0.00  0.00    +0.120 C 
BRANCH   7  20
ATOM     20  C   UNL     1      -3.015  -1.978  24.260  0.00  0.00    +0.072 A 
ATOM     22  C   UNL     1      -1.685  -2.397  24.308  0.00  0.00    +0.141 A 
ATOM     23  C   UNL     1      -3.984  -2.797  23.680  0.00  0.00    +0.027 A 
ATOM     24  C   UNL     1      -1.324  -3.634  23.776  0.00  0.00    +0.047 A 
ATOM     26  C   UNL     1      -3.623  -4.035  23.147  0.00  0.00    +0.002 A 
ATOM     27  C   UNL     1      -2.293  -4.454  23.196  0.00  0.00    +0.004 A 
BRANCH  22   4
ATOM      4  O   UNL     1      -0.724  -1.611  24.871  0.00  0.00    -0.493 OA
ATOM     30  C   UNL     1       0.416  -2.272  25.415  0.00  0.00    +0.277 C 
ENDBRANCH  22   4
ENDBRANCH   7  20
ENDBRANCH  10   6
BRANCH  12   2
ATOM      2  O   UNL     1      -6.509   2.958  24.799  0.00  0.00    -0.388 OA
ATOM     36  H   UNL     1      -6.887   2.097  25.046  0.00  0.00    +0.210 HD
ENDBRANCH  12   2
BRANCH  11  16
ATOM     16  C   UNL     1      -3.448   3.422  23.835  0.00  0.00    +0.137 C 
BRANCH  16   8
ATOM      5  O   UNL     1      -2.662   1.105  22.332  0.00  0.00    -0.270 OA
ATOM      8  N   UNL     1      -2.134   2.858  23.758  0.00  0.00    -0.309 N 
ATOM     21  C   UNL     1      -1.839   1.727  23.002  0.00  0.00    +0.244 C 
ATOM     37  H   UNL     1      -1.422   3.282  24.344  0.00  0.00    +0.149 HD
BRANCH  21  25
ATOM     25  C   UNL     1      -0.433   1.250  23.048  0.00  0.00    +0.037 A 
ATOM     28  C   UNL     1       0.493   1.890  23.872  0.00  0.00    +0.015 A 
ATOM     29  C   UNL     1      -0.039   0.164  22.268  0.00  0.00    +0.015 A 
ATOM     31  C   UNL     1       1.814   1.442  23.915  0.00  0.00    +0.024 A 
ATOM     32  C   UNL     1       1.283  -0.283  22.310  0.00  0.00    +0.024 A 
ATOM     33  C   UNL     1       2.208   0.356  23.134  0.00  0.00    +0.029 A 
BRANCH  33   9
ATOM      9  N   UNL     1       3.543  -0.096  23.177  0.00  0.00    -0.336 N 
ATOM     34  C   UNL     1       4.627   0.775  22.770  0.00  0.00    +0.129 C 
ATOM     35  C   UNL     1       3.849  -1.437  23.636  0.00  0.00    +0.129 C 
ENDBRANCH  33   9
ENDBRANCH  21  25
ENDBRANCH  16   8
ENDBRANCH  11  16
BRANCH  13  19
ATOM     19  C   UNL     1      -6.861   5.752  25.035  0.00  0.00    +0.190 C 
BRANCH  19   3
ATOM      3  O   UNL     1      -6.285   6.542  24.007  0.00  0.00    -0.392 OA
ATOM     38  H   UNL     1      -5.349   6.675  24.238  0.00  0.00    +0.210 HD
ENDBRANCH  19   3
ENDBRANCH  13  19
TORSDOF 10
ENDMDL
