MODEL 1
REMARK VINA RESULT:      -1.3      0.000      0.000
REMARK  Name = 51137093
REMARK  6 active torsions:
REMARK  status: ('A' for Active; 'I' for Inactive)
REMARK    1  A    between atoms: O_1  and  C_25
REMARK    2  A    between atoms: N_3  and  C_11
REMARK    3  A    between atoms: C_6  and  C_10
REMARK    4  A    between atoms: C_11  and  C_12
REMARK    5  A    between atoms: C_19  and  C_24
REMARK    6  A    between atoms: C_23  and  C_25
REMARK                            x       y       z     vdW  Elec       q    Type
REMARK                         _______ _______ _______ _____ _____    ______ ____
ROOT
ATOM      3  N   UNL     1      -3.113  -0.754  24.612  0.00  0.00    -0.297 NA
ATOM      6  C   UNL     1      -1.006  -1.377  23.793  0.00  0.00    +0.070 C 
ATOM      7  C   UNL     1      -1.249  -2.053  25.153  0.00  0.00    +0.028 C 
ATOM      8  C   UNL     1      -2.061  -0.266  23.716  0.00  0.00    +0.096 C 
ATOM      9  C   UNL     1      -2.401  -1.277  25.778  0.00  0.00    +0.085 C 
ENDROOT
BRANCH   6  10
ATOM      4  N   UNL     1       1.489  -1.610  23.948  0.00  0.00    -0.342 N 
ATOM      5  N   UNL     1       0.748   0.283  23.049  0.00  0.00    -0.232 NA
ATOM     10  C   UNL     1       0.401  -0.867  23.580  0.00  0.00    +0.113 A 
ATOM     13  C   UNL     1       2.613  -0.890  23.631  0.00  0.00    +0.066 A 
ATOM     14  C   UNL     1       2.124   0.286  23.071  0.00  0.00    +0.089 A 
ATOM     15  C   UNL     1       3.974  -1.160  23.783  0.00  0.00    +0.031 A 
ATOM     18  C   UNL     1       3.033   1.264  22.631  0.00  0.00    +0.030 A 
ATOM     19  C   UNL     1       4.863  -0.176  23.338  0.00  0.00    -0.048 A 
ATOM     20  C   UNL     1       4.404   1.015  22.773  0.00  0.00    +0.005 A 
ATOM     24  C   UNL     1       6.334  -0.407  23.472  0.00  0.00    +0.044 C 
ATOM     26  H   UNL     1       1.472  -2.526  24.376  0.00  0.00    +0.167 HD
ENDBRANCH   6  10
BRANCH   3  11
ATOM     11  C   UNL     1      -4.068   0.286  24.966  0.00  0.00    +0.119 C 
BRANCH  11  12
ATOM     12  C   UNL     1      -3.432   1.650  24.984  0.00  0.00    -0.033 A 
ATOM     16  C   UNL     1      -4.119   2.746  24.462  0.00  0.00    +0.006 A 
ATOM     17  C   UNL     1      -2.155   1.818  25.521  0.00  0.00    +0.006 A 
ATOM     21  C   UNL     1      -3.529   4.010  24.478  0.00  0.00    +0.015 A 
ATOM     22  C   UNL     1      -1.566   3.082  25.538  0.00  0.00    +0.015 A 
ATOM     23  C   UNL     1      -2.253   4.178  25.016  0.00  0.00    +0.059 A 
BRANCH  23  25
ATOM      2  O   UNL     1      -2.220   6.555  25.292  0.00  0.00    -0.245 OA
ATOM     25  C   UNL     1      -1.639   5.496  25.033  0.00  0.00    +0.337 C 
BRANCH  25   1
ATOM      1  O   UNL     1      -0.312   5.456  24.730  0.00  0.00    -0.477 OA
ATOM     27  H   UNL     1      -0.147   5.006  23.874  0.00  0.00    +0.295 HD
ENDBRANCH  25   1
ENDBRANCH  23  25
ENDBRANCH  11  12
ENDBRANCH   3  11
TORSDOF 5
ENDMDL
MODEL 2
REMARK VINA RESULT:      -0.5      1.572      1.968
REMARK  Name = 51137093
REMARK  6 active torsions:
REMARK  status: ('A' for Active; 'I' for Inactive)
REMARK    1  A    between atoms: O_1  and  C_25
REMARK    2  A    between atoms: N_3  and  C_11
REMARK    3  A    between atoms: C_6  and  C_10
REMARK    4  A    between atoms: C_11  and  C_12
REMARK    5  A    between atoms: C_19  and  C_24
REMARK    6  A    between atoms: C_23  and  C_25
REMARK                            x       y       z     vdW  Elec       q    Type
REMARK                         _______ _______ _______ _____ _____    ______ ____
ROOT
ATOM      3  N   UNL     1      -2.970  -1.644  24.513  0.00  0.00    -0.297 NA
ATOM      6  C   UNL     1      -0.639  -1.889  24.564  0.00  0.00    +0.070 C 
ATOM      7  C   UNL     1      -1.139  -1.439  25.947  0.00  0.00    +0.028 C 
ATOM      8  C   UNL     1      -1.813  -1.610  23.616  0.00  0.00    +0.096 C 
ATOM      9  C   UNL     1      -2.546  -0.908  25.704  0.00  0.00    +0.085 C 
ENDROOT
BRANCH   6  10
ATOM      4  N   UNL     1       1.863  -1.815  24.368  0.00  0.00    -0.342 N 
ATOM      5  N   UNL     1       0.771  -0.107  23.456  0.00  0.00    -0.232 NA
ATOM     10  C   UNL     1       0.649  -1.239  24.112  0.00  0.00    +0.113 A 
ATOM     13  C   UNL     1       2.832  -1.000  23.839  0.00  0.00    +0.066 A 
ATOM     14  C   UNL     1       2.125   0.058  23.276  0.00  0.00    +0.089 A 
ATOM     15  C   UNL     1       4.224  -1.096  23.808  0.00  0.00    +0.031 A 
ATOM     18  C   UNL     1       2.832   1.093  22.640  0.00  0.00    +0.030 A 
ATOM     19  C   UNL     1       4.911  -0.057  23.170  0.00  0.00    -0.048 A 
ATOM     20  C   UNL     1       4.230   1.018  22.597  0.00  0.00    +0.005 A 
ATOM     24  C   UNL     1       6.403  -0.103  23.103  0.00  0.00    +0.044 C 
ATOM     26  H   UNL     1       2.022  -2.686  24.857  0.00  0.00    +0.167 HD
ENDBRANCH   6  10
BRANCH   3  11
ATOM     11  C   UNL     1      -4.162  -1.073  23.904  0.00  0.00    +0.119 C 
BRANCH  11  12
ATOM     12  C   UNL     1      -4.399   0.344  24.355  0.00  0.00    -0.033 A 
ATOM     16  C   UNL     1      -5.400   0.620  25.287  0.00  0.00    +0.006 A 
ATOM     17  C   UNL     1      -3.619   1.379  23.840  0.00  0.00    +0.006 A 
ATOM     21  C   UNL     1      -5.620   1.933  25.704  0.00  0.00    +0.015 A 
ATOM     22  C   UNL     1      -3.838   2.692  24.258  0.00  0.00    +0.015 A 
ATOM     23  C   UNL     1      -4.839   2.969  25.191  0.00  0.00    +0.059 A 
BRANCH  23  25
ATOM      2  O   UNL     1      -6.162   4.909  25.645  0.00  0.00    -0.245 OA
ATOM     25  C   UNL     1      -5.068   4.337  25.626  0.00  0.00    +0.337 C 
BRANCH  25   1
ATOM      1  O   UNL     1      -3.922   4.954  26.027  0.00  0.00    -0.477 OA
ATOM     27  H   UNL     1      -3.708   4.754  26.963  0.00  0.00    +0.295 HD
ENDBRANCH  25   1
ENDBRANCH  23  25
ENDBRANCH  11  12
ENDBRANCH   3  11
TORSDOF 5
ENDMDL
MODEL 3
REMARK VINA RESULT:       0.6      2.936      5.651
REMARK  Name = 51137093
REMARK  6 active torsions:
REMARK  status: ('A' for Active; 'I' for Inactive)
REMARK    1  A    between atoms: O_1  and  C_25
REMARK    2  A    between atoms: N_3  and  C_11
REMARK    3  A    between atoms: C_6  and  C_10
REMARK    4  A    between atoms: C_11  and  C_12
REMARK    5  A    between atoms: C_19  and  C_24
REMARK    6  A    between atoms: C_23  and  C_25
REMARK                            x       y       z     vdW  Elec       q    Type
REMARK                         _______ _______ _______ _____ _____    ______ ____
ROOT
ATOM      3  N   UNL     1       0.241   3.407  25.071  0.00  0.00    -0.297 NA
ATOM      6  C   UNL     1       0.155   1.065  24.997  0.00  0.00    +0.070 C 
ATOM      7  C   UNL     1       0.851   1.594  23.732  0.00  0.00    +0.028 C 
ATOM      8  C   UNL     1      -0.550   2.290  25.595  0.00  0.00    +0.096 C 
ATOM      9  C   UNL     1       0.484   3.071  23.669  0.00  0.00    +0.085 C 
ENDROOT
BRANCH   6  10
ATOM      4  N   UNL     1      -2.065   0.101  24.331  0.00  0.00    -0.342 N 
ATOM      5  N   UNL     1      -0.516  -1.372  24.939  0.00  0.00    -0.232 NA
ATOM     10  C   UNL     1      -0.784  -0.098  24.765  0.00  0.00    +0.113 A 
ATOM     13  C   UNL     1      -2.663  -1.129  24.215  0.00  0.00    +0.066 A 
ATOM     14  C   UNL     1      -1.675  -2.031  24.601  0.00  0.00    +0.089 A 
ATOM     15  C   UNL     1      -3.944  -1.517  23.820  0.00  0.00    +0.031 A 
ATOM     18  C   UNL     1      -1.965  -3.406  24.597  0.00  0.00    +0.030 A 
ATOM     19  C   UNL     1      -4.213  -2.889  23.822  0.00  0.00    -0.048 A 
ATOM     20  C   UNL     1      -3.244  -3.818  24.204  0.00  0.00    +0.005 A 
ATOM     24  C   UNL     1      -5.567  -3.368  23.408  0.00  0.00    +0.044 C 
ATOM     26  H   UNL     1      -2.499   0.992  24.128  0.00  0.00    +0.167 HD
ENDBRANCH   6  10
BRANCH   3  11
ATOM     11  C   UNL     1      -0.435   4.686  25.226  0.00  0.00    +0.119 C 
BRANCH  11  12
ATOM     12  C   UNL     1      -1.928   4.524  25.331  0.00  0.00    -0.033 A 
ATOM     16  C   UNL     1      -2.527   4.379  26.582  0.00  0.00    +0.006 A 
ATOM     17  C   UNL     1      -2.711   4.517  24.176  0.00  0.00    +0.006 A 
ATOM     21  C   UNL     1      -3.910   4.228  26.678  0.00  0.00    +0.015 A 
ATOM     22  C   UNL     1      -4.095   4.367  24.273  0.00  0.00    +0.015 A 
ATOM     23  C   UNL     1      -4.694   4.222  25.525  0.00  0.00    +0.059 A 
BRANCH  23  25
ATOM      2  O   UNL     1      -6.738   2.987  25.681  0.00  0.00    -0.245 OA
ATOM     25  C   UNL     1      -6.137   4.065  25.625  0.00  0.00    +0.337 C 
BRANCH  25   1
ATOM      1  O   UNL     1      -6.790   5.259  25.656  0.00  0.00    -0.477 OA
ATOM     27  H   UNL     1      -6.167   6.015  25.714  0.00  0.00    +0.295 HD
ENDBRANCH  25   1
ENDBRANCH  23  25
ENDBRANCH  11  12
ENDBRANCH   3  11
TORSDOF 5
ENDMDL
MODEL 4
REMARK VINA RESULT:       1.2      3.078      7.988
REMARK  Name = 51137093
REMARK  6 active torsions:
REMARK  status: ('A' for Active; 'I' for Inactive)
REMARK    1  A    between atoms: O_1  and  C_25
REMARK    2  A    between atoms: N_3  and  C_11
REMARK    3  A    between atoms: C_6  and  C_10
REMARK    4  A    between atoms: C_11  and  C_12
REMARK    5  A    between atoms: C_19  and  C_24
REMARK    6  A    between atoms: C_23  and  C_25
REMARK                            x       y       z     vdW  Elec       q    Type
REMARK                         _______ _______ _______ _____ _____    ______ ____
ROOT
ATOM      3  N   UNL     1       0.319  -0.774  23.803  0.00  0.00    -0.297 NA
ATOM      6  C   UNL     1      -1.361  -0.003  25.247  0.00  0.00    +0.070 C 
ATOM      7  C   UNL     1      -1.588  -1.494  24.943  0.00  0.00    +0.028 C 
ATOM      8  C   UNL     1      -0.368   0.465  24.174  0.00  0.00    +0.096 C 
ATOM      9  C   UNL     1      -0.741  -1.778  23.710  0.00  0.00    +0.085 C 
ENDROOT
BRANCH   6  10
ATOM      4  N   UNL     1      -2.560   2.201  25.307  0.00  0.00    -0.342 N 
ATOM      5  N   UNL     1      -3.856   0.395  25.317  0.00  0.00    -0.232 NA
ATOM     10  C   UNL     1      -2.618   0.835  25.290  0.00  0.00    +0.113 A 
ATOM     13  C   UNL     1      -3.848   2.673  25.345  0.00  0.00    +0.066 A 
ATOM     14  C   UNL     1      -4.637   1.527  25.350  0.00  0.00    +0.089 A 
ATOM     15  C   UNL     1      -4.373   3.966  25.376  0.00  0.00    +0.031 A 
ATOM     18  C   UNL     1      -6.036   1.659  25.388  0.00  0.00    +0.030 A 
ATOM     19  C   UNL     1      -5.766   4.078  25.412  0.00  0.00    -0.048 A 
ATOM     20  C   UNL     1      -6.585   2.947  25.419  0.00  0.00    +0.005 A 
ATOM     24  C   UNL     1      -6.389   5.436  25.445  0.00  0.00    +0.044 C 
ATOM     26  H   UNL     1      -1.721   2.765  25.293  0.00  0.00    +0.167 HD
ENDBRANCH   6  10
BRANCH   3  11
ATOM     11  C   UNL     1       1.070  -0.644  22.564  0.00  0.00    +0.119 C 
BRANCH  11  12
ATOM     12  C   UNL     1       2.536  -0.413  22.818  0.00  0.00    -0.033 A 
ATOM     16  C   UNL     1       3.292  -1.386  23.472  0.00  0.00    +0.006 A 
ATOM     17  C   UNL     1       3.138   0.774  22.401  0.00  0.00    +0.006 A 
ATOM     21  C   UNL     1       4.650  -1.172  23.708  0.00  0.00    +0.015 A 
ATOM     22  C   UNL     1       4.496   0.988  22.636  0.00  0.00    +0.015 A 
ATOM     23  C   UNL     1       5.252   0.014  23.290  0.00  0.00    +0.059 A 
BRANCH  23  25
ATOM      2  O   UNL     1       7.136   1.033  24.355  0.00  0.00    -0.245 OA
ATOM     25  C   UNL     1       6.668   0.237  23.535  0.00  0.00    +0.337 C 
BRANCH  25   1
ATOM      1  O   UNL     1       7.462  -0.542  22.750  0.00  0.00    -0.477 OA
ATOM     27  H   UNL     1       7.251  -1.495  22.850  0.00  0.00    +0.295 HD
ENDBRANCH  25   1
ENDBRANCH  23  25
ENDBRANCH  11  12
ENDBRANCH   3  11
TORSDOF 5
ENDMDL
MODEL 5
REMARK VINA RESULT:       1.2      1.257      1.977
REMARK  Name = 51137093
REMARK  6 active torsions:
REMARK  status: ('A' for Active; 'I' for Inactive)
REMARK    1  A    between atoms: O_1  and  C_25
REMARK    2  A    between atoms: N_3  and  C_11
REMARK    3  A    between atoms: C_6  and  C_10
REMARK    4  A    between atoms: C_11  and  C_12
REMARK    5  A    between atoms: C_19  and  C_24
REMARK    6  A    between atoms: C_23  and  C_25
REMARK                            x       y       z     vdW  Elec       q    Type
REMARK                         _______ _______ _______ _____ _____    ______ ____
ROOT
ATOM      3  N   UNL     1      -4.543  -0.119  24.785  0.00  0.00    -0.297 NA
ATOM      6  C   UNL     1      -2.596  -1.277  24.179  0.00  0.00    +0.070 C 
ATOM      7  C   UNL     1      -3.016  -1.686  25.601  0.00  0.00    +0.028 C 
ATOM      8  C   UNL     1      -3.387   0.007  23.894  0.00  0.00    +0.096 C 
ATOM      9  C   UNL     1      -3.992  -0.607  26.049  0.00  0.00    +0.085 C 
ENDROOT
BRANCH   6  10
ATOM      4  N   UNL     1      -0.596  -0.003  23.353  0.00  0.00    -0.342 N 
ATOM      5  N   UNL     1      -0.163  -1.936  24.361  0.00  0.00    -0.232 NA
ATOM     10  C   UNL     1      -1.107  -1.105  23.982  0.00  0.00    +0.113 A 
ATOM     13  C   UNL     1       0.770  -0.131  23.327  0.00  0.00    +0.066 A 
ATOM     14  C   UNL     1       1.015  -1.345  23.962  0.00  0.00    +0.089 A 
ATOM     15  C   UNL     1       1.779   0.686  22.817  0.00  0.00    +0.031 A 
ATOM     18  C   UNL     1       2.341  -1.787  24.105  0.00  0.00    +0.030 A 
ATOM     19  C   UNL     1       3.093   0.230  22.969  0.00  0.00    -0.048 A 
ATOM     20  C   UNL     1       3.371  -0.983  23.600  0.00  0.00    +0.005 A 
ATOM     24  C   UNL     1       4.219   1.061  22.444  0.00  0.00    +0.044 C 
ATOM     26  H   UNL     1      -1.127   0.771  22.975  0.00  0.00    +0.167 HD
ENDBRANCH   6  10
BRANCH   3  11
ATOM     11  C   UNL     1      -5.264   1.135  24.941  0.00  0.00    +0.119 C 
BRANCH  11  12
ATOM     12  C   UNL     1      -4.333   2.319  24.962  0.00  0.00    -0.033 A 
ATOM     16  C   UNL     1      -4.181   3.066  26.130  0.00  0.00    +0.006 A 
ATOM     17  C   UNL     1      -3.623   2.668  23.813  0.00  0.00    +0.006 A 
ATOM     21  C   UNL     1      -3.320   4.162  26.149  0.00  0.00    +0.015 A 
ATOM     22  C   UNL     1      -2.761   3.764  23.832  0.00  0.00    +0.015 A 
ATOM     23  C   UNL     1      -2.609   4.511  25.001  0.00  0.00    +0.059 A 
BRANCH  23  25
ATOM      2  O   UNL     1      -2.048   6.828  25.202  0.00  0.00    -0.245 OA
ATOM     25  C   UNL     1      -1.710   5.654  25.020  0.00  0.00    +0.337 C 
BRANCH  25   1
ATOM      1  O   UNL     1      -0.412   5.299  24.814  0.00  0.00    -0.477 OA
ATOM     27  H   UNL     1       0.208   5.882  25.302  0.00  0.00    +0.295 HD
ENDBRANCH  25   1
ENDBRANCH  23  25
ENDBRANCH  11  12
ENDBRANCH   3  11
TORSDOF 5
ENDMDL
