MODEL 1
REMARK VINA RESULT:      -0.1      0.000      0.000
REMARK  Name = 45783722
REMARK  6 active torsions:
REMARK  status: ('A' for Active; 'I' for Inactive)
REMARK    1  A    between atoms: O_2  and  C_25
REMARK    2  A    between atoms: O_2  and  C_27
REMARK    3  A    between atoms: N_8  and  C_23
REMARK    4  A    between atoms: C_10  and  C_14
REMARK    5  A    between atoms: C_16  and  C_17
REMARK    6  A    between atoms: C_23  and  C_25
REMARK                            x       y       z     vdW  Elec       q    Type
REMARK                         _______ _______ _______ _____ _____    ______ ____
ROOT
ATOM      1  O   UNL     1      -0.785  -2.440  25.400  0.00  0.00    -0.336 OA
ATOM      4  N   UNL     1      -0.928  -0.436  24.409  0.00  0.00    -0.190 NA
ATOM      7  N   UNL     1       0.507  -2.132  24.956  0.00  0.00    -0.056 NA
ATOM     14  C   UNL     1      -1.568  -1.389  25.038  0.00  0.00    +0.248 A 
ATOM     16  C   UNL     1       0.341  -0.936  24.381  0.00  0.00    +0.205 A 
ENDROOT
BRANCH  14  10
ATOM      3  N   UNL     1      -3.905  -0.589  24.625  0.00  0.00    -0.288 N 
ATOM      5  N   UNL     1      -3.186   1.334  25.708  0.00  0.00    -0.223 NA
ATOM      6  N   UNL     1      -5.021   1.391  24.147  0.00  0.00    -0.223 NA
ATOM     10  C   UNL     1      -3.037  -1.479  25.412  0.00  0.00    +0.165 C 
ATOM     11  C   UNL     1      -3.615  -2.878  25.132  0.00  0.00    +0.034 C 
ATOM     12  C   UNL     1      -4.199  -2.761  23.735  0.00  0.00    +0.021 C 
ATOM     13  C   UNL     1      -4.763  -1.343  23.707  0.00  0.00    +0.109 C 
ATOM     15  C   UNL     1      -4.043   0.771  24.836  0.00  0.00    +0.218 A 
ATOM     18  C   UNL     1      -5.127   2.717  24.377  0.00  0.00    +0.116 A 
ATOM     19  C   UNL     1      -3.348   2.661  25.891  0.00  0.00    +0.116 A 
ATOM     21  C   UNL     1      -4.310   3.411  25.246  0.00  0.00    +0.039 A 
ENDBRANCH  14  10
BRANCH  16  17
ATOM      8  N   UNL     1       0.269   1.884  24.045  0.00  0.00    -0.326 N 
ATOM      9  N   UNL     1       2.407   1.863  23.029  0.00  0.00    -0.240 NA
ATOM     17  C   UNL     1       1.422  -0.216  23.773  0.00  0.00    +0.062 A 
ATOM     20  C   UNL     1       1.404   1.158  23.600  0.00  0.00    +0.130 A 
ATOM     22  C   UNL     1       2.542  -0.913  23.331  0.00  0.00    +0.016 A 
ATOM     24  C   UNL     1       3.594  -0.223  22.739  0.00  0.00    +0.020 A 
ATOM     26  C   UNL     1       3.478   1.152  22.613  0.00  0.00    +0.113 A 
ATOM     28  H   UNL     1      -0.595   1.358  24.128  0.00  0.00    +0.148 HD
BRANCH   8  23
ATOM     23  C   UNL     1       0.160   3.299  23.911  0.00  0.00    +0.131 C 
BRANCH  23  25
ATOM     25  C   UNL     1      -0.460   3.894  25.164  0.00  0.00    +0.178 C 
BRANCH  25   2
ATOM      2  O   UNL     1      -0.540   5.307  25.028  0.00  0.00    -0.381 OA
ATOM     27  C   UNL     1      -1.887   5.758  25.070  0.00  0.00    +0.194 C 
ENDBRANCH  25   2
ENDBRANCH  23  25
ENDBRANCH   8  23
ENDBRANCH  16  17
TORSDOF 5
ENDMDL
MODEL 2
REMARK VINA RESULT:       0.7      1.573      4.835
REMARK  Name = 45783722
REMARK  6 active torsions:
REMARK  status: ('A' for Active; 'I' for Inactive)
REMARK    1  A    between atoms: O_2  and  C_25
REMARK    2  A    between atoms: O_2  and  C_27
REMARK    3  A    between atoms: N_8  and  C_23
REMARK    4  A    between atoms: C_10  and  C_14
REMARK    5  A    between atoms: C_16  and  C_17
REMARK    6  A    between atoms: C_23  and  C_25
REMARK                            x       y       z     vdW  Elec       q    Type
REMARK                         _______ _______ _______ _____ _____    ______ ____
ROOT
ATOM      1  O   UNL     1      -0.619   3.311  25.671  0.00  0.00    -0.336 OA
ATOM      4  N   UNL     1      -0.618   2.578  23.554  0.00  0.00    -0.190 NA
ATOM      7  N   UNL     1       0.461   2.425  25.566  0.00  0.00    -0.056 NA
ATOM     14  C   UNL     1      -1.200   3.343  24.443  0.00  0.00    +0.248 A 
ATOM     16  C   UNL     1       0.395   2.035  24.289  0.00  0.00    +0.205 A 
ENDROOT
BRANCH  14  10
ATOM      3  N   UNL     1      -3.443   4.033  25.320  0.00  0.00    -0.288 N 
ATOM      5  N   UNL     1      -4.153   2.014  24.421  0.00  0.00    -0.223 NA
ATOM      6  N   UNL     1      -5.340   3.060  26.239  0.00  0.00    -0.223 NA
ATOM     10  C   UNL     1      -2.413   4.246  24.291  0.00  0.00    +0.165 C 
ATOM     11  C   UNL     1      -2.044   5.731  24.456  0.00  0.00    +0.034 C 
ATOM     12  C   UNL     1      -2.291   6.008  25.930  0.00  0.00    +0.021 C 
ATOM     13  C   UNL     1      -3.525   5.168  26.244  0.00  0.00    +0.109 C 
ATOM     15  C   UNL     1      -4.351   2.991  25.327  0.00  0.00    +0.218 A 
ATOM     18  C   UNL     1      -6.208   2.027  26.218  0.00  0.00    +0.116 A 
ATOM     19  C   UNL     1      -5.057   1.013  24.455  0.00  0.00    +0.116 A 
ATOM     21  C   UNL     1      -6.115   0.967  25.340  0.00  0.00    +0.039 A 
ENDBRANCH  14  10
BRANCH  16  17
ATOM      8  N   UNL     1      -0.175  -0.743  24.106  0.00  0.00    -0.326 N 
ATOM      9  N   UNL     1       1.922  -1.152  23.090  0.00  0.00    -0.240 NA
ATOM     17  C   UNL     1       1.325   1.104  23.718  0.00  0.00    +0.062 A 
ATOM     20  C   UNL     1       1.064  -0.253  23.622  0.00  0.00    +0.130 A 
ATOM     22  C   UNL     1       2.545   1.568  23.238  0.00  0.00    +0.016 A 
ATOM     24  C   UNL     1       3.454   0.673  22.684  0.00  0.00    +0.020 A 
ATOM     26  C   UNL     1       3.097  -0.665  22.634  0.00  0.00    +0.113 A 
ATOM     28  H   UNL     1      -0.641  -0.171  24.804  0.00  0.00    +0.148 HD
BRANCH   8  23
ATOM     23  C   UNL     1      -0.532  -2.121  24.049  0.00  0.00    +0.131 C 
BRANCH  23  25
ATOM     25  C   UNL     1      -1.775  -2.372  24.888  0.00  0.00    +0.178 C 
BRANCH  25   2
ATOM      2  O   UNL     1      -2.861  -1.621  24.361  0.00  0.00    -0.381 OA
ATOM     27  C   UNL     1      -3.965  -2.458  24.041  0.00  0.00    +0.194 C 
ENDBRANCH  25   2
ENDBRANCH  23  25
ENDBRANCH   8  23
ENDBRANCH  16  17
TORSDOF 5
ENDMDL
MODEL 3
REMARK VINA RESULT:       0.7      2.180      5.585
REMARK  Name = 45783722
REMARK  6 active torsions:
REMARK  status: ('A' for Active; 'I' for Inactive)
REMARK    1  A    between atoms: O_2  and  C_25
REMARK    2  A    between atoms: O_2  and  C_27
REMARK    3  A    between atoms: N_8  and  C_23
REMARK    4  A    between atoms: C_10  and  C_14
REMARK    5  A    between atoms: C_16  and  C_17
REMARK    6  A    between atoms: C_23  and  C_25
REMARK                            x       y       z     vdW  Elec       q    Type
REMARK                         _______ _______ _______ _____ _____    ______ ____
ROOT
ATOM      1  O   UNL     1      -5.815   1.343  24.838  0.00  0.00    -0.336 OA
ATOM      4  N   UNL     1      -3.719   0.758  25.366  0.00  0.00    -0.190 NA
ATOM      7  N   UNL     1      -5.622   0.063  24.304  0.00  0.00    -0.056 NA
ATOM     14  C   UNL     1      -4.647   1.677  25.446  0.00  0.00    +0.248 A 
ATOM     16  C   UNL     1      -4.362  -0.214  24.656  0.00  0.00    +0.205 A 
ENDROOT
BRANCH  14  10
ATOM      3  N   UNL     1      -3.832   4.044  25.358  0.00  0.00    -0.288 N 
ATOM      5  N   UNL     1      -1.775   3.107  25.883  0.00  0.00    -0.223 NA
ATOM      6  N   UNL     1      -1.929   5.221  24.736  0.00  0.00    -0.223 NA
ATOM     10  C   UNL     1      -4.597   3.041  26.115  0.00  0.00    +0.165 C 
ATOM     11  C   UNL     1      -5.996   3.672  26.232  0.00  0.00    +0.034 C 
ATOM     12  C   UNL     1      -6.118   4.528  24.982  0.00  0.00    +0.021 C 
ATOM     13  C   UNL     1      -4.706   5.076  24.792  0.00  0.00    +0.109 C 
ATOM     15  C   UNL     1      -2.453   4.128  25.325  0.00  0.00    +0.218 A 
ATOM     18  C   UNL     1      -0.581   5.270  24.721  0.00  0.00    +0.116 A 
ATOM     19  C   UNL     1      -0.431   3.220  25.834  0.00  0.00    +0.116 A 
ATOM     21  C   UNL     1       0.227   4.289  25.259  0.00  0.00    +0.039 A 
ENDBRANCH  14  10
BRANCH  16  17
ATOM      8  N   UNL     1      -1.534  -0.476  24.614  0.00  0.00    -0.326 N 
ATOM      9  N   UNL     1      -1.709  -2.747  23.970  0.00  0.00    -0.240 NA
ATOM     17  C   UNL     1      -3.720  -1.450  24.315  0.00  0.00    +0.062 A 
ATOM     20  C   UNL     1      -2.342  -1.595  24.289  0.00  0.00    +0.130 A 
ATOM     22  C   UNL     1      -4.498  -2.556  23.994  0.00  0.00    +0.016 A 
ATOM     24  C   UNL     1      -3.883  -3.758  23.661  0.00  0.00    +0.020 A 
ATOM     26  C   UNL     1      -2.498  -3.801  23.664  0.00  0.00    +0.113 A 
ATOM     28  H   UNL     1      -1.963   0.436  24.496  0.00  0.00    +0.148 HD
BRANCH   8  23
ATOM     23  C   UNL     1      -0.110  -0.531  24.614  0.00  0.00    +0.131 C 
BRANCH  23  25
ATOM     25  C   UNL     1       0.448   0.440  23.586  0.00  0.00    +0.178 C 
BRANCH  25   2
ATOM      2  O   UNL     1       1.109  -0.288  22.559  0.00  0.00    -0.381 OA
ATOM     27  C   UNL     1       2.470   0.104  22.437  0.00  0.00    +0.194 C 
ENDBRANCH  25   2
ENDBRANCH  23  25
ENDBRANCH   8  23
ENDBRANCH  16  17
TORSDOF 5
ENDMDL
MODEL 4
REMARK VINA RESULT:       1.5      1.850      6.710
REMARK  Name = 45783722
REMARK  6 active torsions:
REMARK  status: ('A' for Active; 'I' for Inactive)
REMARK    1  A    between atoms: O_2  and  C_25
REMARK    2  A    between atoms: O_2  and  C_27
REMARK    3  A    between atoms: N_8  and  C_23
REMARK    4  A    between atoms: C_10  and  C_14
REMARK    5  A    between atoms: C_16  and  C_17
REMARK    6  A    between atoms: C_23  and  C_25
REMARK                            x       y       z     vdW  Elec       q    Type
REMARK                         _______ _______ _______ _____ _____    ______ ____
ROOT
ATOM      1  O   UNL     1       0.884   1.809  23.854  0.00  0.00    -0.336 OA
ATOM      4  N   UNL     1      -1.273   1.274  24.136  0.00  0.00    -0.190 NA
ATOM      7  N   UNL     1       0.260   2.957  24.359  0.00  0.00    -0.056 NA
ATOM     14  C   UNL     1      -0.089   0.866  23.753  0.00  0.00    +0.248 A 
ATOM     16  C   UNL     1      -1.009   2.562  24.498  0.00  0.00    +0.205 A 
ENDROOT
BRANCH  14  10
ATOM      3  N   UNL     1       1.561  -1.016  23.851  0.00  0.00    -0.288 N 
ATOM      5  N   UNL     1       2.959   0.464  22.736  0.00  0.00    -0.223 NA
ATOM      6  N   UNL     1       3.851  -1.329  24.076  0.00  0.00    -0.223 NA
ATOM     10  C   UNL     1       0.337  -0.493  23.223  0.00  0.00    +0.165 C 
ATOM     11  C   UNL     1      -0.711  -1.579  23.524  0.00  0.00    +0.034 C 
ATOM     12  C   UNL     1      -0.244  -2.184  24.838  0.00  0.00    +0.021 C 
ATOM     13  C   UNL     1       1.276  -2.166  24.713  0.00  0.00    +0.109 C 
ATOM     15  C   UNL     1       2.845  -0.609  23.540  0.00  0.00    +0.218 A 
ATOM     18  C   UNL     1       5.090  -0.904  23.752  0.00  0.00    +0.116 A 
ATOM     19  C   UNL     1       4.225   0.834  22.453  0.00  0.00    +0.116 A 
ATOM     21  C   UNL     1       5.340   0.181  22.938  0.00  0.00    +0.039 A 
ENDBRANCH  14  10
BRANCH  16  17
ATOM      8  N   UNL     1      -3.675   1.664  24.896  0.00  0.00    -0.326 N 
ATOM      9  N   UNL     1      -4.330   3.806  25.662  0.00  0.00    -0.240 NA
ATOM     17  C   UNL     1      -2.037   3.430  24.996  0.00  0.00    +0.062 A 
ATOM     20  C   UNL     1      -3.341   3.010  25.195  0.00  0.00    +0.130 A 
ATOM     22  C   UNL     1      -1.726   4.753  25.295  0.00  0.00    +0.016 A 
ATOM     24  C   UNL     1      -2.717   5.601  25.777  0.00  0.00    +0.020 A 
ATOM     26  C   UNL     1      -3.991   5.083  25.942  0.00  0.00    +0.113 A 
ATOM     28  H   UNL     1      -3.071   1.190  24.232  0.00  0.00    +0.148 HD
BRANCH   8  23
ATOM     23  C   UNL     1      -4.990   1.141  25.069  0.00  0.00    +0.131 C 
BRANCH  23  25
ATOM     25  C   UNL     1      -5.084  -0.244  24.451  0.00  0.00    +0.178 C 
BRANCH  25   2
ATOM      2  O   UNL     1      -3.955  -1.015  24.845  0.00  0.00    -0.381 OA
ATOM     27  C   UNL     1      -3.980  -2.309  24.257  0.00  0.00    +0.194 C 
ENDBRANCH  25   2
ENDBRANCH  23  25
ENDBRANCH   8  23
ENDBRANCH  16  17
TORSDOF 5
ENDMDL
MODEL 5
REMARK VINA RESULT:       2.6      1.876      5.696
REMARK  Name = 45783722
REMARK  6 active torsions:
REMARK  status: ('A' for Active; 'I' for Inactive)
REMARK    1  A    between atoms: O_2  and  C_25
REMARK    2  A    between atoms: O_2  and  C_27
REMARK    3  A    between atoms: N_8  and  C_23
REMARK    4  A    between atoms: C_10  and  C_14
REMARK    5  A    between atoms: C_16  and  C_17
REMARK    6  A    between atoms: C_23  and  C_25
REMARK                            x       y       z     vdW  Elec       q    Type
REMARK                         _______ _______ _______ _____ _____    ______ ____
ROOT
ATOM      1  O   UNL     1      -4.536  -0.626  25.545  0.00  0.00    -0.336 OA
ATOM      4  N   UNL     1      -3.894   1.016  24.163  0.00  0.00    -0.190 NA
ATOM      7  N   UNL     1      -5.100   0.551  26.051  0.00  0.00    -0.056 NA
ATOM     14  C   UNL     1      -3.843  -0.264  24.433  0.00  0.00    +0.248 A 
ATOM     16  C   UNL     1      -4.676   1.475  25.182  0.00  0.00    +0.205 A 
ENDROOT
BRANCH  14  10
ATOM      3  N   UNL     1      -1.762  -1.633  24.169  0.00  0.00    -0.288 N 
ATOM      5  N   UNL     1      -0.894   0.299  23.218  0.00  0.00    -0.223 NA
ATOM      6  N   UNL     1       0.542  -1.350  24.231  0.00  0.00    -0.223 NA
ATOM     10  C   UNL     1      -3.129  -1.378  23.687  0.00  0.00    +0.165 C 
ATOM     11  C   UNL     1      -3.832  -2.734  23.875  0.00  0.00    +0.034 C 
ATOM     12  C   UNL     1      -3.113  -3.359  25.059  0.00  0.00    +0.021 C 
ATOM     13  C   UNL     1      -1.665  -2.920  24.864  0.00  0.00    +0.109 C 
ATOM     15  C   UNL     1      -0.657  -0.862  23.859  0.00  0.00    +0.218 A 
ATOM     18  C   UNL     1       1.598  -0.571  23.913  0.00  0.00    +0.116 A 
ATOM     19  C   UNL     1       0.205   1.027  22.931  0.00  0.00    +0.116 A 
ATOM     21  C   UNL     1       1.488   0.638  23.258  0.00  0.00    +0.039 A 
ENDBRANCH  14  10
BRANCH  16  17
ATOM      8  N   UNL     1      -2.715   3.524  25.016  0.00  0.00    -0.326 N 
ATOM      9  N   UNL     1      -4.363   5.191  25.342  0.00  0.00    -0.240 NA
ATOM     17  C   UNL     1      -5.015   2.863  25.306  0.00  0.00    +0.062 A 
ATOM     20  C   UNL     1      -4.072   3.875  25.228  0.00  0.00    +0.130 A 
ATOM     22  C   UNL     1      -6.342   3.224  25.514  0.00  0.00    +0.016 A 
ATOM     24  C   UNL     1      -6.680   4.568  25.635  0.00  0.00    +0.020 A 
ATOM     26  C   UNL     1      -5.663   5.503  25.543  0.00  0.00    +0.113 A 
ATOM     28  H   UNL     1      -2.447   2.583  25.288  0.00  0.00    +0.148 HD
BRANCH   8  23
ATOM     23  C   UNL     1      -1.675   4.495  24.922  0.00  0.00    +0.131 C 
BRANCH  23  25
ATOM     25  C   UNL     1      -0.327   3.839  25.170  0.00  0.00    +0.178 C 
BRANCH  25   2
ATOM      2  O   UNL     1      -0.521   2.589  25.819  0.00  0.00    -0.381 OA
ATOM     27  C   UNL     1       0.415   2.398  26.871  0.00  0.00    +0.194 C 
ENDBRANCH  25   2
ENDBRANCH  23  25
ENDBRANCH   8  23
ENDBRANCH  16  17
TORSDOF 5
ENDMDL
MODEL 6
REMARK VINA RESULT:       2.8      2.177      5.130
REMARK  Name = 45783722
REMARK  6 active torsions:
REMARK  status: ('A' for Active; 'I' for Inactive)
REMARK    1  A    between atoms: O_2  and  C_25
REMARK    2  A    between atoms: O_2  and  C_27
REMARK    3  A    between atoms: N_8  and  C_23
REMARK    4  A    between atoms: C_10  and  C_14
REMARK    5  A    between atoms: C_16  and  C_17
REMARK    6  A    between atoms: C_23  and  C_25
REMARK                            x       y       z     vdW  Elec       q    Type
REMARK                         _______ _______ _______ _____ _____    ______ ____
ROOT
ATOM      1  O   UNL     1      -0.387   3.402  23.820  0.00  0.00    -0.336 OA
ATOM      4  N   UNL     1      -1.745   1.750  24.488  0.00  0.00    -0.190 NA
ATOM      7  N   UNL     1       0.412   2.256  23.916  0.00  0.00    -0.056 NA
ATOM     14  C   UNL     1      -1.642   3.016  24.174  0.00  0.00    +0.248 A 
ATOM     16  C   UNL     1      -0.460   1.325  24.316  0.00  0.00    +0.205 A 
ENDROOT
BRANCH  14  10
ATOM      3  N   UNL     1      -3.648   4.025  25.284  0.00  0.00    -0.288 N 
ATOM      5  N   UNL     1      -4.747   2.148  24.473  0.00  0.00    -0.223 NA
ATOM      6  N   UNL     1      -5.562   3.337  26.404  0.00  0.00    -0.223 NA
ATOM     10  C   UNL     1      -2.713   4.093  24.149  0.00  0.00    +0.165 C 
ATOM     11  C   UNL     1      -2.110   5.504  24.269  0.00  0.00    +0.034 C 
ATOM     12  C   UNL     1      -2.154   5.796  25.760  0.00  0.00    +0.021 C 
ATOM     13  C   UNL     1      -3.460   5.147  26.207  0.00  0.00    +0.109 C 
ATOM     15  C   UNL     1      -4.698   3.131  25.391  0.00  0.00    +0.218 A 
ATOM     18  C   UNL     1      -6.574   2.446  26.479  0.00  0.00    +0.116 A 
ATOM     19  C   UNL     1      -5.783   1.294  24.607  0.00  0.00    +0.116 A 
ATOM     21  C   UNL     1      -6.735   1.395  25.600  0.00  0.00    +0.039 A 
ENDBRANCH  14  10
BRANCH  16  17
ATOM      8  N   UNL     1       1.902   0.209  23.198  0.00  0.00    -0.326 N 
ATOM      9  N   UNL     1       1.452  -1.879  24.217  0.00  0.00    -0.240 NA
ATOM     17  C   UNL     1      -0.079  -0.038  24.551  0.00  0.00    +0.062 A 
ATOM     20  C   UNL     1       1.068  -0.599  24.013  0.00  0.00    +0.130 A 
ATOM     22  C   UNL     1      -0.885  -0.843  25.348  0.00  0.00    +0.016 A 
ATOM     24  C   UNL     1      -0.523  -2.166  25.580  0.00  0.00    +0.020 A 
ATOM     26  C   UNL     1       0.644  -2.631  24.996  0.00  0.00    +0.113 A 
ATOM     28  H   UNL     1       1.458   1.010  22.759  0.00  0.00    +0.148 HD
BRANCH   8  23
ATOM     23  C   UNL     1       3.101  -0.279  22.602  0.00  0.00    +0.131 C 
BRANCH  23  25
ATOM     25  C   UNL     1       4.170   0.800  22.627  0.00  0.00    +0.178 C 
BRANCH  25   2
ATOM      2  O   UNL     1       5.241   0.387  23.467  0.00  0.00    -0.381 OA
ATOM     27  C   UNL     1       5.051  -0.941  23.935  0.00  0.00    +0.194 C 
ENDBRANCH  25   2
ENDBRANCH  23  25
ENDBRANCH   8  23
ENDBRANCH  16  17
TORSDOF 5
ENDMDL
MODEL 7
REMARK VINA RESULT:       3.6      2.019      5.630
REMARK  Name = 45783722
REMARK  6 active torsions:
REMARK  status: ('A' for Active; 'I' for Inactive)
REMARK    1  A    between atoms: O_2  and  C_25
REMARK    2  A    between atoms: O_2  and  C_27
REMARK    3  A    between atoms: N_8  and  C_23
REMARK    4  A    between atoms: C_10  and  C_14
REMARK    5  A    between atoms: C_16  and  C_17
REMARK    6  A    between atoms: C_23  and  C_25
REMARK                            x       y       z     vdW  Elec       q    Type
REMARK                         _______ _______ _______ _____ _____    ______ ____
ROOT
ATOM      1  O   UNL     1       1.267   2.206  23.897  0.00  0.00    -0.336 OA
ATOM      4  N   UNL     1      -0.821   1.689  24.521  0.00  0.00    -0.190 NA
ATOM      7  N   UNL     1       0.605   3.425  24.090  0.00  0.00    -0.056 NA
ATOM     14  C   UNL     1       0.356   1.236  24.172  0.00  0.00    +0.248 A 
ATOM     16  C   UNL     1      -0.620   3.037  24.456  0.00  0.00    +0.205 A 
ENDROOT
BRANCH  14  10
ATOM      3  N   UNL     1      -0.188  -1.117  23.505  0.00  0.00    -0.288 N 
ATOM      5  N   UNL     1      -1.419  -1.139  25.473  0.00  0.00    -0.223 NA
ATOM      6  N   UNL     1      -1.959  -2.613  23.644  0.00  0.00    -0.223 NA
ATOM     10  C   UNL     1       0.834  -0.200  24.035  0.00  0.00    +0.165 C 
ATOM     11  C   UNL     1       1.986  -0.326  23.023  0.00  0.00    +0.034 C 
ATOM     12  C   UNL     1       1.289  -0.661  21.714  0.00  0.00    +0.021 C 
ATOM     13  C   UNL     1       0.139  -1.565  22.149  0.00  0.00    +0.109 C 
ATOM     15  C   UNL     1      -1.234  -1.646  24.240  0.00  0.00    +0.218 A 
ATOM     18  C   UNL     1      -2.971  -3.106  24.389  0.00  0.00    +0.116 A 
ATOM     19  C   UNL     1      -2.447  -1.677  26.162  0.00  0.00    +0.116 A 
ATOM     21  C   UNL     1      -3.265  -2.672  25.665  0.00  0.00    +0.039 A 
ENDBRANCH  14  10
BRANCH  16  17
ATOM      8  N   UNL     1      -3.366   2.320  24.323  0.00  0.00    -0.326 N 
ATOM      9  N   UNL     1      -4.014   4.497  24.987  0.00  0.00    -0.240 NA
ATOM     17  C   UNL     1      -1.665   3.971  24.764  0.00  0.00    +0.062 A 
ATOM     20  C   UNL     1      -3.008   3.639  24.704  0.00  0.00    +0.130 A 
ATOM     22  C   UNL     1      -1.331   5.268  25.139  0.00  0.00    +0.016 A 
ATOM     24  C   UNL     1      -2.338   6.179  25.438  0.00  0.00    +0.020 A 
ATOM     26  C   UNL     1      -3.651   5.748  25.348  0.00  0.00    +0.113 A 
ATOM     28  H   UNL     1      -2.678   1.808  23.779  0.00  0.00    +0.148 HD
BRANCH   8  23
ATOM     23  C   UNL     1      -4.721   1.886  24.234  0.00  0.00    +0.131 C 
BRANCH  23  25
ATOM     25  C   UNL     1      -4.925   0.642  25.083  0.00  0.00    +0.178 C 
BRANCH  25   2
ATOM      2  O   UNL     1      -5.806   0.943  26.159  0.00  0.00    -0.381 OA
ATOM     27  C   UNL     1      -6.290   2.276  26.077  0.00  0.00    +0.194 C 
ENDBRANCH  25   2
ENDBRANCH  23  25
ENDBRANCH   8  23
ENDBRANCH  16  17
TORSDOF 5
ENDMDL
