MODEL 1
REMARK VINA RESULT:      -0.9      0.000      0.000
REMARK  Name = 26742649
REMARK  4 active torsions:
REMARK  status: ('A' for Active; 'I' for Inactive)
REMARK    1  A    between atoms: N_4  and  C_16
REMARK    2  A    between atoms: C_16  and  C_18
REMARK    3  A    between atoms: C_17  and  C_19
REMARK    4  A    between atoms: C_18  and  C_20
REMARK                            x       y       z     vdW  Elec       q    Type
REMARK                         _______ _______ _______ _____ _____    ______ ____
ROOT
ATOM      1  O   UNL     1      -2.990   5.134  24.026  0.00  0.00    -0.276 OA
ATOM      2  O   UNL     1      -0.444  -1.575  25.876  0.00  0.00    -0.270 OA
ATOM      3  N   UNL     1      -0.586   0.007  24.160  0.00  0.00    -0.297 N 
ATOM      4  N   UNL     1      -1.992   4.297  25.946  0.00  0.00    -0.301 N 
ATOM      7  C   UNL     1       0.269   2.220  24.882  0.00  0.00    +0.011 C 
ATOM      8  C   UNL     1      -0.429   2.845  23.649  0.00  0.00    +0.004 C 
ATOM      9  C   UNL     1      -1.639   2.008  23.191  0.00  0.00    +0.023 C 
ATOM     10  C   UNL     1       0.605   0.743  24.589  0.00  0.00    +0.112 C 
ATOM     11  C   UNL     1      -0.516   2.326  26.203  0.00  0.00    +0.024 C 
ATOM     12  C   UNL     1      -0.760   4.335  23.805  0.00  0.00    +0.100 C 
ATOM     13  C   UNL     1      -1.242   0.551  22.966  0.00  0.00    +0.108 C 
ATOM     14  C   UNL     1      -0.810   3.763  26.619  0.00  0.00    +0.108 C 
ATOM     15  C   UNL     1      -2.019   4.631  24.598  0.00  0.00    +0.216 C 
ATOM     17  C   UNL     1      -0.996  -1.120  24.875  0.00  0.00    +0.247 C 
ENDROOT
BRANCH  17  19
ATOM     19  C   UNL     1      -2.200  -1.827  24.420  0.00  0.00    +0.037 A 
ATOM     21  C   UNL     1      -2.130  -3.177  24.080  0.00  0.00    +0.013 A 
ATOM     22  C   UNL     1      -3.415  -1.146  24.329  0.00  0.00    +0.013 A 
ATOM     24  C   UNL     1      -3.275  -3.849  23.650  0.00  0.00    +0.001 A 
ATOM     25  C   UNL     1      -4.559  -1.818  23.898  0.00  0.00    +0.001 A 
ATOM     26  C   UNL     1      -4.489  -3.169  23.559  0.00  0.00    +0.000 A 
ENDBRANCH  17  19
BRANCH   4  16
ATOM     16  C   UNL     1      -3.188   4.461  26.762  0.00  0.00    +0.114 C 
BRANCH  16  18
ATOM     18  C   UNL     1      -4.457   4.586  25.923  0.00  0.00    +0.073 C 
BRANCH  18  20
ATOM      5  N   UNL     1      -6.018   2.699  26.537  0.00  0.00    -0.348 N 
ATOM      6  N   UNL     1      -5.850   1.275  24.841  0.00  0.00    -0.244 NA
ATOM     20  C   UNL     1      -5.126   3.258  25.666  0.00  0.00    +0.037 A 
ATOM     23  C   UNL     1      -5.038   2.361  24.627  0.00  0.00    +0.133 A 
ATOM     27  C   UNL     1      -6.426   1.509  25.999  0.00  0.00    +0.196 A 
ATOM     28  H   UNL     1      -6.321   3.088  27.419  0.00  0.00    +0.166 HD
ENDBRANCH  18  20
ENDBRANCH  16  18
ENDBRANCH   4  16
TORSDOF 4
ENDMDL
MODEL 2
REMARK VINA RESULT:       0.0      1.831      6.640
REMARK  Name = 26742649
REMARK  4 active torsions:
REMARK  status: ('A' for Active; 'I' for Inactive)
REMARK    1  A    between atoms: N_4  and  C_16
REMARK    2  A    between atoms: C_16  and  C_18
REMARK    3  A    between atoms: C_17  and  C_19
REMARK    4  A    between atoms: C_18  and  C_20
REMARK                            x       y       z     vdW  Elec       q    Type
REMARK                         _______ _______ _______ _____ _____    ______ ____
ROOT
ATOM      1  O   UNL     1      -1.775  -2.502  23.135  0.00  0.00    -0.276 OA
ATOM      2  O   UNL     1      -4.112   3.426  26.917  0.00  0.00    -0.270 OA
ATOM      3  N   UNL     1      -4.192   2.322  24.858  0.00  0.00    -0.297 N 
ATOM      4  N   UNL     1      -2.508  -2.209  25.316  0.00  0.00    -0.301 N 
ATOM      7  C   UNL     1      -4.916  -0.035  25.109  0.00  0.00    +0.011 C 
ATOM      8  C   UNL     1      -4.387  -0.307  23.679  0.00  0.00    +0.004 C 
ATOM      9  C   UNL     1      -3.261   0.670  23.290  0.00  0.00    +0.023 C 
ATOM     10  C   UNL     1      -5.304   1.451  25.241  0.00  0.00    +0.112 C 
ATOM     11  C   UNL     1      -3.955  -0.428  26.247  0.00  0.00    +0.024 C 
ATOM     12  C   UNL     1      -4.023  -1.773  23.413  0.00  0.00    +0.100 C 
ATOM     13  C   UNL     1      -3.700   2.119  23.490  0.00  0.00    +0.108 C 
ATOM     14  C   UNL     1      -3.592  -1.910  26.250  0.00  0.00    +0.108 C 
ATOM     15  C   UNL     1      -2.663  -2.199  23.935  0.00  0.00    +0.216 C 
ATOM     17  C   UNL     1      -3.699   3.256  25.771  0.00  0.00    +0.247 C 
ENDROOT
BRANCH  17  19
ATOM     19  C   UNL     1      -2.576   4.106  25.353  0.00  0.00    +0.037 A 
ATOM     21  C   UNL     1      -2.797   5.444  25.029  0.00  0.00    +0.013 A 
ATOM     22  C   UNL     1      -1.288   3.574  25.284  0.00  0.00    +0.013 A 
ATOM     24  C   UNL     1      -1.729   6.251  24.634  0.00  0.00    +0.001 A 
ATOM     25  C   UNL     1      -0.222   4.382  24.889  0.00  0.00    +0.001 A 
ATOM     26  C   UNL     1      -0.442   5.720  24.564  0.00  0.00    +0.000 A 
ENDBRANCH  17  19
BRANCH   4  16
ATOM     16  C   UNL     1      -1.209  -2.514  25.902  0.00  0.00    +0.114 C 
BRANCH  16  18
ATOM     18  C   UNL     1      -0.393  -1.260  26.204  0.00  0.00    +0.073 C 
BRANCH  18  20
ATOM      5  N   UNL     1       0.720  -1.022  23.950  0.00  0.00    -0.348 N 
ATOM      6  N   UNL     1       0.259   1.060  23.329  0.00  0.00    -0.244 NA
ATOM     20  C   UNL     1      -0.025  -0.485  24.962  0.00  0.00    +0.037 A 
ATOM     23  C   UNL     1      -0.298   0.800  24.556  0.00  0.00    +0.133 A 
ATOM     27  C   UNL     1       0.864  -0.057  22.991  0.00  0.00    +0.196 A 
ATOM     28  H   UNL     1       1.098  -1.958  23.913  0.00  0.00    +0.166 HD
ENDBRANCH  18  20
ENDBRANCH  16  18
ENDBRANCH   4  16
TORSDOF 4
ENDMDL
MODEL 3
REMARK VINA RESULT:       1.5      2.061      4.472
REMARK  Name = 26742649
REMARK  4 active torsions:
REMARK  status: ('A' for Active; 'I' for Inactive)
REMARK    1  A    between atoms: N_4  and  C_16
REMARK    2  A    between atoms: C_16  and  C_18
REMARK    3  A    between atoms: C_17  and  C_19
REMARK    4  A    between atoms: C_18  and  C_20
REMARK                            x       y       z     vdW  Elec       q    Type
REMARK                         _______ _______ _______ _____ _____    ______ ____
ROOT
ATOM      1  O   UNL     1      -6.067   2.345  23.669  0.00  0.00    -0.276 OA
ATOM      2  O   UNL     1       0.950   2.552  26.040  0.00  0.00    -0.270 OA
ATOM      3  N   UNL     1      -0.556   3.385  24.457  0.00  0.00    -0.297 N 
ATOM      4  N   UNL     1      -5.115   2.374  25.785  0.00  0.00    -0.301 N 
ATOM      7  C   UNL     1      -2.562   4.369  25.531  0.00  0.00    +0.011 C 
ATOM      8  C   UNL     1      -3.272   4.317  24.156  0.00  0.00    +0.004 C 
ATOM      9  C   UNL     1      -2.695   3.209  23.254  0.00  0.00    +0.023 C 
ATOM     10  C   UNL     1      -1.037   4.466  25.320  0.00  0.00    +0.112 C 
ATOM     11  C   UNL     1      -2.886   3.199  26.479  0.00  0.00    +0.024 C 
ATOM     12  C   UNL     1      -4.803   4.278  24.242  0.00  0.00    +0.100 C 
ATOM     13  C   UNL     1      -1.178   3.341  23.129  0.00  0.00    +0.108 C 
ATOM     14  C   UNL     1      -4.369   3.087  26.819  0.00  0.00    +0.108 C 
ATOM     15  C   UNL     1      -5.393   2.911  24.534  0.00  0.00    +0.216 C 
ATOM     17  C   UNL     1       0.428   2.513  24.927  0.00  0.00    +0.247 C 
ENDROOT
BRANCH  17  19
ATOM     19  C   UNL     1       0.880   1.437  24.036  0.00  0.00    +0.037 A 
ATOM     21  C   UNL     1       0.029   0.373  23.739  0.00  0.00    +0.013 A 
ATOM     22  C   UNL     1       2.161   1.481  23.483  0.00  0.00    +0.013 A 
ATOM     24  C   UNL     1       0.458  -0.649  22.891  0.00  0.00    +0.001 A 
ATOM     25  C   UNL     1       2.589   0.459  22.636  0.00  0.00    +0.001 A 
ATOM     26  C   UNL     1       1.738  -0.605  22.340  0.00  0.00    +0.000 A 
ENDBRANCH  17  19
BRANCH   4  16
ATOM     16  C   UNL     1      -5.562   1.027  26.116  0.00  0.00    +0.114 C 
BRANCH  16  18
ATOM     18  C   UNL     1      -5.401   0.053  24.951  0.00  0.00    +0.073 C 
BRANCH  18  20
ATOM      5  N   UNL     1      -3.897  -1.854  24.263  0.00  0.00    -0.348 N 
ATOM      6  N   UNL     1      -2.049  -1.552  25.457  0.00  0.00    -0.244 NA
ATOM     20  C   UNL     1      -4.115  -0.733  25.014  0.00  0.00    +0.037 A 
ATOM     23  C   UNL     1      -2.961  -0.567  25.742  0.00  0.00    +0.133 A 
ATOM     27  C   UNL     1      -2.643  -2.311  24.563  0.00  0.00    +0.196 A 
ATOM     28  H   UNL     1      -4.542  -2.274  23.608  0.00  0.00    +0.166 HD
ENDBRANCH  18  20
ENDBRANCH  16  18
ENDBRANCH   4  16
TORSDOF 4
ENDMDL
