MODEL 1
REMARK VINA RESULT:      -1.9      0.000      0.000
REMARK  Name = 75536243
REMARK  10 active torsions:
REMARK  status: ('A' for Active; 'I' for Inactive)
REMARK    1  A    between atoms: O_3  and  C_9
REMARK    2  A    between atoms: N_6  and  C_13
REMARK    3  A    between atoms: C_8  and  C_13
REMARK    4  A    between atoms: C_10  and  C_14
REMARK    5  A    between atoms: C_14  and  C_15
REMARK    6  A    between atoms: C_16  and  C_17
REMARK    7  A    between atoms: C_16  and  C_19
REMARK    8  A    between atoms: C_16  and  C_20
REMARK    9  A    between atoms: C_16  and  C_21
REMARK   10  A    between atoms: C_22  and  C_23
REMARK                            x       y       z     vdW  Elec       q    Type
REMARK                         _______ _______ _______ _____ _____    ______ ____
ROOT
ATOM      2  O   UNL     1      -3.379   0.002  23.496  0.00  0.00    -0.369 OA
ATOM      8  C   UNL     1      -4.310  -0.775  24.261  0.00  0.00    +0.164 C 
ATOM      9  C   UNL     1      -3.586  -1.726  25.222  0.00  0.00    +0.145 C 
ATOM     10  C   UNL     1      -2.436   0.752  24.264  0.00  0.00    +0.125 C 
ATOM     11  C   UNL     1      -2.515  -1.015  26.046  0.00  0.00    +0.036 C 
ATOM     12  C   UNL     1      -1.608  -0.174  25.153  0.00  0.00    +0.034 C 
ENDROOT
BRANCH   9   3
ATOM      3  O   UNL     1      -2.940  -2.749  24.458  0.00  0.00    -0.389 OA
ATOM     30  H   UNL     1      -3.442  -2.859  23.632  0.00  0.00    +0.210 HD
ENDBRANCH   9   3
BRANCH   8  13
ATOM     13  C   UNL     1      -5.328   0.122  24.964  0.00  0.00    +0.138 C 
BRANCH  13   6
ATOM      5  O   UNL     1      -6.150   2.223  26.705  0.00  0.00    -0.275 OA
ATOM      6  N   UNL     1      -4.950   1.500  24.868  0.00  0.00    -0.312 N 
ATOM     17  C   UNL     1      -5.396   2.470  25.763  0.00  0.00    +0.218 C 
ATOM     29  H   UNL     1      -4.299   1.757  24.134  0.00  0.00    +0.149 HD
BRANCH  17  16
ATOM     16  C   UNL     1      -4.868   3.893  25.484  0.00  0.00    +0.039 C 
ATOM     19  C   UNL     1      -4.311   3.960  24.050  0.00  0.00    +0.020 C 
ATOM     20  C   UNL     1      -3.738   4.238  26.465  0.00  0.00    +0.020 C 
ATOM     21  C   UNL     1      -6.009   4.913  25.613  0.00  0.00    +0.020 C 
ENDBRANCH  17  16
ENDBRANCH  13   6
ENDBRANCH   8  13
BRANCH  10  14
ATOM     14  C   UNL     1      -1.544   1.506  23.285  0.00  0.00    +0.090 C 
BRANCH  14  15
ATOM      4  O   UNL     1       1.218  -0.647  22.435  0.00  0.00    -0.354 OA
ATOM      7  N   UNL     1      -0.125  -0.297  22.395  0.00  0.00    -0.083 NA
ATOM     15  C   UNL     1      -0.211   0.827  23.110  0.00  0.00    +0.087 A 
ATOM     18  C   UNL     1       1.034   1.233  23.621  0.00  0.00    +0.076 A 
ATOM     22  C   UNL     1       1.899   0.271  23.168  0.00  0.00    +0.167 A 
BRANCH  22  23
ATOM      1  F   UNL     1       7.368  -0.613  23.680  0.00  0.00    -0.205 F 
ATOM     23  C   UNL     1       3.308   0.043  23.299  0.00  0.00    +0.020 A 
ATOM     24  C   UNL     1       3.776  -1.194  23.742  0.00  0.00    +0.014 A 
ATOM     25  C   UNL     1       4.211   1.058  22.984  0.00  0.00    +0.014 A 
ATOM     26  C   UNL     1       5.148  -1.415  23.872  0.00  0.00    +0.039 A 
ATOM     27  C   UNL     1       5.583   0.837  23.113  0.00  0.00    +0.039 A 
ATOM     28  C   UNL     1       6.051  -0.400  23.556  0.00  0.00    +0.123 A 
ENDBRANCH  22  23
ENDBRANCH  14  15
ENDBRANCH  10  14
TORSDOF 7
ENDMDL
MODEL 2
REMARK VINA RESULT:      -1.9      2.157      4.706
REMARK  Name = 75536243
REMARK  10 active torsions:
REMARK  status: ('A' for Active; 'I' for Inactive)
REMARK    1  A    between atoms: O_3  and  C_9
REMARK    2  A    between atoms: N_6  and  C_13
REMARK    3  A    between atoms: C_8  and  C_13
REMARK    4  A    between atoms: C_10  and  C_14
REMARK    5  A    between atoms: C_14  and  C_15
REMARK    6  A    between atoms: C_16  and  C_17
REMARK    7  A    between atoms: C_16  and  C_19
REMARK    8  A    between atoms: C_16  and  C_20
REMARK    9  A    between atoms: C_16  and  C_21
REMARK   10  A    between atoms: C_22  and  C_23
REMARK                            x       y       z     vdW  Elec       q    Type
REMARK                         _______ _______ _______ _____ _____    ______ ____
ROOT
ATOM      2  O   UNL     1      -3.912   2.202  25.967  0.00  0.00    -0.369 OA
ATOM      8  C   UNL     1      -5.058   1.415  25.617  0.00  0.00    +0.164 C 
ATOM      9  C   UNL     1      -6.360   2.194  25.847  0.00  0.00    +0.145 C 
ATOM     10  C   UNL     1      -3.816   3.466  25.306  0.00  0.00    +0.125 C 
ATOM     11  C   UNL     1      -6.323   3.585  25.220  0.00  0.00    +0.036 C 
ATOM     12  C   UNL     1      -5.044   4.324  25.605  0.00  0.00    +0.034 C 
ENDROOT
BRANCH   9   3
ATOM      3  O   UNL     1      -6.559   2.354  27.255  0.00  0.00    -0.389 OA
ATOM     30  H   UNL     1      -5.708   2.623  27.642  0.00  0.00    +0.210 HD
ENDBRANCH   9   3
BRANCH   8  13
ATOM     13  C   UNL     1      -4.935   0.864  24.198  0.00  0.00    +0.138 C 
BRANCH  13   6
ATOM      5  O   UNL     1      -2.317  -0.073  24.821  0.00  0.00    -0.275 OA
ATOM      6  N   UNL     1      -4.504  -0.501  24.212  0.00  0.00    -0.312 N 
ATOM     17  C   UNL     1      -3.201  -0.879  24.530  0.00  0.00    +0.218 C 
ATOM     29  H   UNL     1      -5.200  -1.213  24.018  0.00  0.00    +0.149 HD
BRANCH  17  16
ATOM     16  C   UNL     1      -2.946  -2.401  24.490  0.00  0.00    +0.039 C 
ATOM     19  C   UNL     1      -3.104  -2.982  25.908  0.00  0.00    +0.020 C 
ATOM     20  C   UNL     1      -1.518  -2.684  24.001  0.00  0.00    +0.020 C 
ATOM     21  C   UNL     1      -3.967  -3.082  23.567  0.00  0.00    +0.020 C 
ENDBRANCH  17  16
ENDBRANCH  13   6
ENDBRANCH   8  13
BRANCH  10  14
ATOM     14  C   UNL     1      -2.545   4.147  25.800  0.00  0.00    +0.090 C 
BRANCH  14  15
ATOM      4  O   UNL     1       0.541   2.286  25.812  0.00  0.00    -0.354 OA
ATOM      7  N   UNL     1      -0.455   3.019  26.445  0.00  0.00    -0.083 NA
ATOM     15  C   UNL     1      -1.318   3.338  25.476  0.00  0.00    +0.087 A 
ATOM     18  C   UNL     1      -0.924   2.837  24.224  0.00  0.00    +0.076 A 
ATOM     22  C   UNL     1       0.251   2.183  24.490  0.00  0.00    +0.167 A 
BRANCH  22  23
ATOM      1  F   UNL     1       3.910  -0.673  21.423  0.00  0.00    -0.205 F 
ATOM     23  C   UNL     1       1.194   1.447  23.701  0.00  0.00    +0.020 A 
ATOM     24  C   UNL     1       2.506   1.904  23.575  0.00  0.00    +0.014 A 
ATOM     25  C   UNL     1       0.800   0.274  23.057  0.00  0.00    +0.014 A 
ATOM     26  C   UNL     1       3.423   1.188  22.805  0.00  0.00    +0.039 A 
ATOM     27  C   UNL     1       1.717  -0.442  22.287  0.00  0.00    +0.039 A 
ATOM     28  C   UNL     1       3.029   0.014  22.162  0.00  0.00    +0.123 A 
ENDBRANCH  22  23
ENDBRANCH  14  15
ENDBRANCH  10  14
TORSDOF 7
ENDMDL
MODEL 3
REMARK VINA RESULT:      -1.8      2.002      3.174
REMARK  Name = 75536243
REMARK  10 active torsions:
REMARK  status: ('A' for Active; 'I' for Inactive)
REMARK    1  A    between atoms: O_3  and  C_9
REMARK    2  A    between atoms: N_6  and  C_13
REMARK    3  A    between atoms: C_8  and  C_13
REMARK    4  A    between atoms: C_10  and  C_14
REMARK    5  A    between atoms: C_14  and  C_15
REMARK    6  A    between atoms: C_16  and  C_17
REMARK    7  A    between atoms: C_16  and  C_19
REMARK    8  A    between atoms: C_16  and  C_20
REMARK    9  A    between atoms: C_16  and  C_21
REMARK   10  A    between atoms: C_22  and  C_23
REMARK                            x       y       z     vdW  Elec       q    Type
REMARK                         _______ _______ _______ _____ _____    ______ ____
ROOT
ATOM      2  O   UNL     1      -4.605   2.190  23.736  0.00  0.00    -0.369 OA
ATOM      8  C   UNL     1      -5.377   2.945  24.679  0.00  0.00    +0.164 C 
ATOM      9  C   UNL     1      -6.287   2.034  25.513  0.00  0.00    +0.145 C 
ATOM     10  C   UNL     1      -3.816   1.139  24.298  0.00  0.00    +0.125 C 
ATOM     11  C   UNL     1      -5.532   0.847  26.107  0.00  0.00    +0.036 C 
ATOM     12  C   UNL     1      -4.700   0.140  25.042  0.00  0.00    +0.034 C 
ENDROOT
BRANCH   9   3
ATOM      3  O   UNL     1      -7.319   1.516  24.668  0.00  0.00    -0.389 OA
ATOM     30  H   UNL     1      -6.947   1.424  23.774  0.00  0.00    +0.210 HD
ENDBRANCH   9   3
BRANCH   8  13
ATOM     13  C   UNL     1      -4.480   3.837  25.535  0.00  0.00    +0.138 C 
BRANCH  13   6
ATOM      5  O   UNL     1      -1.997   3.443  26.877  0.00  0.00    -0.275 OA
ATOM      6  N   UNL     1      -3.175   3.958  24.958  0.00  0.00    -0.312 N 
ATOM     17  C   UNL     1      -2.005   3.748  25.684  0.00  0.00    +0.218 C 
ATOM     29  H   UNL     1      -3.120   4.169  23.967  0.00  0.00    +0.149 HD
BRANCH  17  16
ATOM     16  C   UNL     1      -0.704   3.925  24.872  0.00  0.00    +0.039 C 
ATOM     19  C   UNL     1      -0.942   3.470  23.420  0.00  0.00    +0.020 C 
ATOM     20  C   UNL     1       0.417   3.066  25.477  0.00  0.00    +0.020 C 
ATOM     21  C   UNL     1      -0.288   5.403  24.859  0.00  0.00    +0.020 C 
ENDBRANCH  17  16
ENDBRANCH  13   6
ENDBRANCH   8  13
BRANCH  10  14
ATOM     14  C   UNL     1      -3.074   0.460  23.153  0.00  0.00    +0.090 C 
BRANCH  14  15
ATOM      4  O   UNL     1       0.045  -0.522  24.669  0.00  0.00    -0.354 OA
ATOM      7  N   UNL     1      -1.341  -0.424  24.661  0.00  0.00    -0.083 NA
ATOM     15  C   UNL     1      -1.637   0.182  23.508  0.00  0.00    +0.087 A 
ATOM     18  C   UNL     1      -0.491   0.485  22.753  0.00  0.00    +0.076 A 
ATOM     22  C   UNL     1       0.540   0.022  23.527  0.00  0.00    +0.167 A 
BRANCH  22  23
ATOM      1  F   UNL     1       6.078  -0.095  23.003  0.00  0.00    -0.205 F 
ATOM     23  C   UNL     1       1.967  -0.009  23.391  0.00  0.00    +0.020 A 
ATOM     24  C   UNL     1       2.675  -1.161  23.731  0.00  0.00    +0.014 A 
ATOM     25  C   UNL     1       2.647   1.114  22.920  0.00  0.00    +0.014 A 
ATOM     26  C   UNL     1       4.064  -1.190  23.600  0.00  0.00    +0.039 A 
ATOM     27  C   UNL     1       4.036   1.085  22.789  0.00  0.00    +0.039 A 
ATOM     28  C   UNL     1       4.744  -0.067  23.128  0.00  0.00    +0.123 A 
ENDBRANCH  22  23
ENDBRANCH  14  15
ENDBRANCH  10  14
TORSDOF 7
ENDMDL
MODEL 4
REMARK VINA RESULT:      -1.2      1.479      4.172
REMARK  Name = 75536243
REMARK  10 active torsions:
REMARK  status: ('A' for Active; 'I' for Inactive)
REMARK    1  A    between atoms: O_3  and  C_9
REMARK    2  A    between atoms: N_6  and  C_13
REMARK    3  A    between atoms: C_8  and  C_13
REMARK    4  A    between atoms: C_10  and  C_14
REMARK    5  A    between atoms: C_14  and  C_15
REMARK    6  A    between atoms: C_16  and  C_17
REMARK    7  A    between atoms: C_16  and  C_19
REMARK    8  A    between atoms: C_16  and  C_20
REMARK    9  A    between atoms: C_16  and  C_21
REMARK   10  A    between atoms: C_22  and  C_23
REMARK                            x       y       z     vdW  Elec       q    Type
REMARK                         _______ _______ _______ _____ _____    ______ ____
ROOT
ATOM      2  O   UNL     1      -3.979   2.460  26.008  0.00  0.00    -0.369 OA
ATOM      8  C   UNL     1      -5.352   2.282  25.638  0.00  0.00    +0.164 C 
ATOM      9  C   UNL     1      -5.930   3.556  25.007  0.00  0.00    +0.145 C 
ATOM     10  C   UNL     1      -3.113   2.885  24.953  0.00  0.00    +0.125 C 
ATOM     11  C   UNL     1      -5.036   4.114  23.903  0.00  0.00    +0.036 C 
ATOM     12  C   UNL     1      -3.588   4.217  24.373  0.00  0.00    +0.034 C 
ENDROOT
BRANCH   9   3
ATOM      3  O   UNL     1      -6.048   4.558  26.022  0.00  0.00    -0.389 OA
ATOM     30  H   UNL     1      -6.340   4.117  26.838  0.00  0.00    +0.210 HD
ENDBRANCH   9   3
BRANCH   8  13
ATOM     13  C   UNL     1      -5.528   1.047  24.756  0.00  0.00    +0.138 C 
BRANCH  13   6
ATOM      5  O   UNL     1      -3.743  -0.461  23.125  0.00  0.00    -0.275 OA
ATOM      6  N   UNL     1      -4.679  -0.020  25.190  0.00  0.00    -0.312 N 
ATOM     17  C   UNL     1      -3.830  -0.711  24.328  0.00  0.00    +0.218 C 
ATOM     29  H   UNL     1      -4.679  -0.245  26.180  0.00  0.00    +0.149 HD
BRANCH  17  16
ATOM     16  C   UNL     1      -2.997  -1.823  24.999  0.00  0.00    +0.039 C 
ATOM     19  C   UNL     1      -3.583  -3.197  24.626  0.00  0.00    +0.020 C 
ATOM     20  C   UNL     1      -3.045  -1.668  26.527  0.00  0.00    +0.020 C 
ATOM     21  C   UNL     1      -1.543  -1.761  24.507  0.00  0.00    +0.020 C 
ENDBRANCH  17  16
ENDBRANCH  13   6
ENDBRANCH   8  13
BRANCH  10  14
ATOM     14  C   UNL     1      -1.711   3.015  25.534  0.00  0.00    +0.090 C 
BRANCH  14  15
ATOM      4  O   UNL     1       0.055   0.907  23.205  0.00  0.00    -0.354 OA
ATOM      7  N   UNL     1      -1.105   1.489  23.701  0.00  0.00    -0.083 NA
ATOM     15  C   UNL     1      -0.704   2.227  24.740  0.00  0.00    +0.087 A 
ATOM     18  C   UNL     1       0.685   2.152  24.945  0.00  0.00    +0.076 A 
ATOM     22  C   UNL     1       1.114   1.309  23.953  0.00  0.00    +0.167 A 
BRANCH  22  23
ATOM      1  F   UNL     1       6.062  -0.716  22.413  0.00  0.00    -0.205 F 
ATOM     23  C   UNL     1       2.390   0.787  23.558  0.00  0.00    +0.020 A 
ATOM     24  C   UNL     1       3.352   1.637  23.012  0.00  0.00    +0.014 A 
ATOM     25  C   UNL     1       2.668  -0.570  23.717  0.00  0.00    +0.014 A 
ATOM     26  C   UNL     1       4.592   1.129  22.625  0.00  0.00    +0.039 A 
ATOM     27  C   UNL     1       3.909  -1.078  23.330  0.00  0.00    +0.039 A 
ATOM     28  C   UNL     1       4.871  -0.229  22.785  0.00  0.00    +0.123 A 
ENDBRANCH  22  23
ENDBRANCH  14  15
ENDBRANCH  10  14
TORSDOF 7
ENDMDL
MODEL 5
REMARK VINA RESULT:      -1.1      3.637      7.532
REMARK  Name = 75536243
REMARK  10 active torsions:
REMARK  status: ('A' for Active; 'I' for Inactive)
REMARK    1  A    between atoms: O_3  and  C_9
REMARK    2  A    between atoms: N_6  and  C_13
REMARK    3  A    between atoms: C_8  and  C_13
REMARK    4  A    between atoms: C_10  and  C_14
REMARK    5  A    between atoms: C_14  and  C_15
REMARK    6  A    between atoms: C_16  and  C_17
REMARK    7  A    between atoms: C_16  and  C_19
REMARK    8  A    between atoms: C_16  and  C_20
REMARK    9  A    between atoms: C_16  and  C_21
REMARK   10  A    between atoms: C_22  and  C_23
REMARK                            x       y       z     vdW  Elec       q    Type
REMARK                         _______ _______ _______ _____ _____    ______ ____
ROOT
ATOM      2  O   UNL     1       0.399   1.052  23.208  0.00  0.00    -0.369 OA
ATOM      8  C   UNL     1       0.549  -0.359  23.003  0.00  0.00    +0.164 C 
ATOM      9  C   UNL     1       1.839  -0.677  22.235  0.00  0.00    +0.145 C 
ATOM     10  C   UNL     1       1.496   1.692  23.863  0.00  0.00    +0.125 C 
ATOM     11  C   UNL     1       3.059   0.016  22.836  0.00  0.00    +0.036 C 
ATOM     12  C   UNL     1       2.785   1.500  23.066  0.00  0.00    +0.034 C 
ENDROOT
BRANCH   9   3
ATOM      3  O   UNL     1       1.696  -0.219  20.887  0.00  0.00    -0.389 OA
ATOM     30  H   UNL     1       0.919   0.365  20.856  0.00  0.00    +0.210 HD
ENDBRANCH   9   3
BRANCH   8  13
ATOM     13  C   UNL     1       0.438  -1.122  24.322  0.00  0.00    +0.138 C 
BRANCH  13   6
ATOM      5  O   UNL     1      -1.416  -3.123  23.496  0.00  0.00    -0.275 OA
ATOM      6  N   UNL     1      -0.928  -1.235  24.735  0.00  0.00    -0.312 N 
ATOM     17  C   UNL     1      -1.773  -2.247  24.285  0.00  0.00    +0.218 C 
ATOM     29  H   UNL     1      -1.269  -0.563  25.416  0.00  0.00    +0.149 HD
BRANCH  17  16
ATOM     16  C   UNL     1      -3.206  -2.190  24.856  0.00  0.00    +0.039 C 
ATOM     19  C   UNL     1      -3.618  -3.591  25.343  0.00  0.00    +0.020 C 
ATOM     20  C   UNL     1      -4.191  -1.742  23.765  0.00  0.00    +0.020 C 
ATOM     21  C   UNL     1      -3.260  -1.222  26.047  0.00  0.00    +0.020 C 
ENDBRANCH  17  16
ENDBRANCH  13   6
ENDBRANCH   8  13
BRANCH  10  14
ATOM     14  C   UNL     1       1.153   3.172  23.992  0.00  0.00    +0.090 C 
BRANCH  14  15
ATOM      4  O   UNL     1      -2.061   4.419  25.041  0.00  0.00    -0.354 OA
ATOM      7  N   UNL     1      -0.704   4.576  24.788  0.00  0.00    -0.083 NA
ATOM     15  C   UNL     1      -0.290   3.379  24.366  0.00  0.00    +0.087 A 
ATOM     18  C   UNL     1      -1.332   2.436  24.329  0.00  0.00    +0.076 A 
ATOM     22  C   UNL     1      -2.423   3.140  24.764  0.00  0.00    +0.167 A 
BRANCH  22  23
ATOM      1  F   UNL     1      -7.789   1.920  25.584  0.00  0.00    -0.205 F 
ATOM     23  C   UNL     1      -3.806   2.825  24.977  0.00  0.00    +0.020 A 
ATOM     24  C   UNL     1      -4.311   1.592  24.564  0.00  0.00    +0.014 A 
ATOM     25  C   UNL     1      -4.645   3.752  25.594  0.00  0.00    +0.014 A 
ATOM     26  C   UNL     1      -5.658   1.287  24.769  0.00  0.00    +0.039 A 
ATOM     27  C   UNL     1      -5.991   3.447  25.799  0.00  0.00    +0.039 A 
ATOM     28  C   UNL     1      -6.497   2.214  25.387  0.00  0.00    +0.123 A 
ENDBRANCH  22  23
ENDBRANCH  14  15
ENDBRANCH  10  14
TORSDOF 7
ENDMDL
MODEL 6
REMARK VINA RESULT:       1.9      3.581      4.818
REMARK  Name = 75536243
REMARK  10 active torsions:
REMARK  status: ('A' for Active; 'I' for Inactive)
REMARK    1  A    between atoms: O_3  and  C_9
REMARK    2  A    between atoms: N_6  and  C_13
REMARK    3  A    between atoms: C_8  and  C_13
REMARK    4  A    between atoms: C_10  and  C_14
REMARK    5  A    between atoms: C_14  and  C_15
REMARK    6  A    between atoms: C_16  and  C_17
REMARK    7  A    between atoms: C_16  and  C_19
REMARK    8  A    between atoms: C_16  and  C_20
REMARK    9  A    between atoms: C_16  and  C_21
REMARK   10  A    between atoms: C_22  and  C_23
REMARK                            x       y       z     vdW  Elec       q    Type
REMARK                         _______ _______ _______ _____ _____    ______ ____
ROOT
ATOM      2  O   UNL     1      -2.738  -1.054  23.839  0.00  0.00    -0.369 OA
ATOM      8  C   UNL     1      -4.145  -1.252  24.027  0.00  0.00    +0.164 C 
ATOM      9  C   UNL     1      -4.525  -2.731  23.885  0.00  0.00    +0.145 C 
ATOM     10  C   UNL     1      -1.894  -1.831  24.692  0.00  0.00    +0.125 C 
ATOM     11  C   UNL     1      -3.633  -3.643  24.723  0.00  0.00    +0.036 C 
ATOM     12  C   UNL     1      -2.158  -3.323  24.496  0.00  0.00    +0.034 C 
ENDROOT
BRANCH   9   3
ATOM      3  O   UNL     1      -4.377  -3.115  22.515  0.00  0.00    -0.389 OA
ATOM     30  H   UNL     1      -3.424  -3.159  22.324  0.00  0.00    +0.210 HD
ENDBRANCH   9   3
BRANCH   8  13
ATOM     13  C   UNL     1      -4.615  -0.639  25.346  0.00  0.00    +0.138 C 
BRANCH  13   6
ATOM      5  O   UNL     1      -6.603   1.365  24.954  0.00  0.00    -0.275 OA
ATOM      6  N   UNL     1      -4.405   0.776  25.358  0.00  0.00    -0.312 N 
ATOM     17  C   UNL     1      -5.434   1.695  25.158  0.00  0.00    +0.218 C 
ATOM     29  H   UNL     1      -3.468   1.110  25.560  0.00  0.00    +0.149 HD
BRANCH  17  16
ATOM     16  C   UNL     1      -4.995   3.174  25.213  0.00  0.00    +0.039 C 
ATOM     19  C   UNL     1      -6.234   4.067  25.412  0.00  0.00    +0.020 C 
ATOM     20  C   UNL     1      -4.311   3.571  23.897  0.00  0.00    +0.020 C 
ATOM     21  C   UNL     1      -4.039   3.395  26.394  0.00  0.00    +0.020 C 
ENDBRANCH  17  16
ENDBRANCH  13   6
ENDBRANCH   8  13
BRANCH  10  14
ATOM     14  C   UNL     1      -0.451  -1.485  24.348  0.00  0.00    +0.090 C 
BRANCH  14  15
ATOM      4  O   UNL     1       0.779   1.871  23.885  0.00  0.00    -0.354 OA
ATOM      7  N   UNL     1       0.910   0.490  23.798  0.00  0.00    -0.083 NA
ATOM     15  C   UNL     1      -0.234   0.004  24.287  0.00  0.00    +0.087 A 
ATOM     18  C   UNL     1      -1.116   1.019  24.693  0.00  0.00    +0.076 A 
ATOM     22  C   UNL     1      -0.431   2.174  24.420  0.00  0.00    +0.167 A 
BRANCH  22  23
ATOM      1  F   UNL     1      -1.519   7.598  25.013  0.00  0.00    -0.205 F 
ATOM     23  C   UNL     1      -0.713   3.571  24.572  0.00  0.00    +0.020 A 
ATOM     24  C   UNL     1      -0.142   4.497  23.698  0.00  0.00    +0.014 A 
ATOM     25  C   UNL     1      -1.556   4.006  25.594  0.00  0.00    +0.014 A 
ATOM     26  C   UNL     1      -0.414   5.857  23.847  0.00  0.00    +0.039 A 
ATOM     27  C   UNL     1      -1.828   5.366  25.743  0.00  0.00    +0.039 A 
ATOM     28  C   UNL     1      -1.258   6.291  24.870  0.00  0.00    +0.123 A 
ENDBRANCH  22  23
ENDBRANCH  14  15
ENDBRANCH  10  14
TORSDOF 7
ENDMDL
