MODEL 1
REMARK VINA RESULT:      -2.5      0.000      0.000
REMARK  Name = 71693878
REMARK  9 active torsions:
REMARK  status: ('A' for Active; 'I' for Inactive)
REMARK    1  A    between atoms: O_4  and  C_12
REMARK    2  A    between atoms: O_5  and  C_14
REMARK    3  A    between atoms: O_8  and  C_22
REMARK    4  A    between atoms: O_8  and  C_28
REMARK    5  A    between atoms: N_9  and  C_11
REMARK    6  A    between atoms: C_10  and  C_15
REMARK    7  A    between atoms: C_18  and  C_21
REMARK    8  A    between atoms: C_23  and  C_26
REMARK    9  A    between atoms: C_25  and  C_27
REMARK                            x       y       z     vdW  Elec       q    Type
REMARK                         _______ _______ _______ _____ _____    ______ ____
ROOT
ATOM     10  C   UNL     1      15.065  -7.905  31.455  0.00  0.00    +0.044 C 
ATOM     11  C   UNL     1      15.604  -8.950  30.451  0.00  0.00    +0.112 C 
ATOM     12  C   UNL     1      16.952  -9.353  31.046  0.00  0.00    +0.164 C 
ATOM     13  C   UNL     1      15.789  -8.196  32.796  0.00  0.00    +0.044 C 
ATOM     14  C   UNL     1      16.664  -9.421  32.541  0.00  0.00    +0.145 C 
ENDROOT
BRANCH  10  15
ATOM     15  C   UNL     1      13.554  -7.899  31.550  0.00  0.00    -0.042 A 
ATOM     16  C   UNL     1      12.871  -6.694  31.717  0.00  0.00    +0.007 A 
ATOM     17  C   UNL     1      12.845  -9.097  31.472  0.00  0.00    +0.007 A 
ATOM     19  C   UNL     1      11.479  -6.687  31.806  0.00  0.00    +0.046 A 
ATOM     20  C   UNL     1      11.453  -9.090  31.560  0.00  0.00    +0.046 A 
ATOM     22  C   UNL     1      10.769  -7.886  31.727  0.00  0.00    +0.120 A 
BRANCH  22   8
ATOM      8  O   UNL     1       9.411  -7.880  31.813  0.00  0.00    -0.495 OA
ATOM     28  C   UNL     1       8.790  -9.048  32.348  0.00  0.00    +0.277 C 
ENDBRANCH  22   8
ENDBRANCH  10  15
BRANCH  11   9
ATOM      6  O   UNL     1      16.393 -10.371  28.084  0.00  0.00    -0.270 OA
ATOM      9  N   UNL     1      15.742  -8.403  29.125  0.00  0.00    -0.305 N 
ATOM     18  C   UNL     1      16.131  -9.172  28.036  0.00  0.00    +0.248 C 
ATOM     29  H   UNL     1      15.499  -7.428  28.983  0.00  0.00    +0.149 HD
BRANCH  18  21
ATOM      7  O   UNL     1      15.947  -7.939  24.576  0.00  0.00    -0.455 OA
ATOM     21  C   UNL     1      16.253  -8.453  26.742  0.00  0.00    +0.087 A 
ATOM     23  C   UNL     1      15.622  -8.804  25.572  0.00  0.00    +0.220 A 
ATOM     24  C   UNL     1      17.017  -7.299  26.446  0.00  0.00    +0.058 A 
ATOM     25  C   UNL     1      16.797  -7.026  25.116  0.00  0.00    +0.103 A 
ATOM     27  C   UNL     1      17.285  -5.977  24.210  0.00  0.00    +0.086 C 
BRANCH  23  26
ATOM      1  F   UNL     1      13.517  -9.465  24.647  0.00  0.00    -0.163 F 
ATOM      2  F   UNL     1      14.310 -10.684  26.256  0.00  0.00    -0.163 F 
ATOM      3  F   UNL     1      15.223 -10.762  24.284  0.00  0.00    -0.163 F 
ATOM     26  C   UNL     1      14.699  -9.889  25.205  0.00  0.00    +0.451 C 
ENDBRANCH  23  26
ENDBRANCH  18  21
ENDBRANCH  11   9
BRANCH  12   4
ATOM      4  O   UNL     1      17.404 -10.600  30.555  0.00  0.00    -0.387 OA
ATOM     30  H   UNL     1      16.851 -10.831  29.791  0.00  0.00    +0.210 HD
ENDBRANCH  12   4
BRANCH  14   5
ATOM      5  O   UNL     1      15.918 -10.590  32.865  0.00  0.00    -0.389 OA
ATOM     31  H   UNL     1      15.382 -10.387  33.649  0.00  0.00    +0.210 HD
ENDBRANCH  14   5
TORSDOF 7
ENDMDL
MODEL 2
REMARK VINA RESULT:      -1.6     17.221     20.584
REMARK  Name = 71693878
REMARK  9 active torsions:
REMARK  status: ('A' for Active; 'I' for Inactive)
REMARK    1  A    between atoms: O_4  and  C_12
REMARK    2  A    between atoms: O_5  and  C_14
REMARK    3  A    between atoms: O_8  and  C_22
REMARK    4  A    between atoms: O_8  and  C_28
REMARK    5  A    between atoms: N_9  and  C_11
REMARK    6  A    between atoms: C_10  and  C_15
REMARK    7  A    between atoms: C_18  and  C_21
REMARK    8  A    between atoms: C_23  and  C_26
REMARK    9  A    between atoms: C_25  and  C_27
REMARK                            x       y       z     vdW  Elec       q    Type
REMARK                         _______ _______ _______ _____ _____    ______ ____
ROOT
ATOM     10  C   UNL     1      -1.337  -0.574  23.794  0.00  0.00    +0.044 C 
ATOM     11  C   UNL     1      -1.801  -0.407  25.259  0.00  0.00    +0.112 C 
ATOM     12  C   UNL     1      -2.733  -1.598  25.476  0.00  0.00    +0.164 C 
ATOM     13  C   UNL     1      -1.520  -2.078  23.463  0.00  0.00    +0.044 C 
ATOM     14  C   UNL     1      -2.019  -2.732  24.750  0.00  0.00    +0.145 C 
ENDROOT
BRANCH  10  15
ATOM     15  C   UNL     1       0.062  -0.047  23.551  0.00  0.00    -0.042 A 
ATOM     16  C   UNL     1       0.949  -0.769  22.753  0.00  0.00    +0.007 A 
ATOM     17  C   UNL     1       0.463   1.157  24.126  0.00  0.00    +0.007 A 
ATOM     19  C   UNL     1       2.238  -0.286  22.529  0.00  0.00    +0.046 A 
ATOM     20  C   UNL     1       1.752   1.642  23.902  0.00  0.00    +0.046 A 
ATOM     22  C   UNL     1       2.640   0.921  23.104  0.00  0.00    +0.120 A 
BRANCH  22   8
ATOM      8  O   UNL     1       3.897   1.393  22.886  0.00  0.00    -0.495 OA
ATOM     28  C   UNL     1       4.982   0.543  23.255  0.00  0.00    +0.277 C 
ENDBRANCH  22   8
ENDBRANCH  10  15
BRANCH  11   9
ATOM      6  O   UNL     1      -3.605   0.900  23.447  0.00  0.00    -0.270 OA
ATOM      9  N   UNL     1      -2.474   0.850  25.471  0.00  0.00    -0.305 N 
ATOM     18  C   UNL     1      -3.332   1.406  24.532  0.00  0.00    +0.248 C 
ATOM     29  H   UNL     1      -2.345   1.316  26.365  0.00  0.00    +0.149 HD
BRANCH  18  21
ATOM      7  O   UNL     1      -4.066   4.887  25.469  0.00  0.00    -0.455 OA
ATOM     21  C   UNL     1      -3.927   2.720  24.891  0.00  0.00    +0.087 A 
ATOM     23  C   UNL     1      -3.221   3.862  25.183  0.00  0.00    +0.220 A 
ATOM     24  C   UNL     1      -5.295   3.063  25.006  0.00  0.00    +0.058 A 
ATOM     25  C   UNL     1      -5.328   4.392  25.359  0.00  0.00    +0.103 A 
ATOM     27  C   UNL     1      -6.422   5.336  25.626  0.00  0.00    +0.086 C 
BRANCH  23  26
ATOM      1  F   UNL     1      -1.505   5.507  25.450  0.00  0.00    -0.163 F 
ATOM      2  F   UNL     1      -1.085   3.860  24.104  0.00  0.00    -0.163 F 
ATOM      3  F   UNL     1      -1.124   3.523  26.251  0.00  0.00    -0.163 F 
ATOM     26  C   UNL     1      -1.785   4.179  25.243  0.00  0.00    +0.451 C 
ENDBRANCH  23  26
ENDBRANCH  18  21
ENDBRANCH  11   9
BRANCH  12   4
ATOM      4  O   UNL     1      -2.909  -1.898  26.847  0.00  0.00    -0.387 OA
ATOM     30  H   UNL     1      -2.230  -1.411  27.343  0.00  0.00    +0.210 HD
ENDBRANCH  12   4
BRANCH  14   5
ATOM      5  O   UNL     1      -0.895  -3.188  25.496  0.00  0.00    -0.389 OA
ATOM     31  H   UNL     1      -0.265  -2.451  25.554  0.00  0.00    +0.210 HD
ENDBRANCH  14   5
TORSDOF 7
ENDMDL
MODEL 3
REMARK VINA RESULT:      -0.4     16.928     19.756
REMARK  Name = 71693878
REMARK  9 active torsions:
REMARK  status: ('A' for Active; 'I' for Inactive)
REMARK    1  A    between atoms: O_4  and  C_12
REMARK    2  A    between atoms: O_5  and  C_14
REMARK    3  A    between atoms: O_8  and  C_22
REMARK    4  A    between atoms: O_8  and  C_28
REMARK    5  A    between atoms: N_9  and  C_11
REMARK    6  A    between atoms: C_10  and  C_15
REMARK    7  A    between atoms: C_18  and  C_21
REMARK    8  A    between atoms: C_23  and  C_26
REMARK    9  A    between atoms: C_25  and  C_27
REMARK                            x       y       z     vdW  Elec       q    Type
REMARK                         _______ _______ _______ _____ _____    ______ ____
ROOT
ATOM     10  C   UNL     1      -2.920  -0.520  25.480  0.00  0.00    +0.044 C 
ATOM     11  C   UNL     1      -2.427  -1.033  24.107  0.00  0.00    +0.112 C 
ATOM     12  C   UNL     1      -2.247  -2.534  24.331  0.00  0.00    +0.164 C 
ATOM     13  C   UNL     1      -3.547  -1.749  26.188  0.00  0.00    +0.044 C 
ATOM     14  C   UNL     1      -3.452  -2.901  25.190  0.00  0.00    +0.145 C 
ENDROOT
BRANCH  10  15
ATOM     15  C   UNL     1      -3.843   0.675  25.369  0.00  0.00    -0.042 A 
ATOM     16  C   UNL     1      -3.313   1.965  25.347  0.00  0.00    +0.007 A 
ATOM     17  C   UNL     1      -5.222   0.486  25.291  0.00  0.00    +0.007 A 
ATOM     19  C   UNL     1      -4.163   3.067  25.247  0.00  0.00    +0.046 A 
ATOM     20  C   UNL     1      -6.072   1.587  25.188  0.00  0.00    +0.046 A 
ATOM     22  C   UNL     1      -5.543   2.878  25.167  0.00  0.00    +0.120 A 
BRANCH  22   8
ATOM      8  O   UNL     1      -6.373   3.952  25.068  0.00  0.00    -0.495 OA
ATOM     28  C   UNL     1      -5.930   5.169  25.667  0.00  0.00    +0.277 C 
ENDBRANCH  22   8
ENDBRANCH  10  15
BRANCH  11   9
ATOM      6  O   UNL     1       0.210  -1.631  25.075  0.00  0.00    -0.270 OA
ATOM      9  N   UNL     1      -1.197  -0.398  23.705  0.00  0.00    -0.305 N 
ATOM     18  C   UNL     1       0.037  -0.756  24.231  0.00  0.00    +0.248 C 
ATOM     29  H   UNL     1      -1.240   0.306  22.973  0.00  0.00    +0.149 HD
BRANCH  18  21
ATOM      7  O   UNL     1       2.512   1.764  23.203  0.00  0.00    -0.455 OA
ATOM     21  C   UNL     1       1.206   0.013  23.731  0.00  0.00    +0.087 A 
ATOM     23  C   UNL     1       1.318   1.383  23.728  0.00  0.00    +0.220 A 
ATOM     24  C   UNL     1       2.408  -0.482  23.171  0.00  0.00    +0.058 A 
ATOM     25  C   UNL     1       3.170   0.623  22.867  0.00  0.00    +0.103 A 
ATOM     27  C   UNL     1       4.504   0.792  22.274  0.00  0.00    +0.086 C 
BRANCH  23  26
ATOM      1  F   UNL     1      -0.872   2.345  23.752  0.00  0.00    -0.163 F 
ATOM      2  F   UNL     1       0.805   3.720  23.726  0.00  0.00    -0.163 F 
ATOM      3  F   UNL     1       0.352   2.596  25.531  0.00  0.00    -0.163 F 
ATOM     26  C   UNL     1       0.432   2.473  24.166  0.00  0.00    +0.451 C 
ENDBRANCH  23  26
ENDBRANCH  18  21
ENDBRANCH  11   9
BRANCH  12   4
ATOM      4  O   UNL     1      -2.244  -3.260  23.117  0.00  0.00    -0.387 OA
ATOM     30  H   UNL     1      -1.737  -2.744  22.469  0.00  0.00    +0.210 HD
ENDBRANCH  12   4
BRANCH  14   5
ATOM      5  O   UNL     1      -4.644  -2.931  24.412  0.00  0.00    -0.389 OA
ATOM     31  H   UNL     1      -4.383  -2.903  23.477  0.00  0.00    +0.210 HD
ENDBRANCH  14   5
TORSDOF 7
ENDMDL
