MODEL 1
REMARK VINA RESULT:      -2.3      0.000      0.000
REMARK  Name = 45784177
REMARK  5 active torsions:
REMARK  status: ('A' for Active; 'I' for Inactive)
REMARK    1  A    between atoms: O_3  and  C_19
REMARK    2  A    between atoms: O_3  and  C_24
REMARK    3  A    between atoms: N_4  and  C_10
REMARK    4  A    between atoms: C_6  and  C_11
REMARK    5  A    between atoms: C_10  and  C_12
REMARK                            x       y       z     vdW  Elec       q    Type
REMARK                         _______ _______ _______ _____ _____    ______ ____
ROOT
ATOM      4  N   UNL     1      -4.519  -0.658  24.712  0.00  0.00    -0.297 NA
ATOM      6  C   UNL     1      -2.328  -1.368  24.269  0.00  0.00    +0.090 C 
ATOM      7  C   UNL     1      -2.631  -1.536  25.768  0.00  0.00    +0.029 C 
ATOM      8  C   UNL     1      -3.436  -0.441  23.751  0.00  0.00    +0.097 C 
ATOM      9  C   UNL     1      -3.864  -0.678  26.019  0.00  0.00    +0.085 C 
ENDROOT
BRANCH   6  11
ATOM      1 CL   UNL     1       4.859   0.430  22.608  0.00  0.00    -0.083 Cl
ATOM      2  O   UNL     1      -0.782   0.491  23.977  0.00  0.00    -0.439 OA
ATOM      5  N   UNL     1       0.137  -1.557  23.662  0.00  0.00    -0.213 NA
ATOM     11  C   UNL     1      -0.940  -0.862  23.954  0.00  0.00    +0.201 A 
ATOM     13  C   UNL     1       1.095  -0.590  23.473  0.00  0.00    +0.111 A 
ATOM     14  C   UNL     1       0.536   0.665  23.665  0.00  0.00    +0.155 A 
ATOM     17  C   UNL     1       2.454  -0.684  23.139  0.00  0.00    +0.051 A 
ATOM     18  C   UNL     1       1.228   1.864  23.551  0.00  0.00    +0.050 A 
ATOM     22  C   UNL     1       3.186   0.506  23.016  0.00  0.00    +0.043 A 
ATOM     23  C   UNL     1       2.582   1.755  23.219  0.00  0.00    +0.024 A 
ENDBRANCH   6  11
BRANCH   4  10
ATOM     10  C   UNL     1      -5.552   0.365  24.625  0.00  0.00    +0.119 C 
BRANCH  10  12
ATOM     12  C   UNL     1      -5.010   1.736  24.929  0.00  0.00    -0.030 A 
ATOM     15  C   UNL     1      -3.685   2.045  24.622  0.00  0.00    +0.050 A 
ATOM     16  C   UNL     1      -5.831   2.696  25.518  0.00  0.00    +0.005 A 
ATOM     19  C   UNL     1      -3.182   3.315  24.904  0.00  0.00    +0.120 A 
ATOM     20  C   UNL     1      -5.329   3.966  25.801  0.00  0.00    +0.004 A 
ATOM     21  C   UNL     1      -4.004   4.276  25.493  0.00  0.00    +0.045 A 
BRANCH  19   3
ATOM      3  O   UNL     1      -1.889   3.617  24.604  0.00  0.00    -0.495 OA
ATOM     24  C   UNL     1      -1.373   4.845  25.118  0.00  0.00    +0.277 C 
ENDBRANCH  19   3
ENDBRANCH  10  12
ENDBRANCH   4  10
TORSDOF 4
ENDMDL
MODEL 2
REMARK VINA RESULT:      -2.1      1.875      3.944
REMARK  Name = 45784177
REMARK  5 active torsions:
REMARK  status: ('A' for Active; 'I' for Inactive)
REMARK    1  A    between atoms: O_3  and  C_19
REMARK    2  A    between atoms: O_3  and  C_24
REMARK    3  A    between atoms: N_4  and  C_10
REMARK    4  A    between atoms: C_6  and  C_11
REMARK    5  A    between atoms: C_10  and  C_12
REMARK                            x       y       z     vdW  Elec       q    Type
REMARK                         _______ _______ _______ _____ _____    ______ ____
ROOT
ATOM      4  N   UNL     1      -3.759   1.993  24.942  0.00  0.00    -0.297 NA
ATOM      6  C   UNL     1      -1.519   2.542  24.517  0.00  0.00    +0.090 C 
ATOM      7  C   UNL     1      -2.410   3.114  23.401  0.00  0.00    +0.029 C 
ATOM      8  C   UNL     1      -2.406   1.515  25.234  0.00  0.00    +0.097 C 
ATOM      9  C   UNL     1      -3.730   2.365  23.528  0.00  0.00    +0.085 C 
ENDROOT
BRANCH   6  11
ATOM      1 CL   UNL     1       5.428   0.158  22.588  0.00  0.00    -0.083 Cl
ATOM      2  O   UNL     1      -0.297   0.913  23.178  0.00  0.00    -0.439 OA
ATOM      5  N   UNL     1       1.014   2.333  24.362  0.00  0.00    -0.213 NA
ATOM     11  C   UNL     1      -0.207   1.960  24.045  0.00  0.00    +0.201 A 
ATOM     13  C   UNL     1       1.805   1.465  23.648  0.00  0.00    +0.111 A 
ATOM     14  C   UNL     1       1.005   0.594  22.923  0.00  0.00    +0.155 A 
ATOM     17  C   UNL     1       3.199   1.343  23.556  0.00  0.00    +0.051 A 
ATOM     18  C   UNL     1       1.483  -0.413  22.093  0.00  0.00    +0.050 A 
ATOM     22  C   UNL     1       3.719   0.338  22.727  0.00  0.00    +0.043 A 
ATOM     23  C   UNL     1       2.875  -0.522  22.011  0.00  0.00    +0.024 A 
ENDBRANCH   6  11
BRANCH   4  10
ATOM     10  C   UNL     1      -4.776   0.991  25.231  0.00  0.00    +0.119 C 
BRANCH  10  12
ATOM     12  C   UNL     1      -4.323  -0.393  24.850  0.00  0.00    -0.030 A 
ATOM     15  C   UNL     1      -3.100  -0.877  25.312  0.00  0.00    +0.050 A 
ATOM     16  C   UNL     1      -5.126  -1.190  24.036  0.00  0.00    +0.005 A 
ATOM     19  C   UNL     1      -2.680  -2.160  24.959  0.00  0.00    +0.120 A 
ATOM     20  C   UNL     1      -4.707  -2.473  23.682  0.00  0.00    +0.004 A 
ATOM     21  C   UNL     1      -3.483  -2.958  24.144  0.00  0.00    +0.045 A 
BRANCH  19   3
ATOM      3  O   UNL     1      -1.485  -2.633  25.410  0.00  0.00    -0.495 OA
ATOM     24  C   UNL     1      -0.381  -1.728  25.392  0.00  0.00    +0.277 C 
ENDBRANCH  19   3
ENDBRANCH  10  12
ENDBRANCH   4  10
TORSDOF 4
ENDMDL
MODEL 3
REMARK VINA RESULT:      -0.5      3.069      6.268
REMARK  Name = 45784177
REMARK  5 active torsions:
REMARK  status: ('A' for Active; 'I' for Inactive)
REMARK    1  A    between atoms: O_3  and  C_19
REMARK    2  A    between atoms: O_3  and  C_24
REMARK    3  A    between atoms: N_4  and  C_10
REMARK    4  A    between atoms: C_6  and  C_11
REMARK    5  A    between atoms: C_10  and  C_12
REMARK                            x       y       z     vdW  Elec       q    Type
REMARK                         _______ _______ _______ _____ _____    ______ ____
ROOT
ATOM      4  N   UNL     1      -1.812  -2.333  24.995  0.00  0.00    -0.297 NA
ATOM      6  C   UNL     1      -3.672  -0.990  25.481  0.00  0.00    +0.090 C 
ATOM      7  C   UNL     1      -3.957  -1.828  24.223  0.00  0.00    +0.029 C 
ATOM      8  C   UNL     1      -2.151  -1.079  25.671  0.00  0.00    +0.097 C 
ATOM      9  C   UNL     1      -2.592  -2.317  23.758  0.00  0.00    +0.085 C 
ENDROOT
BRANCH   6  11
ATOM      1 CL   UNL     1      -6.876   5.894  25.483  0.00  0.00    -0.083 Cl
ATOM      2  O   UNL     1      -3.299   1.355  24.936  0.00  0.00    -0.439 OA
ATOM      5  N   UNL     1      -5.352   0.899  25.782  0.00  0.00    -0.213 NA
ATOM     11  C   UNL     1      -4.176   0.433  25.424  0.00  0.00    +0.201 A 
ATOM     13  C   UNL     1      -5.255   2.243  25.512  0.00  0.00    +0.111 A 
ATOM     14  C   UNL     1      -3.999   2.525  24.994  0.00  0.00    +0.155 A 
ATOM     17  C   UNL     1      -6.173   3.291  25.674  0.00  0.00    +0.051 A 
ATOM     18  C   UNL     1      -3.567   3.790  24.613  0.00  0.00    +0.050 A 
ATOM     22  C   UNL     1      -5.773   4.582  25.300  0.00  0.00    +0.043 A 
ATOM     23  C   UNL     1      -4.495   4.824  24.780  0.00  0.00    +0.024 A 
ENDBRANCH   6  11
BRANCH   4  10
ATOM     10  C   UNL     1      -0.383  -2.461  24.748  0.00  0.00    +0.119 C 
BRANCH  10  12
ATOM     12  C   UNL     1       0.217  -1.173  24.249  0.00  0.00    -0.030 A 
ATOM     15  C   UNL     1      -0.217   0.045  24.771  0.00  0.00    +0.050 A 
ATOM     16  C   UNL     1       1.206  -1.199  23.266  0.00  0.00    +0.005 A 
ATOM     19  C   UNL     1       0.339   1.238  24.309  0.00  0.00    +0.120 A 
ATOM     20  C   UNL     1       1.762  -0.006  22.804  0.00  0.00    +0.004 A 
ATOM     21  C   UNL     1       1.328   1.213  23.326  0.00  0.00    +0.045 A 
BRANCH  19   3
ATOM      3  O   UNL     1      -0.085   2.427  24.818  0.00  0.00    -0.495 OA
ATOM     24  C   UNL     1      -0.201   2.522  26.238  0.00  0.00    +0.277 C 
ENDBRANCH  19   3
ENDBRANCH  10  12
ENDBRANCH   4  10
TORSDOF 4
ENDMDL
MODEL 4
REMARK VINA RESULT:      -0.2      2.779      4.932
REMARK  Name = 45784177
REMARK  5 active torsions:
REMARK  status: ('A' for Active; 'I' for Inactive)
REMARK    1  A    between atoms: O_3  and  C_19
REMARK    2  A    between atoms: O_3  and  C_24
REMARK    3  A    between atoms: N_4  and  C_10
REMARK    4  A    between atoms: C_6  and  C_11
REMARK    5  A    between atoms: C_10  and  C_12
REMARK                            x       y       z     vdW  Elec       q    Type
REMARK                         _______ _______ _______ _____ _____    ______ ____
ROOT
ATOM      4  N   UNL     1      -4.996   3.974  25.681  0.00  0.00    -0.297 NA
ATOM      6  C   UNL     1      -5.345   1.839  24.778  0.00  0.00    +0.090 C 
ATOM      7  C   UNL     1      -6.070   1.950  26.130  0.00  0.00    +0.029 C 
ATOM      8  C   UNL     1      -4.369   3.023  24.761  0.00  0.00    +0.097 C 
ATOM      9  C   UNL     1      -5.449   3.163  26.811  0.00  0.00    +0.085 C 
ENDROOT
BRANCH   6  11
ATOM      1 CL   UNL     1      -2.603  -5.066  23.211  0.00  0.00    -0.083 Cl
ATOM      2  O   UNL     1      -3.373   0.418  24.950  0.00  0.00    -0.439 OA
ATOM      5  N   UNL     1      -5.159  -0.565  23.960  0.00  0.00    -0.213 NA
ATOM     11  C   UNL     1      -4.666   0.512  24.529  0.00  0.00    +0.201 A 
ATOM     13  C   UNL     1      -4.112  -1.454  24.003  0.00  0.00    +0.111 A 
ATOM     14  C   UNL     1      -3.017  -0.855  24.608  0.00  0.00    +0.155 A 
ATOM     17  C   UNL     1      -4.000  -2.779  23.556  0.00  0.00    +0.051 A 
ATOM     18  C   UNL     1      -1.790  -1.474  24.813  0.00  0.00    +0.050 A 
ATOM     22  C   UNL     1      -2.777  -3.437  23.747  0.00  0.00    +0.043 A 
ATOM     23  C   UNL     1      -1.694  -2.795  24.363  0.00  0.00    +0.024 A 
ENDBRANCH   6  11
BRANCH   4  10
ATOM     10  C   UNL     1      -4.085   5.034  26.091  0.00  0.00    +0.119 C 
BRANCH  10  12
ATOM     12  C   UNL     1      -2.668   4.749  25.667  0.00  0.00    -0.030 A 
ATOM     15  C   UNL     1      -2.108   3.496  25.909  0.00  0.00    +0.050 A 
ATOM     16  C   UNL     1      -1.917   5.739  25.033  0.00  0.00    +0.005 A 
ATOM     19  C   UNL     1      -0.795   3.232  25.517  0.00  0.00    +0.120 A 
ATOM     20  C   UNL     1      -0.605   5.476  24.641  0.00  0.00    +0.004 A 
ATOM     21  C   UNL     1      -0.043   4.221  24.883  0.00  0.00    +0.045 A 
BRANCH  19   3
ATOM      3  O   UNL     1      -0.247   2.008  25.754  0.00  0.00    -0.495 OA
ATOM     24  C   UNL     1       0.224   1.278  24.622  0.00  0.00    +0.277 C 
ENDBRANCH  19   3
ENDBRANCH  10  12
ENDBRANCH   4  10
TORSDOF 4
ENDMDL
MODEL 5
REMARK VINA RESULT:      -0.1      3.118      6.470
REMARK  Name = 45784177
REMARK  5 active torsions:
REMARK  status: ('A' for Active; 'I' for Inactive)
REMARK    1  A    between atoms: O_3  and  C_19
REMARK    2  A    between atoms: O_3  and  C_24
REMARK    3  A    between atoms: N_4  and  C_10
REMARK    4  A    between atoms: C_6  and  C_11
REMARK    5  A    between atoms: C_10  and  C_12
REMARK                            x       y       z     vdW  Elec       q    Type
REMARK                         _______ _______ _______ _____ _____    ______ ____
ROOT
ATOM      4  N   UNL     1      -1.859  -2.284  24.959  0.00  0.00    -0.297 NA
ATOM      6  C   UNL     1      -3.717  -0.946  25.468  0.00  0.00    +0.090 C 
ATOM      7  C   UNL     1      -4.014  -1.782  24.212  0.00  0.00    +0.029 C 
ATOM      8  C   UNL     1      -2.194  -1.032  25.641  0.00  0.00    +0.097 C 
ATOM      9  C   UNL     1      -2.653  -2.267  23.731  0.00  0.00    +0.085 C 
ENDROOT
BRANCH   6  11
ATOM      1 CL   UNL     1      -6.936   5.931  25.522  0.00  0.00    -0.083 Cl
ATOM      2  O   UNL     1      -3.357   1.401  24.919  0.00  0.00    -0.439 OA
ATOM      5  N   UNL     1      -5.396   0.940  25.796  0.00  0.00    -0.213 NA
ATOM     11  C   UNL     1      -4.225   0.476  25.419  0.00  0.00    +0.201 A 
ATOM     13  C   UNL     1      -5.306   2.284  25.525  0.00  0.00    +0.111 A 
ATOM     14  C   UNL     1      -4.059   2.569  24.988  0.00  0.00    +0.155 A 
ATOM     17  C   UNL     1      -6.225   3.329  25.701  0.00  0.00    +0.051 A 
ATOM     18  C   UNL     1      -3.636   3.835  24.602  0.00  0.00    +0.050 A 
ATOM     22  C   UNL     1      -5.833   4.621  25.321  0.00  0.00    +0.043 A 
ATOM     23  C   UNL     1      -4.563   4.867  24.782  0.00  0.00    +0.024 A 
ENDBRANCH   6  11
BRANCH   4  10
ATOM     10  C   UNL     1      -0.432  -2.408  24.695  0.00  0.00    +0.119 C 
BRANCH  10  12
ATOM     12  C   UNL     1       0.179  -1.093  24.288  0.00  0.00    -0.030 A 
ATOM     15  C   UNL     1       1.249  -1.070  23.395  0.00  0.00    +0.050 A 
ATOM     16  C   UNL     1      -0.325   0.100  24.804  0.00  0.00    +0.005 A 
ATOM     19  C   UNL     1       1.816   0.147  23.017  0.00  0.00    +0.120 A 
ATOM     20  C   UNL     1       0.241   1.318  24.428  0.00  0.00    +0.004 A 
ATOM     21  C   UNL     1       1.312   1.342  23.534  0.00  0.00    +0.045 A 
BRANCH  19   3
ATOM      3  O   UNL     1       2.861   0.170  22.146  0.00  0.00    -0.495 OA
ATOM     24  C   UNL     1       4.128   0.576  22.662  0.00  0.00    +0.277 C 
ENDBRANCH  19   3
ENDBRANCH  10  12
ENDBRANCH   4  10
TORSDOF 4
ENDMDL
MODEL 6
REMARK VINA RESULT:      -0.1      1.507      2.072
REMARK  Name = 45784177
REMARK  5 active torsions:
REMARK  status: ('A' for Active; 'I' for Inactive)
REMARK    1  A    between atoms: O_3  and  C_19
REMARK    2  A    between atoms: O_3  and  C_24
REMARK    3  A    between atoms: N_4  and  C_10
REMARK    4  A    between atoms: C_6  and  C_11
REMARK    5  A    between atoms: C_10  and  C_12
REMARK                            x       y       z     vdW  Elec       q    Type
REMARK                         _______ _______ _______ _____ _____    ______ ____
ROOT
ATOM      4  N   UNL     1      -3.354  -1.370  24.800  0.00  0.00    -0.297 NA
ATOM      6  C   UNL     1      -1.066  -1.882  24.862  0.00  0.00    +0.090 C 
ATOM      7  C   UNL     1      -1.512  -1.353  26.236  0.00  0.00    +0.029 C 
ATOM      8  C   UNL     1      -2.200  -1.486  23.906  0.00  0.00    +0.097 C 
ATOM      9  C   UNL     1      -2.848  -0.667  25.979  0.00  0.00    +0.085 C 
ENDROOT
BRANCH   6  11
ATOM      1 CL   UNL     1       6.037  -0.084  22.869  0.00  0.00    -0.083 Cl
ATOM      2  O   UNL     1       0.302  -0.193  23.761  0.00  0.00    -0.439 OA
ATOM      5  N   UNL     1       1.458  -1.978  24.544  0.00  0.00    -0.213 NA
ATOM     11  C   UNL     1       0.288  -1.395  24.404  0.00  0.00    +0.201 A 
ATOM     13  C   UNL     1       2.326  -1.095  23.948  0.00  0.00    +0.111 A 
ATOM     14  C   UNL     1       1.621  -0.001  23.467  0.00  0.00    +0.155 A 
ATOM     17  C   UNL     1       3.716  -1.139  23.768  0.00  0.00    +0.051 A 
ATOM     18  C   UNL     1       2.193   1.080  22.808  0.00  0.00    +0.050 A 
ATOM     22  C   UNL     1       4.329  -0.065  23.107  0.00  0.00    +0.043 A 
ATOM     23  C   UNL     1       3.580   1.022  22.637  0.00  0.00    +0.024 A 
ENDBRANCH   6  11
BRANCH   4  10
ATOM     10  C   UNL     1      -4.471  -0.674  24.177  0.00  0.00    +0.119 C 
BRANCH  10  12
ATOM     12  C   UNL     1      -4.297   0.821  24.225  0.00  0.00    -0.030 A 
ATOM     15  C   UNL     1      -5.073   1.584  25.098  0.00  0.00    +0.050 A 
ATOM     16  C   UNL     1      -3.362   1.442  23.398  0.00  0.00    +0.005 A 
ATOM     19  C   UNL     1      -4.912   2.969  25.143  0.00  0.00    +0.120 A 
ATOM     20  C   UNL     1      -3.201   2.827  23.443  0.00  0.00    +0.004 A 
ATOM     21  C   UNL     1      -3.976   3.591  24.315  0.00  0.00    +0.045 A 
BRANCH  19   3
ATOM      3  O   UNL     1      -5.669   3.714  25.994  0.00  0.00    -0.495 OA
ATOM     24  C   UNL     1      -6.127   4.979  25.517  0.00  0.00    +0.277 C 
ENDBRANCH  19   3
ENDBRANCH  10  12
ENDBRANCH   4  10
TORSDOF 4
ENDMDL
MODEL 7
REMARK VINA RESULT:      -0.1      3.380      7.539
REMARK  Name = 45784177
REMARK  5 active torsions:
REMARK  status: ('A' for Active; 'I' for Inactive)
REMARK    1  A    between atoms: O_3  and  C_19
REMARK    2  A    between atoms: O_3  and  C_24
REMARK    3  A    between atoms: N_4  and  C_10
REMARK    4  A    between atoms: C_6  and  C_11
REMARK    5  A    between atoms: C_10  and  C_12
REMARK                            x       y       z     vdW  Elec       q    Type
REMARK                         _______ _______ _______ _____ _____    ______ ____
ROOT
ATOM      4  N   UNL     1       0.341  -0.966  23.865  0.00  0.00    -0.297 NA
ATOM      6  C   UNL     1      -1.251   0.007  25.286  0.00  0.00    +0.090 C 
ATOM      7  C   UNL     1      -1.652  -1.447  24.983  0.00  0.00    +0.029 C 
ATOM      8  C   UNL     1      -0.196   0.349  24.225  0.00  0.00    +0.097 C 
ATOM      9  C   UNL     1      -0.831  -1.835  23.760  0.00  0.00    +0.085 C 
ENDROOT
BRANCH   6  11
ATOM      1 CL   UNL     1      -6.481   5.508  25.475  0.00  0.00    -0.083 Cl
ATOM      2  O   UNL     1      -3.647   0.447  25.255  0.00  0.00    -0.439 OA
ATOM      5  N   UNL     1      -2.350   2.302  25.388  0.00  0.00    -0.213 NA
ATOM     11  C   UNL     1      -2.398   0.990  25.314  0.00  0.00    +0.201 A 
ATOM     13  C   UNL     1      -3.675   2.667  25.379  0.00  0.00    +0.111 A 
ATOM     14  C   UNL     1      -4.471   1.535  25.297  0.00  0.00    +0.155 A 
ATOM     17  C   UNL     1      -4.290   3.927  25.435  0.00  0.00    +0.051 A 
ATOM     18  C   UNL     1      -5.860   1.546  25.266  0.00  0.00    +0.050 A 
ATOM     22  C   UNL     1      -5.691   3.977  25.406  0.00  0.00    +0.043 A 
ATOM     23  C   UNL     1      -6.459   2.809  25.323  0.00  0.00    +0.024 A 
ENDBRANCH   6  11
BRANCH   4  10
ATOM     10  C   UNL     1       1.116  -0.930  22.632  0.00  0.00    +0.119 C 
BRANCH  10  12
ATOM     12  C   UNL     1       2.474  -0.315  22.842  0.00  0.00    -0.030 A 
ATOM     15  C   UNL     1       3.484  -1.052  23.461  0.00  0.00    +0.050 A 
ATOM     16  C   UNL     1       2.722   0.990  22.420  0.00  0.00    +0.005 A 
ATOM     19  C   UNL     1       4.742  -0.483  23.656  0.00  0.00    +0.120 A 
ATOM     20  C   UNL     1       3.980   1.560  22.615  0.00  0.00    +0.004 A 
ATOM     21  C   UNL     1       4.991   0.824  23.233  0.00  0.00    +0.045 A 
BRANCH  19   3
ATOM      3  O   UNL     1       5.728  -1.202  24.260  0.00  0.00    -0.495 OA
ATOM     24  C   UNL     1       7.075  -0.838  23.957  0.00  0.00    +0.277 C 
ENDBRANCH  19   3
ENDBRANCH  10  12
ENDBRANCH   4  10
TORSDOF 4
ENDMDL
MODEL 8
REMARK VINA RESULT:       0.3      1.715      2.580
REMARK  Name = 45784177
REMARK  5 active torsions:
REMARK  status: ('A' for Active; 'I' for Inactive)
REMARK    1  A    between atoms: O_3  and  C_19
REMARK    2  A    between atoms: O_3  and  C_24
REMARK    3  A    between atoms: N_4  and  C_10
REMARK    4  A    between atoms: C_6  and  C_11
REMARK    5  A    between atoms: C_10  and  C_12
REMARK                            x       y       z     vdW  Elec       q    Type
REMARK                         _______ _______ _______ _____ _____    ______ ____
ROOT
ATOM      4  N   UNL     1      -2.227  -0.275  24.311  0.00  0.00    -0.297 NA
ATOM      6  C   UNL     1      -0.246  -0.370  23.059  0.00  0.00    +0.090 C 
ATOM      7  C   UNL     1      -0.823  -1.788  23.219  0.00  0.00    +0.029 C 
ATOM      8  C   UNL     1      -0.982   0.470  24.112  0.00  0.00    +0.097 C 
ATOM      9  C   UNL     1      -1.822  -1.679  24.363  0.00  0.00    +0.085 C 
ENDROOT
BRANCH   6  11
ATOM      1 CL   UNL     1       7.247   0.816  23.381  0.00  0.00    -0.083 Cl
ATOM      2  O   UNL     1       1.887  -1.398  23.634  0.00  0.00    -0.439 OA
ATOM      5  N   UNL     1       2.039   0.739  22.894  0.00  0.00    -0.213 NA
ATOM     11  C   UNL     1       1.257  -0.279  23.177  0.00  0.00    +0.201 A 
ATOM     13  C   UNL     1       3.295   0.263  23.186  0.00  0.00    +0.111 A 
ATOM     14  C   UNL     1       3.205  -1.044  23.640  0.00  0.00    +0.155 A 
ATOM     17  C   UNL     1       4.559   0.866  23.099  0.00  0.00    +0.051 A 
ATOM     18  C   UNL     1       4.289  -1.825  24.023  0.00  0.00    +0.050 A 
ATOM     22  C   UNL     1       5.677   0.108  23.477  0.00  0.00    +0.043 A 
ATOM     23  C   UNL     1       5.542  -1.210  23.930  0.00  0.00    +0.024 A 
ENDBRANCH   6  11
BRANCH   4  10
ATOM     10  C   UNL     1      -2.938   0.142  25.511  0.00  0.00    +0.119 C 
BRANCH  10  12
ATOM     12  C   UNL     1      -3.442   1.557  25.401  0.00  0.00    -0.030 A 
ATOM     15  C   UNL     1      -2.546   2.623  25.481  0.00  0.00    +0.050 A 
ATOM     16  C   UNL     1      -4.802   1.800  25.219  0.00  0.00    +0.005 A 
ATOM     19  C   UNL     1      -3.013   3.934  25.379  0.00  0.00    +0.120 A 
ATOM     20  C   UNL     1      -5.270   3.110  25.118  0.00  0.00    +0.004 A 
ATOM     21  C   UNL     1      -4.375   4.178  25.197  0.00  0.00    +0.045 A 
BRANCH  19   3
ATOM      3  O   UNL     1      -2.140   4.975  25.458  0.00  0.00    -0.495 OA
ATOM     24  C   UNL     1      -0.842   4.777  24.897  0.00  0.00    +0.277 C 
ENDBRANCH  19   3
ENDBRANCH  10  12
ENDBRANCH   4  10
TORSDOF 4
ENDMDL
MODEL 9
REMARK VINA RESULT:       0.5      2.366      3.794
REMARK  Name = 45784177
REMARK  5 active torsions:
REMARK  status: ('A' for Active; 'I' for Inactive)
REMARK    1  A    between atoms: O_3  and  C_19
REMARK    2  A    between atoms: O_3  and  C_24
REMARK    3  A    between atoms: N_4  and  C_10
REMARK    4  A    between atoms: C_6  and  C_11
REMARK    5  A    between atoms: C_10  and  C_12
REMARK                            x       y       z     vdW  Elec       q    Type
REMARK                         _______ _______ _______ _____ _____    ______ ____
ROOT
ATOM      4  N   UNL     1      -1.061   1.813  24.130  0.00  0.00    -0.297 NA
ATOM      6  C   UNL     1       0.699   0.673  23.080  0.00  0.00    +0.090 C 
ATOM      7  C   UNL     1      -0.195  -0.334  23.824  0.00  0.00    +0.029 C 
ATOM      8  C   UNL     1       0.305   2.041  23.655  0.00  0.00    +0.097 C 
ATOM      9  C   UNL     1      -1.018   0.509  24.790  0.00  0.00    +0.085 C 
ENDROOT
BRANCH   6  11
ATOM      1 CL   UNL     1       8.260   0.029  23.345  0.00  0.00    -0.083 Cl
ATOM      2  O   UNL     1       2.528  -0.865  23.552  0.00  0.00    -0.439 OA
ATOM      5  N   UNL     1       3.182   1.219  22.946  0.00  0.00    -0.213 NA
ATOM     11  C   UNL     1       2.181   0.398  23.177  0.00  0.00    +0.201 A 
ATOM     13  C   UNL     1       4.290   0.441  23.185  0.00  0.00    +0.111 A 
ATOM     14  C   UNL     1       3.893  -0.835  23.557  0.00  0.00    +0.155 A 
ATOM     17  C   UNL     1       5.660   0.732  23.113  0.00  0.00    +0.051 A 
ATOM     18  C   UNL     1       4.762  -1.873  23.871  0.00  0.00    +0.050 A 
ATOM     22  C   UNL     1       6.568  -0.292  23.423  0.00  0.00    +0.043 A 
ATOM     23  C   UNL     1       6.125  -1.568  23.794  0.00  0.00    +0.024 A 
ENDBRANCH   6  11
BRANCH   4  10
ATOM     10  C   UNL     1      -1.523   2.869  25.020  0.00  0.00    +0.119 C 
BRANCH  10  12
ATOM     12  C   UNL     1      -3.018   2.838  25.199  0.00  0.00    -0.030 A 
ATOM     15  C   UNL     1      -3.732   1.682  24.883  0.00  0.00    +0.050 A 
ATOM     16  C   UNL     1      -3.687   3.962  25.679  0.00  0.00    +0.005 A 
ATOM     19  C   UNL     1      -5.117   1.653  25.049  0.00  0.00    +0.120 A 
ATOM     20  C   UNL     1      -5.072   3.934  25.844  0.00  0.00    +0.004 A 
ATOM     21  C   UNL     1      -5.787   2.778  25.529  0.00  0.00    +0.045 A 
BRANCH  19   3
ATOM      3  O   UNL     1      -5.815   0.525  24.740  0.00  0.00    -0.495 OA
ATOM     24  C   UNL     1      -5.059  -0.617  24.340  0.00  0.00    +0.277 C 
ENDBRANCH  19   3
ENDBRANCH  10  12
ENDBRANCH   4  10
TORSDOF 4
ENDMDL
