MODEL 1
REMARK VINA RESULT:      -2.4      0.000      0.000
REMARK  Name = 45783662
REMARK  7 active torsions:
REMARK  status: ('A' for Active; 'I' for Inactive)
REMARK    1  A    between atoms: O_3  and  C_22
REMARK    2  A    between atoms: N_4  and  C_14
REMARK    3  A    between atoms: N_8  and  C_26
REMARK    4  A    between atoms: C_10  and  C_15
REMARK    5  A    between atoms: C_14  and  C_16
REMARK    6  A    between atoms: C_18  and  C_21
REMARK    7  A    between atoms: C_19  and  C_22
REMARK                            x       y       z     vdW  Elec       q    Type
REMARK                         _______ _______ _______ _____ _____    ______ ____
ROOT
ATOM      1  O   UNL     1      -3.263   2.400  22.186  0.00  0.00    -0.336 OA
ATOM      5  N   UNL     1      -2.254   1.662  24.043  0.00  0.00    -0.190 NA
ATOM      6  N   UNL     1      -1.961   2.052  21.808  0.00  0.00    -0.056 NA
ATOM     15  C   UNL     1      -3.353   2.141  23.516  0.00  0.00    +0.245 A 
ATOM     18  C   UNL     1      -1.428   1.626  22.958  0.00  0.00    +0.204 A 
ENDROOT
BRANCH  18  21
ATOM      7  N   UNL     1       2.181   1.519  23.848  0.00  0.00    -0.237 NA
ATOM     21  C   UNL     1      -0.075   1.160  23.056  0.00  0.00    +0.041 A 
ATOM     23  C   UNL     1       0.310  -0.047  22.482  0.00  0.00    +0.017 A 
ATOM     24  C   UNL     1       0.889   1.899  23.721  0.00  0.00    +0.124 A 
ATOM     25  C   UNL     1       1.630  -0.472  22.591  0.00  0.00    +0.047 A 
ATOM     26  C   UNL     1       2.518   0.340  23.277  0.00  0.00    +0.139 A 
BRANCH  26   8
ATOM      8  N   UNL     1       3.834  -0.079  23.389  0.00  0.00    -0.290 N 
ATOM      9  N   UNL     1       5.569  -1.404  23.804  0.00  0.00    -0.244 NA
ATOM     27  C   UNL     1       4.947   0.662  23.105  0.00  0.00    +0.114 A 
ATOM     28  C   UNL     1       4.258  -1.312  23.804  0.00  0.00    +0.205 A 
ATOM     29  C   UNL     1       6.004  -0.177  23.368  0.00  0.00    +0.130 A 
ENDBRANCH  26   8
ENDBRANCH  18  21
BRANCH  15  10
ATOM      4  N   UNL     1      -4.897   1.646  25.403  0.00  0.00    -0.284 NA
ATOM     10  C   UNL     1      -4.683   2.436  24.174  0.00  0.00    +0.146 C 
ATOM     11  C   UNL     1      -4.813   3.903  24.625  0.00  0.00    +0.030 C 
ATOM     12  C   UNL     1      -5.157   3.835  26.105  0.00  0.00    +0.017 C 
ATOM     13  C   UNL     1      -5.757   2.453  26.269  0.00  0.00    +0.085 C 
BRANCH   4  14
ATOM     14  C   UNL     1      -5.461   0.326  25.148  0.00  0.00    +0.159 C 
BRANCH  14  16
ATOM      2  O   UNL     1      -3.205  -0.524  25.479  0.00  0.00    -0.461 OA
ATOM     16  C   UNL     1      -4.393  -0.689  24.839  0.00  0.00    +0.119 A 
ATOM     17  C   UNL     1      -4.352  -1.792  24.019  0.00  0.00    +0.046 A 
ATOM     19  C   UNL     1      -2.396  -1.535  25.061  0.00  0.00    +0.131 A 
ATOM     20  C   UNL     1      -3.055  -2.341  24.164  0.00  0.00    +0.047 A 
BRANCH  19  22
ATOM     22  C   UNL     1      -1.042  -1.559  25.630  0.00  0.00    +0.230 C 
BRANCH  22   3
ATOM      3  O   UNL     1      -0.660  -0.248  26.054  0.00  0.00    -0.387 OA
ATOM     30  H   UNL     1       0.256  -0.309  26.374  0.00  0.00    +0.210 HD
ENDBRANCH  22   3
ENDBRANCH  19  22
ENDBRANCH  14  16
ENDBRANCH   4  14
ENDBRANCH  15  10
TORSDOF 7
ENDMDL
MODEL 2
REMARK VINA RESULT:      -1.3     14.621     16.078
REMARK  Name = 45783662
REMARK  7 active torsions:
REMARK  status: ('A' for Active; 'I' for Inactive)
REMARK    1  A    between atoms: O_3  and  C_22
REMARK    2  A    between atoms: N_4  and  C_14
REMARK    3  A    between atoms: N_8  and  C_26
REMARK    4  A    between atoms: C_10  and  C_15
REMARK    5  A    between atoms: C_14  and  C_16
REMARK    6  A    between atoms: C_18  and  C_21
REMARK    7  A    between atoms: C_19  and  C_22
REMARK                            x       y       z     vdW  Elec       q    Type
REMARK                         _______ _______ _______ _____ _____    ______ ____
ROOT
ATOM      1  O   UNL     1      -7.474 -10.727   9.930  0.00  0.00    -0.336 OA
ATOM      5  N   UNL     1      -6.519  -9.863  11.762  0.00  0.00    -0.190 NA
ATOM      6  N   UNL     1      -6.120 -10.555   9.618  0.00  0.00    -0.056 NA
ATOM     15  C   UNL     1      -7.624 -10.295  11.209  0.00  0.00    +0.245 A 
ATOM     18  C   UNL     1      -5.624 -10.041  10.748  0.00  0.00    +0.204 A 
ENDROOT
BRANCH  18  21
ATOM      7  N   UNL     1      -2.342  -8.405  10.131  0.00  0.00    -0.237 NA
ATOM     21  C   UNL     1      -4.240  -9.693  10.895  0.00  0.00    +0.041 A 
ATOM     23  C   UNL     1      -3.457 -10.271  11.888  0.00  0.00    +0.017 A 
ATOM     24  C   UNL     1      -3.640  -8.774  10.049  0.00  0.00    +0.124 A 
ATOM     25  C   UNL     1      -2.118  -9.917  12.004  0.00  0.00    +0.047 A 
ATOM     26  C   UNL     1      -1.613  -8.987  11.109  0.00  0.00    +0.139 A 
BRANCH  26   8
ATOM      8  N   UNL     1      -0.278  -8.630  11.221  0.00  0.00    -0.290 N 
ATOM      9  N   UNL     1       1.540  -7.569  11.931  0.00  0.00    -0.244 NA
ATOM     27  C   UNL     1       0.765  -9.165  10.518  0.00  0.00    +0.114 A 
ATOM     28  C   UNL     1       0.236  -7.677  12.057  0.00  0.00    +0.205 A 
ATOM     29  C   UNL     1       1.876  -8.494  10.974  0.00  0.00    +0.130 A 
ENDBRANCH  26   8
ENDBRANCH  18  21
BRANCH  15  10
ATOM      4  N   UNL     1      -9.100  -9.820  13.156  0.00  0.00    -0.284 NA
ATOM     10  C   UNL     1      -9.019 -10.379  11.791  0.00  0.00    +0.146 C 
ATOM     11  C   UNL     1     -10.053  -9.579  10.979  0.00  0.00    +0.030 C 
ATOM     12  C   UNL     1     -10.705  -8.638  11.981  0.00  0.00    +0.017 C 
ATOM     13  C   UNL     1     -10.463  -9.315  13.315  0.00  0.00    +0.085 C 
BRANCH   4  14
ATOM     14  C   UNL     1      -8.747 -10.781  14.193  0.00  0.00    +0.159 C 
BRANCH  14  16
ATOM      2  O   UNL     1      -6.869 -10.359  15.683  0.00  0.00    -0.461 OA
ATOM     16  C   UNL     1      -8.176 -10.105  15.412  0.00  0.00    +0.119 A 
ATOM     17  C   UNL     1      -8.708  -9.252  16.350  0.00  0.00    +0.046 A 
ATOM     19  C   UNL     1      -6.563  -9.659  16.808  0.00  0.00    +0.131 A 
ATOM     20  C   UNL     1      -7.660  -8.963  17.257  0.00  0.00    +0.047 A 
BRANCH  19  22
ATOM     22  C   UNL     1      -5.182  -9.783  17.294  0.00  0.00    +0.230 C 
BRANCH  22   3
ATOM      3  O   UNL     1      -4.278  -9.891  16.192  0.00  0.00    -0.387 OA
ATOM     30  H   UNL     1      -3.434  -9.500  16.476  0.00  0.00    +0.210 HD
ENDBRANCH  22   3
ENDBRANCH  19  22
ENDBRANCH  14  16
ENDBRANCH   4  14
ENDBRANCH  15  10
TORSDOF 7
ENDMDL
MODEL 3
REMARK VINA RESULT:      -1.0     14.725     16.247
REMARK  Name = 45783662
REMARK  7 active torsions:
REMARK  status: ('A' for Active; 'I' for Inactive)
REMARK    1  A    between atoms: O_3  and  C_22
REMARK    2  A    between atoms: N_4  and  C_14
REMARK    3  A    between atoms: N_8  and  C_26
REMARK    4  A    between atoms: C_10  and  C_15
REMARK    5  A    between atoms: C_14  and  C_16
REMARK    6  A    between atoms: C_18  and  C_21
REMARK    7  A    between atoms: C_19  and  C_22
REMARK                            x       y       z     vdW  Elec       q    Type
REMARK                         _______ _______ _______ _____ _____    ______ ____
ROOT
ATOM      1  O   UNL     1      -7.040 -10.781   9.831  0.00  0.00    -0.336 OA
ATOM      5  N   UNL     1      -6.113 -10.123  11.761  0.00  0.00    -0.190 NA
ATOM      6  N   UNL     1      -5.701 -10.492   9.541  0.00  0.00    -0.056 NA
ATOM     15  C   UNL     1      -7.200 -10.536  11.158  0.00  0.00    +0.245 A 
ATOM     18  C   UNL     1      -5.221 -10.111  10.729  0.00  0.00    +0.204 A 
ENDROOT
BRANCH  18  21
ATOM      7  N   UNL     1      -1.984  -8.358  10.204  0.00  0.00    -0.237 NA
ATOM     21  C   UNL     1      -3.857  -9.710  10.918  0.00  0.00    +0.041 A 
ATOM     23  C   UNL     1      -3.086 -10.249  11.942  0.00  0.00    +0.017 A 
ATOM     24  C   UNL     1      -3.264  -8.777  10.082  0.00  0.00    +0.124 A 
ATOM     25  C   UNL     1      -1.766  -9.843  12.098  0.00  0.00    +0.047 A 
ATOM     26  C   UNL     1      -1.266  -8.904  11.211  0.00  0.00    +0.139 A 
BRANCH  26   8
ATOM      8  N   UNL     1       0.050  -8.496  11.363  0.00  0.00    -0.290 N 
ATOM      9  N   UNL     1       2.247  -8.396  11.051  0.00  0.00    -0.244 NA
ATOM     27  C   UNL     1       0.505  -7.533  12.219  0.00  0.00    +0.114 A 
ATOM     28  C   UNL     1       1.131  -8.985  10.683  0.00  0.00    +0.205 A 
ATOM     29  C   UNL     1       1.863  -7.489  12.008  0.00  0.00    +0.130 A 
ENDBRANCH  26   8
ENDBRANCH  18  21
BRANCH  15  10
ATOM      4  N   UNL     1      -8.807 -10.052  12.994  0.00  0.00    -0.284 NA
ATOM     10  C   UNL     1      -8.581 -10.777  11.728  0.00  0.00    +0.146 C 
ATOM     11  C   UNL     1      -9.704 -10.291  10.794  0.00  0.00    +0.030 C 
ATOM     12  C   UNL     1     -10.543  -9.344  11.639  0.00  0.00    +0.017 C 
ATOM     13  C   UNL     1     -10.242  -9.773  13.060  0.00  0.00    +0.085 C 
BRANCH   4  14
ATOM     14  C   UNL     1      -8.337 -10.781  14.166  0.00  0.00    +0.159 C 
BRANCH  14  16
ATOM      2  O   UNL     1      -9.526 -10.705  16.288  0.00  0.00    -0.461 OA
ATOM     16  C   UNL     1      -8.675 -10.063  15.446  0.00  0.00    +0.119 A 
ATOM     17  C   UNL     1      -8.297  -8.850  15.972  0.00  0.00    +0.046 A 
ATOM     19  C   UNL     1      -9.694  -9.891  17.365  0.00  0.00    +0.131 A 
ATOM     20  C   UNL     1      -8.959  -8.739  17.218  0.00  0.00    +0.047 A 
BRANCH  19  22
ATOM     22  C   UNL     1     -10.587 -10.387  18.421  0.00  0.00    +0.230 C 
BRANCH  22   3
ATOM      3  O   UNL     1     -10.069 -10.042  19.708  0.00  0.00    -0.387 OA
ATOM     30  H   UNL     1     -10.467 -10.657  20.348  0.00  0.00    +0.210 HD
ENDBRANCH  22   3
ENDBRANCH  19  22
ENDBRANCH  14  16
ENDBRANCH   4  14
ENDBRANCH  15  10
TORSDOF 7
ENDMDL
MODEL 4
REMARK VINA RESULT:       0.1      1.754      3.049
REMARK  Name = 45783662
REMARK  7 active torsions:
REMARK  status: ('A' for Active; 'I' for Inactive)
REMARK    1  A    between atoms: O_3  and  C_22
REMARK    2  A    between atoms: N_4  and  C_14
REMARK    3  A    between atoms: N_8  and  C_26
REMARK    4  A    between atoms: C_10  and  C_15
REMARK    5  A    between atoms: C_14  and  C_16
REMARK    6  A    between atoms: C_18  and  C_21
REMARK    7  A    between atoms: C_19  and  C_22
REMARK                            x       y       z     vdW  Elec       q    Type
REMARK                         _______ _______ _______ _____ _____    ______ ____
ROOT
ATOM      1  O   UNL     1      -3.374   1.713  23.140  0.00  0.00    -0.336 OA
ATOM      5  N   UNL     1      -2.080   1.067  24.849  0.00  0.00    -0.190 NA
ATOM      6  N   UNL     1      -2.112   1.453  22.594  0.00  0.00    -0.056 NA
ATOM     15  C   UNL     1      -3.269   1.462  24.471  0.00  0.00    +0.245 A 
ATOM     18  C   UNL     1      -1.403   1.077  23.664  0.00  0.00    +0.204 A 
ENDROOT
BRANCH  18  21
ATOM      7  N   UNL     1       2.301   1.387  23.553  0.00  0.00    -0.237 NA
ATOM     21  C   UNL     1      -0.020   0.708  23.583  0.00  0.00    +0.041 A 
ATOM     23  C   UNL     1       0.361  -0.623  23.454  0.00  0.00    +0.017 A 
ATOM     24  C   UNL     1       0.980   1.667  23.627  0.00  0.00    +0.124 A 
ATOM     25  C   UNL     1       1.710  -0.950  23.375  0.00  0.00    +0.047 A 
ATOM     26  C   UNL     1       2.632   0.082  23.428  0.00  0.00    +0.139 A 
BRANCH  26   8
ATOM      8  N   UNL     1       3.978  -0.239  23.350  0.00  0.00    -0.290 N 
ATOM      9  N   UNL     1       5.856  -1.405  23.572  0.00  0.00    -0.244 NA
ATOM     27  C   UNL     1       4.968   0.544  22.825  0.00  0.00    +0.114 A 
ATOM     28  C   UNL     1       4.559  -1.398  23.785  0.00  0.00    +0.205 A 
ATOM     29  C   UNL     1       6.117  -0.197  22.973  0.00  0.00    +0.130 A 
ENDBRANCH  26   8
ENDBRANCH  18  21
BRANCH  15  10
ATOM      4  N   UNL     1      -5.033   3.052  25.213  0.00  0.00    -0.284 NA
ATOM     10  C   UNL     1      -4.519   1.671  25.299  0.00  0.00    +0.146 C 
ATOM     11  C   UNL     1      -5.692   0.787  24.839  0.00  0.00    +0.030 C 
ATOM     12  C   UNL     1      -6.837   1.754  24.573  0.00  0.00    +0.017 C 
ATOM     13  C   UNL     1      -6.481   2.967  25.407  0.00  0.00    +0.085 C 
BRANCH   4  14
ATOM     14  C   UNL     1      -4.405   3.960  26.166  0.00  0.00    +0.159 C 
BRANCH  14  16
ATOM      2  O   UNL     1      -2.035   3.458  26.394  0.00  0.00    -0.461 OA
ATOM     16  C   UNL     1      -2.972   4.246  25.805  0.00  0.00    +0.119 A 
ATOM     17  C   UNL     1      -2.377   5.168  24.975  0.00  0.00    +0.046 A 
ATOM     19  C   UNL     1      -0.827   3.883  25.936  0.00  0.00    +0.131 A 
ATOM     20  C   UNL     1      -0.984   4.931  25.060  0.00  0.00    +0.047 A 
BRANCH  19  22
ATOM     22  C   UNL     1       0.350   3.164  26.445  0.00  0.00    +0.230 C 
BRANCH  22   3
ATOM      3  O   UNL     1      -0.028   1.867  26.913  0.00  0.00    -0.387 OA
ATOM     30  H   UNL     1       0.794   1.381  27.097  0.00  0.00    +0.210 HD
ENDBRANCH  22   3
ENDBRANCH  19  22
ENDBRANCH  14  16
ENDBRANCH   4  14
ENDBRANCH  15  10
TORSDOF 7
ENDMDL
MODEL 5
REMARK VINA RESULT:       1.4     13.597     15.066
REMARK  Name = 45783662
REMARK  7 active torsions:
REMARK  status: ('A' for Active; 'I' for Inactive)
REMARK    1  A    between atoms: O_3  and  C_22
REMARK    2  A    between atoms: N_4  and  C_14
REMARK    3  A    between atoms: N_8  and  C_26
REMARK    4  A    between atoms: C_10  and  C_15
REMARK    5  A    between atoms: C_14  and  C_16
REMARK    6  A    between atoms: C_18  and  C_21
REMARK    7  A    between atoms: C_19  and  C_22
REMARK                            x       y       z     vdW  Elec       q    Type
REMARK                         _______ _______ _______ _____ _____    ______ ____
ROOT
ATOM      1  O   UNL     1      -3.901 -10.178  10.355  0.00  0.00    -0.336 OA
ATOM      5  N   UNL     1      -2.920  -9.718  12.315  0.00  0.00    -0.190 NA
ATOM      6  N   UNL     1      -2.659  -9.612  10.044  0.00  0.00    -0.056 NA
ATOM     15  C   UNL     1      -3.975 -10.204  11.712  0.00  0.00    +0.245 A 
ATOM     18  C   UNL     1      -2.140  -9.367  11.252  0.00  0.00    +0.204 A 
ENDROOT
BRANCH  18  21
ATOM      7  N   UNL     1       0.593  -7.301  12.698  0.00  0.00    -0.237 NA
ATOM     21  C   UNL     1      -0.847  -8.772  11.430  0.00  0.00    +0.041 A 
ATOM     23  C   UNL     1       0.198  -9.053  10.556  0.00  0.00    +0.017 A 
ATOM     24  C   UNL     1      -0.600  -7.897  12.476  0.00  0.00    +0.124 A 
ATOM     25  C   UNL     1       1.439  -8.459  10.752  0.00  0.00    +0.047 A 
ATOM     26  C   UNL     1       1.584  -7.598  11.828  0.00  0.00    +0.139 A 
BRANCH  26   8
ATOM      8  N   UNL     1       2.820  -7.004  12.028  0.00  0.00    -0.290 N 
ATOM      9  N   UNL     1       5.021  -6.803  12.255  0.00  0.00    -0.244 NA
ATOM     27  C   UNL     1       3.054  -5.675  12.251  0.00  0.00    +0.114 A 
ATOM     28  C   UNL     1       4.031  -7.640  12.039  0.00  0.00    +0.205 A 
ATOM     29  C   UNL     1       4.418  -5.577  12.387  0.00  0.00    +0.130 A 
ENDBRANCH  26   8
ENDBRANCH  18  21
BRANCH  15  10
ATOM      4  N   UNL     1      -5.598 -10.155  13.597  0.00  0.00    -0.284 NA
ATOM     10  C   UNL     1      -5.241 -10.781  12.308  0.00  0.00    +0.146 C 
ATOM     11  C   UNL     1      -6.474 -10.563  11.413  0.00  0.00    +0.030 C 
ATOM     12  C   UNL     1      -7.492  -9.862  12.301  0.00  0.00    +0.017 C 
ATOM     13  C   UNL     1      -7.055 -10.232  13.704  0.00  0.00    +0.085 C 
BRANCH   4  14
ATOM     14  C   UNL     1      -4.932 -10.770  14.739  0.00  0.00    +0.159 C 
BRANCH  14  16
ATOM      2  O   UNL     1      -6.779  -9.736  15.941  0.00  0.00    -0.461 OA
ATOM     16  C   UNL     1      -5.605 -10.413  16.038  0.00  0.00    +0.119 A 
ATOM     17  C   UNL     1      -5.280 -10.631  17.357  0.00  0.00    +0.046 A 
ATOM     19  C   UNL     1      -7.208  -9.518  17.213  0.00  0.00    +0.131 A 
ATOM     20  C   UNL     1      -6.322 -10.050  18.119  0.00  0.00    +0.047 A 
BRANCH  19  22
ATOM     22  C   UNL     1      -8.478  -8.792  17.354  0.00  0.00    +0.230 C 
BRANCH  22   3
ATOM      3  O   UNL     1      -9.023  -8.496  16.066  0.00  0.00    -0.387 OA
ATOM     30  H   UNL     1      -8.543  -9.043  15.421  0.00  0.00    +0.210 HD
ENDBRANCH  22   3
ENDBRANCH  19  22
ENDBRANCH  14  16
ENDBRANCH   4  14
ENDBRANCH  15  10
TORSDOF 7
ENDMDL
