MODEL 1
REMARK VINA RESULT:      11.6      0.000      0.000
REMARK  Name = 51136888
REMARK  8 active torsions:
REMARK  status: ('A' for Active; 'I' for Inactive)
REMARK    1  A    between atoms: O_3  and  C_33
REMARK    2  A    between atoms: O_3  and  C_34
REMARK    3  A    between atoms: N_4  and  C_14
REMARK    4  A    between atoms: N_9  and  C_26
REMARK    5  A    between atoms: C_10  and  C_15
REMARK    6  A    between atoms: C_14  and  C_16
REMARK    7  A    between atoms: C_17  and  C_20
REMARK    8  A    between atoms: C_27  and  C_28
REMARK                            x       y       z     vdW  Elec       q    Type
REMARK                         _______ _______ _______ _____ _____    ______ ____
ROOT
ATOM      8  N   UNL     1       1.780   2.130  23.814  0.00  0.00    -0.239 NA
ATOM     20  C   UNL     1      -0.449   1.461  23.159  0.00  0.00    +0.041 A 
ATOM     23  C   UNL     1       0.068   0.343  22.514  0.00  0.00    +0.016 A 
ATOM     24  C   UNL     1       0.441   2.316  23.788  0.00  0.00    +0.124 A 
ATOM     25  C   UNL     1       1.441   0.118  22.518  0.00  0.00    +0.044 A 
ATOM     26  C   UNL     1       2.246   1.033  23.177  0.00  0.00    +0.125 A 
ENDROOT
BRANCH  20  17
ATOM      1  O   UNL     1      -3.824   2.321  22.583  0.00  0.00    -0.336 OA
ATOM      5  N   UNL     1      -2.629   1.445  24.263  0.00  0.00    -0.190 NA
ATOM      6  N   UNL     1      -2.502   2.248  22.125  0.00  0.00    -0.056 NA
ATOM     15  C   UNL     1      -3.810   1.828  23.850  0.00  0.00    +0.245 A 
ATOM     17  C   UNL     1      -1.859   1.721  23.171  0.00  0.00    +0.204 A 
BRANCH  15  10
ATOM      4  N   UNL     1      -5.072   1.055  25.851  0.00  0.00    -0.287 NA
ATOM     10  C   UNL     1      -5.139   1.798  24.576  0.00  0.00    +0.146 C 
ATOM     11  C   UNL     1      -5.635   3.202  24.967  0.00  0.00    +0.030 C 
ATOM     12  C   UNL     1      -5.878   3.134  26.468  0.00  0.00    +0.017 C 
ATOM     13  C   UNL     1      -6.075   1.655  26.731  0.00  0.00    +0.085 C 
BRANCH   4  14
ATOM     14  C   UNL     1      -5.273  -0.380  25.690  0.00  0.00    +0.121 C 
BRANCH  14  16
ATOM      7  N   UNL     1      -1.644  -1.459  25.723  0.00  0.00    -0.263 NA
ATOM     16  C   UNL     1      -3.997  -1.084  25.311  0.00  0.00    -0.015 A 
ATOM     18  C   UNL     1      -3.961  -1.982  24.250  0.00  0.00    +0.008 A 
ATOM     19  C   UNL     1      -2.822  -0.860  26.011  0.00  0.00    +0.115 A 
ATOM     21  C   UNL     1      -2.768  -2.618  23.924  0.00  0.00    +0.020 A 
ATOM     22  C   UNL     1      -1.649  -2.325  24.685  0.00  0.00    +0.111 A 
ENDBRANCH  14  16
ENDBRANCH   4  14
ENDBRANCH  15  10
ENDBRANCH  20  17
BRANCH  26   9
ATOM      2  O   UNL     1       3.786  -1.463  23.796  0.00  0.00    -0.270 OA
ATOM      9  N   UNL     1       3.626   0.797  23.174  0.00  0.00    -0.266 N 
ATOM     27  C   UNL     1       4.294  -0.394  23.473  0.00  0.00    +0.249 C 
ATOM     35  H   UNL     1       4.163   1.606  22.877  0.00  0.00    +0.157 HD
BRANCH  27  28
ATOM     28  C   UNL     1       5.774  -0.339  23.355  0.00  0.00    +0.037 A 
ATOM     29  C   UNL     1       6.486   0.681  23.987  0.00  0.00    +0.016 A 
ATOM     30  C   UNL     1       6.451  -1.305  22.611  0.00  0.00    +0.016 A 
ATOM     31  C   UNL     1       7.876   0.733  23.875  0.00  0.00    +0.046 A 
ATOM     32  C   UNL     1       7.841  -1.252  22.499  0.00  0.00    +0.046 A 
ATOM     33  C   UNL     1       8.552  -0.233  23.131  0.00  0.00    +0.120 A 
BRANCH  33   3
ATOM      3  O   UNL     1       9.909  -0.181  23.021  0.00  0.00    -0.495 OA
ATOM     34  C   UNL     1      10.459   0.918  22.298  0.00  0.00    +0.277 C 
ENDBRANCH  33   3
ENDBRANCH  27  28
ENDBRANCH  26   9
TORSDOF 7
ENDMDL
MODEL 2
REMARK VINA RESULT:      12.4      1.655      2.952
REMARK  Name = 51136888
REMARK  8 active torsions:
REMARK  status: ('A' for Active; 'I' for Inactive)
REMARK    1  A    between atoms: O_3  and  C_33
REMARK    2  A    between atoms: O_3  and  C_34
REMARK    3  A    between atoms: N_4  and  C_14
REMARK    4  A    between atoms: N_9  and  C_26
REMARK    5  A    between atoms: C_10  and  C_15
REMARK    6  A    between atoms: C_14  and  C_16
REMARK    7  A    between atoms: C_17  and  C_20
REMARK    8  A    between atoms: C_27  and  C_28
REMARK                            x       y       z     vdW  Elec       q    Type
REMARK                         _______ _______ _______ _____ _____    ______ ____
ROOT
ATOM      8  N   UNL     1       2.099   1.720  23.870  0.00  0.00    -0.239 NA
ATOM     20  C   UNL     1      -0.107   0.838  23.417  0.00  0.00    +0.041 A 
ATOM     23  C   UNL     1       0.456  -0.262  22.781  0.00  0.00    +0.016 A 
ATOM     24  C   UNL     1       0.750   1.793  23.940  0.00  0.00    +0.124 A 
ATOM     25  C   UNL     1       1.839  -0.373  22.688  0.00  0.00    +0.044 A 
ATOM     26  C   UNL     1       2.610   0.635  23.245  0.00  0.00    +0.125 A 
ENDROOT
BRANCH  20  17
ATOM      1  O   UNL     1      -3.601   1.157  23.038  0.00  0.00    -0.336 OA
ATOM      5  N   UNL     1      -2.145   1.108  24.738  0.00  0.00    -0.190 NA
ATOM      6  N   UNL     1      -2.335   1.003  22.461  0.00  0.00    -0.056 NA
ATOM     15  C   UNL     1      -3.399   1.211  24.381  0.00  0.00    +0.245 A 
ATOM     17  C   UNL     1      -1.529   0.981  23.527  0.00  0.00    +0.204 A 
BRANCH  15  10
ATOM      4  N   UNL     1      -5.100   2.778  25.300  0.00  0.00    -0.287 NA
ATOM     10  C   UNL     1      -4.634   1.378  25.243  0.00  0.00    +0.146 C 
ATOM     11  C   UNL     1      -5.841   0.584  24.711  0.00  0.00    +0.030 C 
ATOM     12  C   UNL     1      -6.955   1.610  24.559  0.00  0.00    +0.017 C 
ATOM     13  C   UNL     1      -6.548   2.723  25.504  0.00  0.00    +0.085 C 
BRANCH   4  14
ATOM     14  C   UNL     1      -4.432   3.564  26.330  0.00  0.00    +0.121 C 
BRANCH  14  16
ATOM      7  N   UNL     1      -0.670   3.868  26.044  0.00  0.00    -0.263 NA
ATOM     16  C   UNL     1      -3.076   4.038  25.880  0.00  0.00    -0.015 A 
ATOM     18  C   UNL     1      -2.947   5.041  24.926  0.00  0.00    +0.008 A 
ATOM     19  C   UNL     1      -1.917   3.488  26.405  0.00  0.00    +0.115 A 
ATOM     21  C   UNL     1      -1.680   5.458  24.530  0.00  0.00    +0.020 A 
ATOM     22  C   UNL     1      -0.584   4.845  25.114  0.00  0.00    +0.111 A 
ENDBRANCH  14  16
ENDBRANCH   4  14
ENDBRANCH  15  10
ENDBRANCH  20  17
BRANCH  26   9
ATOM      2  O   UNL     1       4.433  -1.562  24.155  0.00  0.00    -0.270 OA
ATOM      9  N   UNL     1       4.000   0.514  23.145  0.00  0.00    -0.266 N 
ATOM     27  C   UNL     1       4.804  -0.539  23.590  0.00  0.00    +0.249 C 
ATOM     35  H   UNL     1       4.428   1.291  22.650  0.00  0.00    +0.157 HD
BRANCH  27  28
ATOM     28  C   UNL     1       6.256  -0.389  23.313  0.00  0.00    +0.037 A 
ATOM     29  C   UNL     1       6.966   0.677  23.867  0.00  0.00    +0.016 A 
ATOM     30  C   UNL     1       6.910  -1.314  22.499  0.00  0.00    +0.016 A 
ATOM     31  C   UNL     1       8.329   0.817  23.606  0.00  0.00    +0.046 A 
ATOM     32  C   UNL     1       8.274  -1.173  22.238  0.00  0.00    +0.046 A 
ATOM     33  C   UNL     1       8.982  -0.107  22.792  0.00  0.00    +0.120 A 
BRANCH  33   3
ATOM      3  O   UNL     1      10.313   0.031  22.537  0.00  0.00    -0.495 OA
ATOM     34  C   UNL     1      10.723   1.216  21.857  0.00  0.00    +0.277 C 
ENDBRANCH  33   3
ENDBRANCH  27  28
ENDBRANCH  26   9
TORSDOF 7
ENDMDL
