MODEL 1
REMARK VINA RESULT:      -4.8      0.000      0.000
REMARK  Name = 45784284
REMARK  4 active torsions:
REMARK  status: ('A' for Active; 'I' for Inactive)
REMARK    1  A    between atoms: O_1  and  C_18
REMARK    2  A    between atoms: O_1  and  C_20
REMARK    3  A    between atoms: N_2  and  C_5
REMARK    4  A    between atoms: C_9  and  C_13
REMARK                            x       y       z     vdW  Elec       q    Type
REMARK                         _______ _______ _______ _____ _____    ______ ____
ROOT
ATOM      3  N   UNL     1      -4.573 -10.679  14.921  0.00  0.00    -0.341 N 
ATOM      4  N   UNL     1      -6.216 -10.352  13.460  0.00  0.00    -0.232 NA
ATOM     13  C   UNL     1      -5.922 -10.598  14.717  0.00  0.00    +0.113 A 
ATOM     14  C   UNL     1      -3.955 -10.472  13.714  0.00  0.00    +0.070 A 
ATOM     15  C   UNL     1      -5.001 -10.270  12.819  0.00  0.00    +0.089 A 
ATOM     16  C   UNL     1      -2.610 -10.444  13.341  0.00  0.00    +0.073 A 
ATOM     17  C   UNL     1      -4.708 -10.025  11.467  0.00  0.00    +0.033 A 
ATOM     18  C   UNL     1      -2.337 -10.199  11.992  0.00  0.00    +0.122 A 
ATOM     19  C   UNL     1      -3.365  -9.993  11.070  0.00  0.00    +0.048 A 
ATOM     21  H   UNL     1      -4.110 -10.859  15.802  0.00  0.00    +0.167 HD
ENDROOT
BRANCH  13   9
ATOM      2  N   UNL     1      -8.899  -9.945  16.755  0.00  0.00    -0.299 NA
ATOM      8  C   UNL     1      -8.337 -10.391  15.477  0.00  0.00    +0.096 C 
ATOM      9  C   UNL     1      -6.901 -10.780  15.855  0.00  0.00    +0.070 C 
ATOM     11  C   UNL     1      -7.849  -9.126  17.362  0.00  0.00    +0.085 C 
ATOM     12  C   UNL     1      -6.592  -9.950  17.113  0.00  0.00    +0.028 C 
BRANCH   2   5
ATOM      5  C   UNL     1     -10.117  -9.155  16.541  0.00  0.00    +0.057 C 
ATOM      6  C   UNL     1      -9.984  -7.794  17.254  0.00  0.00    +0.019 C 
ATOM      7  C   UNL     1     -10.006  -8.383  15.210  0.00  0.00    +0.019 C 
ATOM     10  C   UNL     1     -10.544  -7.152  15.968  0.00  0.00    +0.003 C 
ENDBRANCH   2   5
ENDBRANCH  13   9
BRANCH  18   1
ATOM      1  O   UNL     1      -1.040 -10.161  11.570  0.00  0.00    -0.495 OA
ATOM     20  C   UNL     1      -0.528  -8.892  11.168  0.00  0.00    +0.277 C 
ENDBRANCH  18   1
TORSDOF 3
ENDMDL
MODEL 2
REMARK VINA RESULT:      -4.6      2.673      7.031
REMARK  Name = 45784284
REMARK  4 active torsions:
REMARK  status: ('A' for Active; 'I' for Inactive)
REMARK    1  A    between atoms: O_1  and  C_18
REMARK    2  A    between atoms: O_1  and  C_20
REMARK    3  A    between atoms: N_2  and  C_5
REMARK    4  A    between atoms: C_9  and  C_13
REMARK                            x       y       z     vdW  Elec       q    Type
REMARK                         _______ _______ _______ _____ _____    ______ ____
ROOT
ATOM      3  N   UNL     1      -5.983 -10.060  14.349  0.00  0.00    -0.341 N 
ATOM      4  N   UNL     1      -8.112  -9.794  13.765  0.00  0.00    -0.232 NA
ATOM     13  C   UNL     1      -6.879  -9.924  13.326  0.00  0.00    +0.113 A 
ATOM     14  C   UNL     1      -6.684 -10.014  15.527  0.00  0.00    +0.070 A 
ATOM     15  C   UNL     1      -8.009  -9.848  15.136  0.00  0.00    +0.089 A 
ATOM     16  C   UNL     1      -6.284 -10.101  16.861  0.00  0.00    +0.073 A 
ATOM     17  C   UNL     1      -9.008  -9.761  16.120  0.00  0.00    +0.033 A 
ATOM     18  C   UNL     1      -7.291 -10.013  17.827  0.00  0.00    +0.122 A 
ATOM     19  C   UNL     1      -8.629  -9.846  17.466  0.00  0.00    +0.048 A 
ATOM     21  H   UNL     1      -4.982 -10.174  14.258  0.00  0.00    +0.167 HD
ENDROOT
BRANCH  13   9
ATOM      2  N   UNL     1      -4.526  -9.988  10.515  0.00  0.00    -0.299 NA
ATOM      8  C   UNL     1      -5.105 -10.677  11.672  0.00  0.00    +0.096 C 
ATOM      9  C   UNL     1      -6.431  -9.933  11.882  0.00  0.00    +0.070 C 
ATOM     11  C   UNL     1      -4.759  -8.565  10.771  0.00  0.00    +0.085 C 
ATOM     12  C   UNL     1      -6.199  -8.542  11.268  0.00  0.00    +0.028 C 
BRANCH   2   5
ATOM      5  C   UNL     1      -3.090 -10.269  10.405  0.00  0.00    +0.057 C 
ATOM      6  C   UNL     1      -2.295  -8.952  10.507  0.00  0.00    +0.019 C 
ATOM      7  C   UNL     1      -2.526 -10.629  11.795  0.00  0.00    +0.019 C 
ATOM     10  C   UNL     1      -1.345  -9.689  11.474  0.00  0.00    +0.003 C 
ENDBRANCH   2   5
ENDBRANCH  13   9
BRANCH  18   1
ATOM      1  O   UNL     1      -6.957 -10.092  19.148  0.00  0.00    -0.495 OA
ATOM     20  C   UNL     1      -5.751 -10.781  19.470  0.00  0.00    +0.277 C 
ENDBRANCH  18   1
TORSDOF 3
ENDMDL
MODEL 3
REMARK VINA RESULT:      -3.9     15.120     16.096
REMARK  Name = 45784284
REMARK  4 active torsions:
REMARK  status: ('A' for Active; 'I' for Inactive)
REMARK    1  A    between atoms: O_1  and  C_18
REMARK    2  A    between atoms: O_1  and  C_20
REMARK    3  A    between atoms: N_2  and  C_5
REMARK    4  A    between atoms: C_9  and  C_13
REMARK                            x       y       z     vdW  Elec       q    Type
REMARK                         _______ _______ _______ _____ _____    ______ ____
ROOT
ATOM      3  N   UNL     1       0.780   2.249  24.781  0.00  0.00    -0.341 N 
ATOM      4  N   UNL     1      -0.833   0.984  23.921  0.00  0.00    -0.232 NA
ATOM     13  C   UNL     1      -0.554   1.951  24.768  0.00  0.00    +0.113 A 
ATOM     14  C   UNL     1       1.403   1.420  23.884  0.00  0.00    +0.070 A 
ATOM     15  C   UNL     1       0.376   0.641  23.361  0.00  0.00    +0.089 A 
ATOM     16  C   UNL     1       2.738   1.290  23.497  0.00  0.00    +0.073 A 
ATOM     17  C   UNL     1       0.679  -0.332  22.393  0.00  0.00    +0.033 A 
ATOM     18  C   UNL     1       3.021   0.317  22.534  0.00  0.00    +0.122 A 
ATOM     19  C   UNL     1       2.012  -0.480  21.990  0.00  0.00    +0.048 A 
ATOM     21  H   UNL     1       1.230   2.955  25.349  0.00  0.00    +0.167 HD
ENDROOT
BRANCH  13   9
ATOM      2  N   UNL     1      -3.765   3.398  25.783  0.00  0.00    -0.299 NA
ATOM      8  C   UNL     1      -2.978   2.198  25.482  0.00  0.00    +0.096 C 
ATOM      9  C   UNL     1      -1.534   2.690  25.650  0.00  0.00    +0.070 C 
ATOM     11  C   UNL     1      -3.072   4.485  25.091  0.00  0.00    +0.085 C 
ATOM     12  C   UNL     1      -1.608   4.207  25.405  0.00  0.00    +0.028 C 
BRANCH   2   5
ATOM      5  C   UNL     1      -5.140   3.257  25.287  0.00  0.00    +0.057 C 
ATOM      6  C   UNL     1      -5.210   2.091  24.281  0.00  0.00    +0.019 C 
ATOM      7  C   UNL     1      -5.951   2.372  26.255  0.00  0.00    +0.019 C 
ATOM     10  C   UNL     1      -6.494   1.642  25.009  0.00  0.00    +0.003 C 
ENDBRANCH   2   5
ENDBRANCH  13   9
BRANCH  18   1
ATOM      1  O   UNL     1       4.309   0.146  22.118  0.00  0.00    -0.495 OA
ATOM     20  C   UNL     1       5.319   0.136  23.125  0.00  0.00    +0.277 C 
ENDBRANCH  18   1
TORSDOF 3
ENDMDL
MODEL 4
REMARK VINA RESULT:      -3.5      4.905      7.547
REMARK  Name = 45784284
REMARK  4 active torsions:
REMARK  status: ('A' for Active; 'I' for Inactive)
REMARK    1  A    between atoms: O_1  and  C_18
REMARK    2  A    between atoms: O_1  and  C_20
REMARK    3  A    between atoms: N_2  and  C_5
REMARK    4  A    between atoms: C_9  and  C_13
REMARK                            x       y       z     vdW  Elec       q    Type
REMARK                         _______ _______ _______ _____ _____    ______ ____
ROOT
ATOM      3  N   UNL     1      -6.618  -8.614   9.560  0.00  0.00    -0.341 N 
ATOM      4  N   UNL     1      -7.657 -10.574   9.417  0.00  0.00    -0.232 NA
ATOM     13  C   UNL     1      -6.527  -9.970   9.710  0.00  0.00    +0.113 A 
ATOM     14  C   UNL     1      -7.892  -8.325   9.142  0.00  0.00    +0.070 A 
ATOM     15  C   UNL     1      -8.520  -9.564   9.061  0.00  0.00    +0.089 A 
ATOM     16  C   UNL     1      -8.529  -7.121   8.838  0.00  0.00    +0.073 A 
ATOM     17  C   UNL     1      -9.863  -9.626   8.653  0.00  0.00    +0.033 A 
ATOM     18  C   UNL     1      -9.865  -7.201   8.434  0.00  0.00    +0.122 A 
ATOM     19  C   UNL     1     -10.523  -8.429   8.343  0.00  0.00    +0.048 A 
ATOM     21  H   UNL     1      -5.881  -7.942   9.727  0.00  0.00    +0.167 HD
ENDROOT
BRANCH  13   9
ATOM      2  N   UNL     1      -3.530 -10.477  11.760  0.00  0.00    -0.299 NA
ATOM      8  C   UNL     1      -4.993 -10.470  11.672  0.00  0.00    +0.096 C 
ATOM      9  C   UNL     1      -5.243 -10.625  10.165  0.00  0.00    +0.070 C 
ATOM     11  C   UNL     1      -3.084  -9.627  10.656  0.00  0.00    +0.085 C 
ATOM     12  C   UNL     1      -3.968 -10.079   9.501  0.00  0.00    +0.028 C 
BRANCH   2   5
ATOM      5  C   UNL     1      -3.083  -9.936  13.049  0.00  0.00    +0.057 C 
ATOM      6  C   UNL     1      -3.937 -10.533  14.186  0.00  0.00    +0.019 C 
ATOM      7  C   UNL     1      -1.911 -10.781  13.587  0.00  0.00    +0.019 C 
ATOM     10  C   UNL     1      -2.619 -10.750  14.957  0.00  0.00    +0.003 C 
ENDBRANCH   2   5
ENDBRANCH  13   9
BRANCH  18   1
ATOM      1  O   UNL     1     -10.538  -6.056   8.124  0.00  0.00    -0.495 OA
ATOM     20  C   UNL     1     -10.296  -4.919   8.951  0.00  0.00    +0.277 C 
ENDBRANCH  18   1
TORSDOF 3
ENDMDL
MODEL 5
REMARK VINA RESULT:      -3.1     15.405     17.539
REMARK  Name = 45784284
REMARK  4 active torsions:
REMARK  status: ('A' for Active; 'I' for Inactive)
REMARK    1  A    between atoms: O_1  and  C_18
REMARK    2  A    between atoms: O_1  and  C_20
REMARK    3  A    between atoms: N_2  and  C_5
REMARK    4  A    between atoms: C_9  and  C_13
REMARK                            x       y       z     vdW  Elec       q    Type
REMARK                         _______ _______ _______ _____ _____    ______ ____
ROOT
ATOM      3  N   UNL     1      -1.608   0.702  23.968  0.00  0.00    -0.341 N 
ATOM      4  N   UNL     1       0.142   1.998  24.419  0.00  0.00    -0.232 NA
ATOM     13  C   UNL     1      -0.248   0.836  23.942  0.00  0.00    +0.113 A 
ATOM     14  C   UNL     1      -2.131   1.854  24.498  0.00  0.00    +0.070 A 
ATOM     15  C   UNL     1      -1.020   2.646  24.770  0.00  0.00    +0.089 A 
ATOM     16  C   UNL     1      -3.442   2.258  24.753  0.00  0.00    +0.073 A 
ATOM     17  C   UNL     1      -1.208   3.920  25.332  0.00  0.00    +0.033 A 
ATOM     18  C   UNL     1      -3.611   3.529  25.312  0.00  0.00    +0.122 A 
ATOM     19  C   UNL     1      -2.516   4.346  25.596  0.00  0.00    +0.048 A 
ATOM     21  H   UNL     1      -2.137  -0.101  23.654  0.00  0.00    +0.167 HD
ENDROOT
BRANCH  13   9
ATOM      2  N   UNL     1       2.810  -0.712  22.640  0.00  0.00    -0.299 NA
ATOM      8  C   UNL     1       2.122  -0.060  23.758  0.00  0.00    +0.096 C 
ATOM      9  C   UNL     1       0.641  -0.266  23.410  0.00  0.00    +0.070 C 
ATOM     11  C   UNL     1       2.072  -0.289  21.448  0.00  0.00    +0.085 C 
ATOM     12  C   UNL     1       0.619  -0.432  21.881  0.00  0.00    +0.028 C 
BRANCH   2   5
ATOM      5  C   UNL     1       4.210  -0.278  22.566  0.00  0.00    +0.057 C 
ATOM      6  C   UNL     1       4.344   1.142  23.153  0.00  0.00    +0.019 C 
ATOM      7  C   UNL     1       4.974  -0.781  23.809  0.00  0.00    +0.019 C 
ATOM     10  C   UNL     1       5.589   0.630  23.907  0.00  0.00    +0.003 C 
ENDBRANCH   2   5
ENDBRANCH  13   9
BRANCH  18   1
ATOM      1  O   UNL     1      -4.871   3.976  25.582  0.00  0.00    -0.495 OA
ATOM     20  C   UNL     1      -5.890   2.989  25.731  0.00  0.00    +0.277 C 
ENDBRANCH  18   1
TORSDOF 3
ENDMDL
MODEL 6
REMARK VINA RESULT:      -3.0     25.299     26.915
REMARK  Name = 45784284
REMARK  4 active torsions:
REMARK  status: ('A' for Active; 'I' for Inactive)
REMARK    1  A    between atoms: O_1  and  C_18
REMARK    2  A    between atoms: O_1  and  C_20
REMARK    3  A    between atoms: N_2  and  C_5
REMARK    4  A    between atoms: C_9  and  C_13
REMARK                            x       y       z     vdW  Elec       q    Type
REMARK                         _______ _______ _______ _____ _____    ______ ____
ROOT
ATOM      3  N   UNL     1      15.235  -6.278  28.439  0.00  0.00    -0.341 N 
ATOM      4  N   UNL     1      17.037  -7.018  29.510  0.00  0.00    -0.232 NA
ATOM     13  C   UNL     1      16.588  -6.473  28.401  0.00  0.00    +0.113 A 
ATOM     14  C   UNL     1      14.782  -6.726  29.653  0.00  0.00    +0.070 A 
ATOM     15  C   UNL     1      15.925  -7.182  30.303  0.00  0.00    +0.089 A 
ATOM     16  C   UNL     1      13.508  -6.770  30.220  0.00  0.00    +0.073 A 
ATOM     17  C   UNL     1      15.809  -7.718  31.597  0.00  0.00    +0.033 A 
ATOM     18  C   UNL     1      13.411  -7.305  31.509  0.00  0.00    +0.122 A 
ATOM     19  C   UNL     1      14.539  -7.771  32.186  0.00  0.00    +0.048 A 
ATOM     21  H   UNL     1      14.668  -5.875  27.705  0.00  0.00    +0.167 HD
ENDROOT
BRANCH  13   9
ATOM      2  N   UNL     1      17.340  -4.814  25.220  0.00  0.00    -0.299 NA
ATOM      8  C   UNL     1      17.047  -4.691  26.650  0.00  0.00    +0.096 C 
ATOM      9  C   UNL     1      17.405  -6.082  27.191  0.00  0.00    +0.070 C 
ATOM     11  C   UNL     1      16.804  -6.122  24.838  0.00  0.00    +0.085 C 
ATOM     12  C   UNL     1      17.258  -7.020  25.981  0.00  0.00    +0.028 C 
BRANCH   2   5
ATOM      5  C   UNL     1      16.687  -3.741  24.460  0.00  0.00    +0.057 C 
ATOM      6  C   UNL     1      17.346  -2.390  24.802  0.00  0.00    +0.019 C 
ATOM      7  C   UNL     1      17.341  -3.621  23.068  0.00  0.00    +0.019 C 
ATOM     10  C   UNL     1      17.348  -2.094  23.288  0.00  0.00    +0.003 C 
ENDBRANCH   2   5
ENDBRANCH  13   9
BRANCH  18   1
ATOM      1  O   UNL     1      12.190  -7.373  32.113  0.00  0.00    -0.495 OA
ATOM     20  C   UNL     1      11.565  -6.135  32.447  0.00  0.00    +0.277 C 
ENDBRANCH  18   1
TORSDOF 3
ENDMDL
MODEL 7
REMARK VINA RESULT:      -2.8      3.209      6.308
REMARK  Name = 45784284
REMARK  4 active torsions:
REMARK  status: ('A' for Active; 'I' for Inactive)
REMARK    1  A    between atoms: O_1  and  C_18
REMARK    2  A    between atoms: O_1  and  C_20
REMARK    3  A    between atoms: N_2  and  C_5
REMARK    4  A    between atoms: C_9  and  C_13
REMARK                            x       y       z     vdW  Elec       q    Type
REMARK                         _______ _______ _______ _____ _____    ______ ____
ROOT
ATOM      3  N   UNL     1      -6.837 -10.731  13.846  0.00  0.00    -0.341 N 
ATOM      4  N   UNL     1      -8.942 -10.671  14.560  0.00  0.00    -0.232 NA
ATOM     13  C   UNL     1      -8.160 -10.725  13.504  0.00  0.00    +0.113 A 
ATOM     14  C   UNL     1      -6.759 -10.676  15.214  0.00  0.00    +0.070 A 
ATOM     15  C   UNL     1      -8.085 -10.640  15.636  0.00  0.00    +0.089 A 
ATOM     16  C   UNL     1      -5.674 -10.656  16.092  0.00  0.00    +0.073 A 
ATOM     17  C   UNL     1      -8.365 -10.579  17.011  0.00  0.00    +0.033 A 
ATOM     18  C   UNL     1      -5.971 -10.596  17.457  0.00  0.00    +0.122 A 
ATOM     19  C   UNL     1      -7.291 -10.558  17.911  0.00  0.00    +0.048 A 
ATOM     21  H   UNL     1      -6.053 -10.769  13.208  0.00  0.00    +0.167 HD
ENDROOT
BRANCH  13   9
ATOM      2  N   UNL     1      -7.994 -10.107   9.894  0.00  0.00    -0.299 NA
ATOM      8  C   UNL     1      -7.420 -10.760  11.074  0.00  0.00    +0.096 C 
ATOM      9  C   UNL     1      -8.598 -10.779  12.058  0.00  0.00    +0.070 C 
ATOM     11  C   UNL     1      -8.774  -8.989  10.425  0.00  0.00    +0.085 C 
ATOM     12  C   UNL     1      -9.498  -9.614  11.611  0.00  0.00    +0.028 C 
BRANCH   2   5
ATOM      5  C   UNL     1      -6.936  -9.625   8.999  0.00  0.00    +0.057 C 
ATOM      6  C   UNL     1      -5.999  -8.674   9.770  0.00  0.00    +0.019 C 
ATOM      7  C   UNL     1      -5.771 -10.637   8.982  0.00  0.00    +0.019 C 
ATOM     10  C   UNL     1      -4.822  -9.429   9.117  0.00  0.00    +0.003 C 
ENDBRANCH   2   5
ENDBRANCH  13   9
BRANCH  18   1
ATOM      1  O   UNL     1      -4.950 -10.574  18.362  0.00  0.00    -0.495 OA
ATOM     20  C   UNL     1      -3.633 -10.779  17.855  0.00  0.00    +0.277 C 
ENDBRANCH  18   1
TORSDOF 3
ENDMDL
MODEL 8
REMARK VINA RESULT:      -2.7      3.509      6.946
REMARK  Name = 45784284
REMARK  4 active torsions:
REMARK  status: ('A' for Active; 'I' for Inactive)
REMARK    1  A    between atoms: O_1  and  C_18
REMARK    2  A    between atoms: O_1  and  C_20
REMARK    3  A    between atoms: N_2  and  C_5
REMARK    4  A    between atoms: C_9  and  C_13
REMARK                            x       y       z     vdW  Elec       q    Type
REMARK                         _______ _______ _______ _____ _____    ______ ____
ROOT
ATOM      3  N   UNL     1      -8.049 -10.711  15.106  0.00  0.00    -0.341 N 
ATOM      4  N   UNL     1     -10.253 -10.428  15.154  0.00  0.00    -0.232 NA
ATOM     13  C   UNL     1      -9.200 -10.581  14.381  0.00  0.00    +0.113 A 
ATOM     14  C   UNL     1      -8.381 -10.637  16.435  0.00  0.00    +0.070 A 
ATOM     15  C   UNL     1      -9.761 -10.460  16.438  0.00  0.00    +0.089 A 
ATOM     16  C   UNL     1      -7.614 -10.707  17.599  0.00  0.00    +0.073 A 
ATOM     17  C   UNL     1     -10.434 -10.345  17.666  0.00  0.00    +0.033 A 
ATOM     18  C   UNL     1      -8.300 -10.591  18.812  0.00  0.00    +0.122 A 
ATOM     19  C   UNL     1      -9.684 -10.413  18.847  0.00  0.00    +0.048 A 
ATOM     21  H   UNL     1      -7.118 -10.840  14.733  0.00  0.00    +0.167 HD
ENDROOT
BRANCH  13   9
ATOM      2  N   UNL     1      -7.877 -10.095  10.997  0.00  0.00    -0.299 NA
ATOM      8  C   UNL     1      -7.775 -10.781  12.288  0.00  0.00    +0.096 C 
ATOM      9  C   UNL     1      -9.187 -10.620  12.870  0.00  0.00    +0.070 C 
ATOM     11  C   UNL     1      -8.626  -8.870  11.281  0.00  0.00    +0.085 C 
ATOM     12  C   UNL     1      -9.748  -9.362  12.186  0.00  0.00    +0.028 C 
BRANCH   2   5
ATOM      5  C   UNL     1      -6.544  -9.780  10.468  0.00  0.00    +0.057 C 
ATOM      6  C   UNL     1      -6.527  -8.332   9.938  0.00  0.00    +0.019 C 
ATOM      7  C   UNL     1      -5.635  -9.290  11.615  0.00  0.00    +0.019 C 
ATOM     10  C   UNL     1      -5.178  -8.163  10.667  0.00  0.00    +0.003 C 
ENDBRANCH   2   5
ENDBRANCH  13   9
BRANCH  18   1
ATOM      1  O   UNL     1      -7.601 -10.652  19.982  0.00  0.00    -0.495 OA
ATOM     20  C   UNL     1      -6.186 -10.499  19.899  0.00  0.00    +0.277 C 
ENDBRANCH  18   1
TORSDOF 3
ENDMDL
MODEL 9
REMARK VINA RESULT:      -2.1     14.235     15.168
REMARK  Name = 45784284
REMARK  4 active torsions:
REMARK  status: ('A' for Active; 'I' for Inactive)
REMARK    1  A    between atoms: O_1  and  C_18
REMARK    2  A    between atoms: O_1  and  C_20
REMARK    3  A    between atoms: N_2  and  C_5
REMARK    4  A    between atoms: C_9  and  C_13
REMARK                            x       y       z     vdW  Elec       q    Type
REMARK                         _______ _______ _______ _____ _____    ______ ____
ROOT
ATOM      3  N   UNL     1      -0.282  -0.950  23.458  0.00  0.00    -0.341 N 
ATOM      4  N   UNL     1      -0.742   1.165  23.964  0.00  0.00    -0.232 NA
ATOM     13  C   UNL     1      -1.232  -0.050  23.853  0.00  0.00    +0.113 A 
ATOM     14  C   UNL     1       0.900  -0.271  23.304  0.00  0.00    +0.070 A 
ATOM     15  C   UNL     1       0.586   1.046  23.625  0.00  0.00    +0.089 A 
ATOM     16  C   UNL     1       2.177  -0.684  22.922  0.00  0.00    +0.073 A 
ATOM     17  C   UNL     1       1.594   2.024  23.568  0.00  0.00    +0.033 A 
ATOM     18  C   UNL     1       3.167   0.302  22.870  0.00  0.00    +0.122 A 
ATOM     19  C   UNL     1       2.883   1.632  23.187  0.00  0.00    +0.048 A 
ATOM     21  H   UNL     1      -0.421  -1.941  23.307  0.00  0.00    +0.167 HD
ENDROOT
BRANCH  13   9
ATOM      2  N   UNL     1      -4.786   0.344  24.661  0.00  0.00    -0.299 NA
ATOM      8  C   UNL     1      -3.684   0.597  23.728  0.00  0.00    +0.096 C 
ATOM      9  C   UNL     1      -2.658  -0.477  24.115  0.00  0.00    +0.070 C 
ATOM     11  C   UNL     1      -4.137   0.107  25.952  0.00  0.00    +0.085 C 
ATOM     12  C   UNL     1      -2.975  -0.807  25.584  0.00  0.00    +0.028 C 
BRANCH   2   5
ATOM      5  C   UNL     1      -5.683   1.503  24.734  0.00  0.00    +0.057 C 
ATOM      6  C   UNL     1      -5.806   1.971  26.198  0.00  0.00    +0.019 C 
ATOM      7  C   UNL     1      -4.883   2.795  24.468  0.00  0.00    +0.019 C 
ATOM     10  C   UNL     1      -5.624   3.410  25.673  0.00  0.00    +0.003 C 
ENDBRANCH   2   5
ENDBRANCH  13   9
BRANCH  18   1
ATOM      1  O   UNL     1       4.434  -0.045  22.503  0.00  0.00    -0.495 OA
ATOM     20  C   UNL     1       5.449   0.063  23.500  0.00  0.00    +0.277 C 
ENDBRANCH  18   1
TORSDOF 3
ENDMDL
MODEL 10
REMARK VINA RESULT:      -1.9     24.874     26.227
REMARK  Name = 45784284
REMARK  4 active torsions:
REMARK  status: ('A' for Active; 'I' for Inactive)
REMARK    1  A    between atoms: O_1  and  C_18
REMARK    2  A    between atoms: O_1  and  C_20
REMARK    3  A    between atoms: N_2  and  C_5
REMARK    4  A    between atoms: C_9  and  C_13
REMARK                            x       y       z     vdW  Elec       q    Type
REMARK                         _______ _______ _______ _____ _____    ______ ____
ROOT
ATOM      3  N   UNL     1      14.225  -7.613  29.352  0.00  0.00    -0.341 N 
ATOM      4  N   UNL     1      14.417  -9.559  30.409  0.00  0.00    -0.232 NA
ATOM     13  C   UNL     1      14.835  -8.835  29.394  0.00  0.00    +0.113 A 
ATOM     14  C   UNL     1      13.356  -7.542  30.410  0.00  0.00    +0.070 A 
ATOM     15  C   UNL     1      13.495  -8.768  31.055  0.00  0.00    +0.089 A 
ATOM     16  C   UNL     1      12.487  -6.541  30.846  0.00  0.00    +0.073 A 
ATOM     17  C   UNL     1      12.729  -9.028  32.204  0.00  0.00    +0.033 A 
ATOM     18  C   UNL     1      11.733  -6.817  31.991  0.00  0.00    +0.122 A 
ATOM     19  C   UNL     1      11.850  -8.037  32.659  0.00  0.00    +0.048 A 
ATOM     21  H   UNL     1      14.384  -6.887  28.665  0.00  0.00    +0.167 HD
ENDROOT
BRANCH  13   9
ATOM      2  N   UNL     1      16.998  -8.474  26.456  0.00  0.00    -0.299 NA
ATOM      8  C   UNL     1      16.664  -8.047  27.818  0.00  0.00    +0.096 C 
ATOM      9  C   UNL     1      15.861  -9.238  28.359  0.00  0.00    +0.070 C 
ATOM     11  C   UNL     1      15.766  -9.072  25.937  0.00  0.00    +0.085 C 
ATOM     12  C   UNL     1      15.283  -9.920  27.107  0.00  0.00    +0.028 C 
BRANCH   2   5
ATOM      5  C   UNL     1      17.405  -7.327  25.636  0.00  0.00    +0.057 C 
ATOM      6  C   UNL     1      16.184  -6.776  24.872  0.00  0.00    +0.019 C 
ATOM      7  C   UNL     1      17.359  -6.041  26.486  0.00  0.00    +0.019 C 
ATOM     10  C   UNL     1      16.656  -5.367  25.289  0.00  0.00    +0.003 C 
ENDBRANCH   2   5
ENDBRANCH  13   9
BRANCH  18   1
ATOM      1  O   UNL     1      10.867  -5.874  32.462  0.00  0.00    -0.495 OA
ATOM     20  C   UNL     1      11.427  -4.629  32.873  0.00  0.00    +0.277 C 
ENDBRANCH  18   1
TORSDOF 3
ENDMDL
