MODEL 1
REMARK VINA RESULT:       1.2      0.000      0.000
REMARK  Name = 51136906
REMARK  7 active torsions:
REMARK  status: ('A' for Active; 'I' for Inactive)
REMARK    1  A    between atoms: O_2  and  C_26
REMARK    2  A    between atoms: N_4  and  C_14
REMARK    3  A    between atoms: C_10  and  C_15
REMARK    4  A    between atoms: C_14  and  C_16
REMARK    5  A    between atoms: C_19  and  C_22
REMARK    6  A    between atoms: C_23  and  C_26
REMARK    7  A    between atoms: C_28  and  C_29
REMARK                            x       y       z     vdW  Elec       q    Type
REMARK                         _______ _______ _______ _____ _____    ______ ____
ROOT
ATOM      1  O   UNL     1      -3.623   2.729  22.338  0.00  0.00    -0.336 OA
ATOM      5  N   UNL     1      -2.607   1.925  24.165  0.00  0.00    -0.190 NA
ATOM      6  N   UNL     1      -2.342   2.334  21.930  0.00  0.00    -0.056 NA
ATOM     15  C   UNL     1      -3.696   2.454  23.667  0.00  0.00    +0.245 A 
ATOM     19  C   UNL     1      -1.805   1.871  23.062  0.00  0.00    +0.204 A 
ENDROOT
BRANCH  19  22
ATOM      7  N   UNL     1       1.814   1.604  23.873  0.00  0.00    -0.254 NA
ATOM     22  C   UNL     1      -0.470   1.347  23.126  0.00  0.00    +0.041 A 
ATOM     24  C   UNL     1      -0.150   0.130  22.536  0.00  0.00    +0.015 A 
ATOM     25  C   UNL     1       0.538   2.040  23.776  0.00  0.00    +0.123 A 
ATOM     27  C   UNL     1       1.152  -0.352  22.614  0.00  0.00    +0.029 A 
ATOM     28  C   UNL     1       2.088   0.416  23.288  0.00  0.00    +0.074 A 
BRANCH  28  29
ATOM      8  N   UNL     1       5.056  -1.747  23.929  0.00  0.00    -0.243 NA
ATOM      9  N   UNL     1       5.816   0.438  23.252  0.00  0.00    -0.243 NA
ATOM     29  C   UNL     1       3.459  -0.022  23.410  0.00  0.00    +0.037 A 
ATOM     30  C   UNL     1       3.788  -1.304  23.802  0.00  0.00    +0.124 A 
ATOM     31  C   UNL     1       4.525   0.813  23.146  0.00  0.00    +0.124 A 
ATOM     32  C   UNL     1       6.007  -0.837  23.643  0.00  0.00    +0.221 A 
ENDBRANCH  28  29
ENDBRANCH  19  22
BRANCH  15  10
ATOM      4  N   UNL     1      -5.114   2.177  25.692  0.00  0.00    -0.287 NA
ATOM     10  C   UNL     1      -5.000   2.795  24.356  0.00  0.00    +0.146 C 
ATOM     11  C   UNL     1      -5.163   4.305  24.607  0.00  0.00    +0.030 C 
ATOM     12  C   UNL     1      -5.425   4.434  26.101  0.00  0.00    +0.017 C 
ATOM     13  C   UNL     1      -5.957   3.069  26.488  0.00  0.00    +0.085 C 
BRANCH   4  14
ATOM     14  C   UNL     1      -5.636   0.817  25.654  0.00  0.00    +0.120 C 
BRANCH  14  16
ATOM     16  C   UNL     1      -4.570  -0.183  25.291  0.00  0.00    -0.033 A 
ATOM     17  C   UNL     1      -3.458  -0.347  26.117  0.00  0.00    +0.006 A 
ATOM     18  C   UNL     1      -4.695  -0.945  24.129  0.00  0.00    +0.006 A 
ATOM     20  C   UNL     1      -2.470  -1.272  25.780  0.00  0.00    +0.015 A 
ATOM     21  C   UNL     1      -3.707  -1.870  23.793  0.00  0.00    +0.015 A 
ATOM     23  C   UNL     1      -2.595  -2.034  24.618  0.00  0.00    +0.059 A 
BRANCH  23  26
ATOM      3  O   UNL     1      -1.595  -3.753  23.289  0.00  0.00    -0.245 OA
ATOM     26  C   UNL     1      -1.566  -3.000  24.267  0.00  0.00    +0.337 C 
BRANCH  26   2
ATOM      2  O   UNL     1      -0.529  -2.999  25.149  0.00  0.00    -0.477 OA
ATOM     33  H   UNL     1      -0.751  -2.518  25.973  0.00  0.00    +0.295 HD
ENDBRANCH  26   2
ENDBRANCH  23  26
ENDBRANCH  14  16
ENDBRANCH   4  14
ENDBRANCH  15  10
TORSDOF 7
ENDMDL
