MODEL 1
REMARK VINA RESULT:      16.6      0.000      0.000
REMARK  Name = 11882862
REMARK  10 active torsions:
REMARK  status: ('A' for Active; 'I' for Inactive)
REMARK    1  A    between atoms: O_3  and  C_15
REMARK    2  A    between atoms: O_4  and  C_20
REMARK    3  A    between atoms: N_8  and  C_26
REMARK    4  A    between atoms: C_10  and  C_18
REMARK    5  A    between atoms: C_12  and  C_20
REMARK    6  A    between atoms: C_12  and  C_21
REMARK    7  A    between atoms: C_13  and  C_23
REMARK    8  A    between atoms: C_23  and  C_24
REMARK    9  A    between atoms: C_26  and  C_28
REMARK   10  A    between atoms: C_27  and  C_29
REMARK                            x       y       z     vdW  Elec       q    Type
REMARK                         _______ _______ _______ _____ _____    ______ ____
ROOT
ATOM      1  S   UNL     1       0.595   2.194  25.912  0.00  0.00    -0.057 S 
ATOM      6  O   UNL     1       2.398   0.830  21.843  0.00  0.00    -0.270 OA
ATOM      7  N   UNL     1       0.098   1.854  23.396  0.00  0.00    -0.229 NA
ATOM      9  N   UNL     1       2.321   1.305  24.151  0.00  0.00    -0.261 N 
ATOM     10  C   UNL     1      -3.584   2.724  24.138  0.00  0.00    -0.019 C 
ATOM     11  C   UNL     1      -3.195   3.700  25.336  0.00  0.00    +0.011 C 
ATOM     12  C   UNL     1      -4.382   4.317  26.170  0.00  0.00    +0.021 C 
ATOM     13  C   UNL     1      -2.309   2.579  23.186  0.00  0.00    +0.054 C 
ATOM     14  C   UNL     1      -4.739   3.354  23.315  0.00  0.00    +0.010 C 
ATOM     15  C   UNL     1      -5.466   4.858  25.196  0.00  0.00    +0.123 C 
ATOM     16  C   UNL     1      -2.057   3.097  26.212  0.00  0.00    +0.049 C 
ATOM     17  C   UNL     1      -5.911   3.830  24.162  0.00  0.00    +0.032 C 
ATOM     18  C   UNL     1      -4.028   1.322  24.624  0.00  0.00    +0.012 C 
ATOM     19  C   UNL     1      -1.060   2.322  23.990  0.00  0.00    +0.058 A 
ATOM     21  C   UNL     1      -3.849   5.528  26.989  0.00  0.00    +0.016 C 
ATOM     22  C   UNL     1      -0.963   2.579  25.342  0.00  0.00    +0.015 A 
ATOM     25  C   UNL     1       1.033   1.741  24.315  0.00  0.00    +0.165 A 
ATOM     27  C   UNL     1       2.919   0.884  22.951  0.00  0.00    +0.250 C 
ATOM     43  H   UNL     1       2.874   1.345  25.001  0.00  0.00    +0.157 HD
ENDROOT
BRANCH  27  29
ATOM      2  F   UNL     1       8.320  -0.600  23.350  0.00  0.00    -0.205 F 
ATOM     29  C   UNL     1       4.348   0.491  23.057  0.00  0.00    +0.037 A 
ATOM     32  C   UNL     1       4.960  -0.208  22.015  0.00  0.00    +0.016 A 
ATOM     33  C   UNL     1       5.080   0.820  24.198  0.00  0.00    +0.016 A 
ATOM     37  C   UNL     1       6.301  -0.576  22.114  0.00  0.00    +0.039 A 
ATOM     38  C   UNL     1       6.422   0.452  24.298  0.00  0.00    +0.039 A 
ATOM     39  C   UNL     1       7.032  -0.246  23.256  0.00  0.00    +0.123 A 
ENDBRANCH  27  29
BRANCH  15   3
ATOM      3  O   UNL     1      -6.612   5.307  25.919  0.00  0.00    -0.391 OA
ATOM     40  H   UNL     1      -7.182   4.536  26.077  0.00  0.00    +0.210 HD
ENDBRANCH  15   3
BRANCH  12  20
ATOM     20  C   UNL     1      -5.003   3.357  27.209  0.00  0.00    +0.165 C 
BRANCH  20   4
ATOM      4  O   UNL     1      -6.123   2.743  26.613  0.00  0.00    -0.394 OA
ATOM     41  H   UNL     1      -6.321   3.230  25.795  0.00  0.00    +0.209 HD
ENDBRANCH  20   4
ENDBRANCH  12  20
BRANCH  13  23
ATOM     23  C   UNL     1      -2.470   1.553  22.056  0.00  0.00    +0.106 C 
BRANCH  23  24
ATOM      5  O   UNL     1      -3.490  -0.548  22.689  0.00  0.00    -0.276 OA
ATOM      8  N   UNL     1      -1.191  -0.278  22.903  0.00  0.00    -0.311 N 
ATOM     24  C   UNL     1      -2.475   0.134  22.576  0.00  0.00    +0.214 C 
ATOM     42  H   UNL     1      -0.419   0.372  22.790  0.00  0.00    +0.149 HD
BRANCH   8  26
ATOM     26  C   UNL     1      -0.894  -1.591  23.428  0.00  0.00    +0.139 C 
BRANCH  26  28
ATOM     28  C   UNL     1      -1.752  -1.930  24.613  0.00  0.00    -0.030 A 
ATOM     30  C   UNL     1      -2.611  -3.028  24.560  0.00  0.00    +0.005 A 
ATOM     31  C   UNL     1      -1.691  -1.146  25.765  0.00  0.00    +0.005 A 
ATOM     34  C   UNL     1      -3.408  -3.342  25.661  0.00  0.00    +0.000 A 
ATOM     35  C   UNL     1      -2.488  -1.461  26.866  0.00  0.00    +0.000 A 
ATOM     36  C   UNL     1      -3.347  -2.559  26.813  0.00  0.00    +0.000 A 
ENDBRANCH  26  28
ENDBRANCH   8  26
ENDBRANCH  23  24
ENDBRANCH  13  23
TORSDOF 8
ENDMDL
MODEL 2
REMARK VINA RESULT:      17.7      2.014      4.748
REMARK  Name = 11882862
REMARK  10 active torsions:
REMARK  status: ('A' for Active; 'I' for Inactive)
REMARK    1  A    between atoms: O_3  and  C_15
REMARK    2  A    between atoms: O_4  and  C_20
REMARK    3  A    between atoms: N_8  and  C_26
REMARK    4  A    between atoms: C_10  and  C_18
REMARK    5  A    between atoms: C_12  and  C_20
REMARK    6  A    between atoms: C_12  and  C_21
REMARK    7  A    between atoms: C_13  and  C_23
REMARK    8  A    between atoms: C_23  and  C_24
REMARK    9  A    between atoms: C_26  and  C_28
REMARK   10  A    between atoms: C_27  and  C_29
REMARK                            x       y       z     vdW  Elec       q    Type
REMARK                         _______ _______ _______ _____ _____    ______ ____
ROOT
ATOM      1  S   UNL     1       1.901  -1.696  23.387  0.00  0.00    -0.057 S 
ATOM      6  O   UNL     1       4.880   1.874  23.615  0.00  0.00    -0.270 OA
ATOM      7  N   UNL     1       2.105   0.859  23.743  0.00  0.00    -0.229 NA
ATOM      9  N   UNL     1       4.153  -0.353  23.357  0.00  0.00    -0.261 N 
ATOM     10  C   UNL     1      -1.746   1.035  23.747  0.00  0.00    -0.019 C 
ATOM     11  C   UNL     1      -1.891  -0.425  24.368  0.00  0.00    +0.011 C 
ATOM     12  C   UNL     1      -3.352  -1.002  24.507  0.00  0.00    +0.021 C 
ATOM     13  C   UNL     1      -0.286   1.578  24.101  0.00  0.00    +0.054 C 
ATOM     14  C   UNL     1      -2.790   1.978  24.401  0.00  0.00    +0.010 C 
ATOM     15  C   UNL     1      -4.274   0.083  25.134  0.00  0.00    +0.123 C 
ATOM     16  C   UNL     1      -0.883  -1.420  23.721  0.00  0.00    +0.049 C 
ATOM     17  C   UNL     1      -4.207   1.421  24.406  0.00  0.00    +0.032 C 
ATOM     18  C   UNL     1      -1.948   1.059  22.212  0.00  0.00    +0.012 C 
ATOM     19  C   UNL     1       0.763   0.533  23.819  0.00  0.00    +0.058 A 
ATOM     21  C   UNL     1      -3.329  -2.210  25.486  0.00  0.00    +0.016 C 
ATOM     22  C   UNL     1       0.476  -0.808  23.670  0.00  0.00    +0.015 A 
ATOM     25  C   UNL     1       2.797  -0.236  23.511  0.00  0.00    +0.165 A 
ATOM     27  C   UNL     1       5.098   0.684  23.417  0.00  0.00    +0.250 C 
ATOM     43  H   UNL     1       4.465  -1.310  23.228  0.00  0.00    +0.157 HD
ENDROOT
BRANCH  27  29
ATOM      2  F   UNL     1      10.447  -0.899  22.765  0.00  0.00    -0.205 F 
ATOM     29  C   UNL     1       6.514   0.265  23.245  0.00  0.00    +0.037 A 
ATOM     32  C   UNL     1       6.817  -0.895  22.530  0.00  0.00    +0.016 A 
ATOM     33  C   UNL     1       7.541   1.031  23.797  0.00  0.00    +0.016 A 
ATOM     37  C   UNL     1       8.145  -1.288  22.369  0.00  0.00    +0.039 A 
ATOM     38  C   UNL     1       8.870   0.638  23.636  0.00  0.00    +0.039 A 
ATOM     39  C   UNL     1       9.171  -0.521  22.921  0.00  0.00    +0.123 A 
ENDBRANCH  27  29
BRANCH  15   3
ATOM      3  O   UNL     1      -5.630  -0.361  25.156  0.00  0.00    -0.391 OA
ATOM     40  H   UNL     1      -5.728  -0.971  25.906  0.00  0.00    +0.210 HD
ENDBRANCH  15   3
BRANCH  12  20
ATOM     20  C   UNL     1      -3.956  -1.545  23.193  0.00  0.00    +0.165 C 
BRANCH  20   4
ATOM      4  O   UNL     1      -4.676  -2.717  23.500  0.00  0.00    -0.394 OA
ATOM     41  H   UNL     1      -4.869  -2.698  24.453  0.00  0.00    +0.209 HD
ENDBRANCH  20   4
ENDBRANCH  12  20
BRANCH  13  23
ATOM     23  C   UNL     1       0.070   2.922  23.450  0.00  0.00    +0.106 C 
BRANCH  23  24
ATOM      5  O   UNL     1      -0.623   5.228  23.689  0.00  0.00    -0.276 OA
ATOM      8  N   UNL     1      -1.239   3.672  25.303  0.00  0.00    -0.311 N 
ATOM     24  C   UNL     1      -0.621   4.081  24.130  0.00  0.00    +0.214 C 
ATOM     42  H   UNL     1      -1.161   2.701  25.590  0.00  0.00    +0.149 HD
BRANCH   8  26
ATOM     26  C   UNL     1      -1.974   4.571  26.163  0.00  0.00    +0.139 C 
BRANCH  26  28
ATOM     28  C   UNL     1      -3.458   4.398  26.018  0.00  0.00    -0.030 A 
ATOM     30  C   UNL     1      -4.145   3.527  26.863  0.00  0.00    +0.005 A 
ATOM     31  C   UNL     1      -4.150   5.109  25.037  0.00  0.00    +0.005 A 
ATOM     34  C   UNL     1      -5.525   3.367  26.728  0.00  0.00    +0.000 A 
ATOM     35  C   UNL     1      -5.529   4.950  24.902  0.00  0.00    +0.000 A 
ATOM     36  C   UNL     1      -6.216   4.078  25.747  0.00  0.00    +0.000 A 
ENDBRANCH  26  28
ENDBRANCH   8  26
ENDBRANCH  23  24
ENDBRANCH  13  23
TORSDOF 8
ENDMDL
MODEL 3
REMARK VINA RESULT:      18.4      2.638      4.093
REMARK  Name = 11882862
REMARK  10 active torsions:
REMARK  status: ('A' for Active; 'I' for Inactive)
REMARK    1  A    between atoms: O_3  and  C_15
REMARK    2  A    between atoms: O_4  and  C_20
REMARK    3  A    between atoms: N_8  and  C_26
REMARK    4  A    between atoms: C_10  and  C_18
REMARK    5  A    between atoms: C_12  and  C_20
REMARK    6  A    between atoms: C_12  and  C_21
REMARK    7  A    between atoms: C_13  and  C_23
REMARK    8  A    between atoms: C_23  and  C_24
REMARK    9  A    between atoms: C_26  and  C_28
REMARK   10  A    between atoms: C_27  and  C_29
REMARK                            x       y       z     vdW  Elec       q    Type
REMARK                         _______ _______ _______ _____ _____    ______ ____
ROOT
ATOM      1  S   UNL     1      -0.841  -0.875  24.061  0.00  0.00    -0.057 S 
ATOM      6  O   UNL     1       2.875   1.905  23.696  0.00  0.00    -0.270 OA
ATOM      7  N   UNL     1      -0.017   1.573  24.219  0.00  0.00    -0.229 NA
ATOM      9  N   UNL     1       1.633  -0.098  23.675  0.00  0.00    -0.261 N 
ATOM     10  C   UNL     1      -3.693   2.645  24.669  0.00  0.00    -0.019 C 
ATOM     11  C   UNL     1      -4.084   1.283  25.398  0.00  0.00    +0.011 C 
ATOM     12  C   UNL     1      -5.606   1.070  25.748  0.00  0.00    +0.021 C 
ATOM     13  C   UNL     1      -2.114   2.844  24.810  0.00  0.00    +0.054 C 
ATOM     14  C   UNL     1      -4.400   3.830  25.378  0.00  0.00    +0.010 C 
ATOM     15  C   UNL     1      -6.167   2.363  26.406  0.00  0.00    +0.123 C 
ATOM     16  C   UNL     1      -3.422   0.057  24.703  0.00  0.00    +0.049 C 
ATOM     17  C   UNL     1      -5.893   3.620  25.588  0.00  0.00    +0.032 C 
ATOM     18  C   UNL     1      -4.083   2.659  23.170  0.00  0.00    +0.012 C 
ATOM     19  C   UNL     1      -1.376   1.573  24.476  0.00  0.00    +0.058 A 
ATOM     21  C   UNL     1      -5.731  -0.073  26.795  0.00  0.00    +0.016 C 
ATOM     22  C   UNL     1      -1.978   0.332  24.451  0.00  0.00    +0.015 A 
ATOM     25  C   UNL     1       0.372   0.339  23.981  0.00  0.00    +0.165 A 
ATOM     27  C   UNL     1       2.789   0.690  23.553  0.00  0.00    +0.250 C 
ATOM     43  H   UNL     1       1.700  -1.106  23.573  0.00  0.00    +0.157 HD
ENDROOT
BRANCH  27  29
ATOM      2  F   UNL     1       7.506  -2.122  22.381  0.00  0.00    -0.205 F 
ATOM     29  C   UNL     1       4.037  -0.054  23.242  0.00  0.00    +0.037 A 
ATOM     32  C   UNL     1       5.039   0.549  22.481  0.00  0.00    +0.016 A 
ATOM     33  C   UNL     1       4.208  -1.357  23.712  0.00  0.00    +0.016 A 
ATOM     37  C   UNL     1       6.211  -0.150  22.190  0.00  0.00    +0.039 A 
ATOM     38  C   UNL     1       5.380  -2.056  23.422  0.00  0.00    +0.039 A 
ATOM     39  C   UNL     1       6.381  -1.452  22.661  0.00  0.00    +0.123 A 
ENDBRANCH  27  29
BRANCH  15   3
ATOM      3  O   UNL     1      -7.574   2.250  26.618  0.00  0.00    -0.391 OA
ATOM     40  H   UNL     1      -7.858   3.025  27.131  0.00  0.00    +0.210 HD
ENDBRANCH  15   3
BRANCH  12  20
ATOM     20  C   UNL     1      -6.484   0.635  24.553  0.00  0.00    +0.165 C 
BRANCH  20   4
ATOM      4  O   UNL     1      -7.410   1.667  24.299  0.00  0.00    -0.394 OA
ATOM     41  H   UNL     1      -7.258   1.976  23.390  0.00  0.00    +0.209 HD
ENDBRANCH  20   4
ENDBRANCH  12  20
BRANCH  13  23
ATOM     23  C   UNL     1      -1.550   4.042  24.033  0.00  0.00    +0.106 C 
BRANCH  23  24
ATOM      5  O   UNL     1      -0.078   5.868  24.628  0.00  0.00    -0.276 OA
ATOM      8  N   UNL     1       0.275   3.763  25.549  0.00  0.00    -0.311 N 
ATOM     24  C   UNL     1      -0.386   4.685  24.750  0.00  0.00    +0.214 C 
ATOM     42  H   UNL     1      -0.048   2.800  25.564  0.00  0.00    +0.149 HD
BRANCH   8  26
ATOM     26  C   UNL     1       1.431   4.096  26.349  0.00  0.00    +0.139 C 
BRANCH  26  28
ATOM     28  C   UNL     1       1.465   3.324  27.636  0.00  0.00    -0.030 A 
ATOM     30  C   UNL     1       0.335   2.625  28.060  0.00  0.00    +0.005 A 
ATOM     31  C   UNL     1       2.628   3.305  28.407  0.00  0.00    +0.005 A 
ATOM     34  C   UNL     1       0.368   1.907  29.256  0.00  0.00    +0.000 A 
ATOM     35  C   UNL     1       2.660   2.587  29.603  0.00  0.00    +0.000 A 
ATOM     36  C   UNL     1       1.530   1.888  30.027  0.00  0.00    +0.000 A 
ENDBRANCH  26  28
ENDBRANCH   8  26
ENDBRANCH  23  24
ENDBRANCH  13  23
TORSDOF 8
ENDMDL
MODEL 4
REMARK VINA RESULT:      19.4      2.704      4.700
REMARK  Name = 11882862
REMARK  10 active torsions:
REMARK  status: ('A' for Active; 'I' for Inactive)
REMARK    1  A    between atoms: O_3  and  C_15
REMARK    2  A    between atoms: O_4  and  C_20
REMARK    3  A    between atoms: N_8  and  C_26
REMARK    4  A    between atoms: C_10  and  C_18
REMARK    5  A    between atoms: C_12  and  C_20
REMARK    6  A    between atoms: C_12  and  C_21
REMARK    7  A    between atoms: C_13  and  C_23
REMARK    8  A    between atoms: C_23  and  C_24
REMARK    9  A    between atoms: C_26  and  C_28
REMARK   10  A    between atoms: C_27  and  C_29
REMARK                            x       y       z     vdW  Elec       q    Type
REMARK                         _______ _______ _______ _____ _____    ______ ____
ROOT
ATOM      1  S   UNL     1       1.238  -1.557  23.460  0.00  0.00    -0.057 S 
ATOM      6  O   UNL     1       4.378   1.874  23.641  0.00  0.00    -0.270 OA
ATOM      7  N   UNL     1       1.568   0.979  23.854  0.00  0.00    -0.229 NA
ATOM      9  N   UNL     1       3.544  -0.314  23.370  0.00  0.00    -0.261 N 
ATOM     10  C   UNL     1      -2.270   1.323  24.005  0.00  0.00    -0.019 C 
ATOM     11  C   UNL     1      -2.456  -0.141  24.604  0.00  0.00    +0.011 C 
ATOM     12  C   UNL     1      -3.936  -0.656  24.788  0.00  0.00    +0.021 C 
ATOM     13  C   UNL     1      -0.775   1.795  24.314  0.00  0.00    +0.054 C 
ATOM     14  C   UNL     1      -3.246   2.298  24.715  0.00  0.00    +0.010 C 
ATOM     15  C   UNL     1      -4.784   0.455  25.468  0.00  0.00    +0.123 C 
ATOM     16  C   UNL     1      -1.518  -1.166  23.902  0.00  0.00    +0.049 C 
ATOM     17  C   UNL     1      -4.685   1.803  24.762  0.00  0.00    +0.032 C 
ATOM     18  C   UNL     1      -2.526   1.386  22.479  0.00  0.00    +0.012 C 
ATOM     19  C   UNL     1       0.216   0.711  23.974  0.00  0.00    +0.058 A 
ATOM     21  C   UNL     1      -3.930  -1.884  25.743  0.00  0.00    +0.016 C 
ATOM     22  C   UNL     1      -0.136  -0.613  23.812  0.00  0.00    +0.015 A 
ATOM     25  C   UNL     1       2.201  -0.140  23.577  0.00  0.00    +0.165 A 
ATOM     27  C   UNL     1       4.536   0.680  23.413  0.00  0.00    +0.250 C 
ATOM     43  H   UNL     1       3.809  -1.281  23.212  0.00  0.00    +0.157 HD
ENDROOT
BRANCH  27  29
ATOM      2  F   UNL     1       9.782  -1.122  22.534  0.00  0.00    -0.205 F 
ATOM     29  C   UNL     1       5.925   0.203  23.181  0.00  0.00    +0.037 A 
ATOM     32  C   UNL     1       6.155  -0.908  22.369  0.00  0.00    +0.016 A 
ATOM     33  C   UNL     1       6.999   0.866  23.774  0.00  0.00    +0.016 A 
ATOM     37  C   UNL     1       7.457  -1.356  22.150  0.00  0.00    +0.039 A 
ATOM     38  C   UNL     1       8.302   0.419  23.556  0.00  0.00    +0.039 A 
ATOM     39  C   UNL     1       8.531  -0.692  22.744  0.00  0.00    +0.123 A 
ENDBRANCH  27  29
BRANCH  15   3
ATOM      3  O   UNL     1      -6.158   0.070  25.532  0.00  0.00    -0.391 OA
ATOM     40  H   UNL     1      -6.522   0.417  26.364  0.00  0.00    +0.210 HD
ENDBRANCH  15   3
BRANCH  12  20
ATOM     20  C   UNL     1      -4.610  -1.146  23.487  0.00  0.00    +0.165 C 
BRANCH  20   4
ATOM      4  O   UNL     1      -4.588  -2.556  23.494  0.00  0.00    -0.394 OA
ATOM     41  H   UNL     1      -5.036  -2.857  22.685  0.00  0.00    +0.209 HD
ENDBRANCH  20   4
ENDBRANCH  12  20
BRANCH  13  23
ATOM     23  C   UNL     1      -0.384   3.134  23.674  0.00  0.00    +0.106 C 
BRANCH  23  24
ATOM      5  O   UNL     1      -0.197   5.366  24.590  0.00  0.00    -0.276 OA
ATOM      8  N   UNL     1       0.641   3.560  25.790  0.00  0.00    -0.311 N 
ATOM     24  C   UNL     1       0.013   4.161  24.709  0.00  0.00    +0.214 C 
ATOM     42  H   UNL     1       0.784   2.555  25.782  0.00  0.00    +0.149 HD
BRANCH   8  26
ATOM     26  C   UNL     1       1.131   4.300  26.930  0.00  0.00    +0.139 C 
BRANCH  26  28
ATOM     28  C   UNL     1       1.499   3.395  28.071  0.00  0.00    -0.030 A 
ATOM     30  C   UNL     1       2.839   3.098  28.320  0.00  0.00    +0.005 A 
ATOM     31  C   UNL     1       0.501   2.853  28.880  0.00  0.00    +0.005 A 
ATOM     34  C   UNL     1       3.181   2.258  29.380  0.00  0.00    +0.000 A 
ATOM     35  C   UNL     1       0.843   2.012  29.940  0.00  0.00    +0.000 A 
ATOM     36  C   UNL     1       2.183   1.715  30.190  0.00  0.00    +0.000 A 
ENDBRANCH  26  28
ENDBRANCH   8  26
ENDBRANCH  23  24
ENDBRANCH  13  23
TORSDOF 8
ENDMDL
