MODEL 1
REMARK VINA RESULT:      -4.0      0.000      0.000
REMARK  Name = 40779644
REMARK  6 active torsions:
REMARK  status: ('A' for Active; 'I' for Inactive)
REMARK    1  A    between atoms: N_6  and  C_15
REMARK    2  A    between atoms: N_7  and  C_16
REMARK    3  A    between atoms: C_9  and  C_15
REMARK    4  A    between atoms: C_10  and  C_16
REMARK    5  A    between atoms: C_21  and  C_22
REMARK    6  A    between atoms: C_27  and  C_28
REMARK                            x       y       z     vdW  Elec       q    Type
REMARK                         _______ _______ _______ _____ _____    ______ ____
ROOT
ATOM     16  C   UNL     1      -7.018 -10.335  17.807  0.00  0.00    +0.123 C 
ENDROOT
BRANCH  16  10
ATOM      5  N   UNL     1      -9.502 -10.269  17.468  0.00  0.00    -0.298 NA
ATOM      8  C   UNL     1      -9.410  -8.292  15.781  0.00  0.00    -0.003 C 
ATOM      9  C   UNL     1      -9.634  -9.633  15.047  0.00  0.00    +0.020 C 
ATOM     10  C   UNL     1      -8.272  -9.464  17.693  0.00  0.00    +0.074 C 
ATOM     11  C   UNL     1      -8.116  -8.373  16.611  0.00  0.00    +0.024 C 
ATOM     12  C   UNL     1      -9.535 -10.781  16.077  0.00  0.00    +0.089 C 
ATOM     13  C   UNL     1     -10.578  -8.125  16.773  0.00  0.00    +0.019 C 
ATOM     14  C   UNL     1     -10.672  -9.378  17.660  0.00  0.00    +0.085 C 
BRANCH   9  15
ATOM     15  C   UNL     1      -8.678  -9.845  13.874  0.00  0.00    +0.089 C 
BRANCH  15   6
ATOM      6  N   UNL     1      -9.336  -9.569  12.607  0.00  0.00    -0.302 NA
ATOM     17  C   UNL     1      -8.421  -9.657  11.470  0.00  0.00    +0.084 C 
ATOM     18  C   UNL     1     -10.403 -10.526  12.312  0.00  0.00    +0.084 C 
ATOM     19  C   UNL     1      -9.362  -9.727  10.277  0.00  0.00    +0.017 C 
ATOM     20  C   UNL     1     -10.666 -10.294  10.831  0.00  0.00    +0.017 C 
ENDBRANCH  15   6
ENDBRANCH   9  15
ENDBRANCH  16  10
BRANCH  16   7
ATOM      4  O   UNL     1      -4.170 -10.600  17.553  0.00  0.00    -0.270 OA
ATOM      7  N   UNL     1      -6.263 -10.304  16.593  0.00  0.00    -0.310 N 
ATOM     21  C   UNL     1      -4.876 -10.441  16.560  0.00  0.00    +0.244 C 
ATOM     29  H   UNL     1      -6.778 -10.115  15.741  0.00  0.00    +0.149 HD
BRANCH  21  22
ATOM     22  C   UNL     1      -4.237 -10.360  15.221  0.00  0.00    +0.037 A 
ATOM     23  C   UNL     1      -2.862 -10.555  15.092  0.00  0.00    +0.013 A 
ATOM     24  C   UNL     1      -5.012 -10.089  14.094  0.00  0.00    +0.013 A 
ATOM     25  C   UNL     1      -2.261 -10.478  13.835  0.00  0.00    +0.013 A 
ATOM     26  C   UNL     1      -4.412 -10.013  12.837  0.00  0.00    +0.013 A 
ATOM     27  C   UNL     1      -3.037 -10.207  12.708  0.00  0.00    +0.055 A 
BRANCH  27  28
ATOM      1  F   UNL     1      -3.153 -10.664  10.363  0.00  0.00    -0.166 F 
ATOM      2  F   UNL     1      -1.201 -10.781  11.312  0.00  0.00    -0.166 F 
ATOM      3  F   UNL     1      -2.130  -8.847  10.961  0.00  0.00    -0.166 F 
ATOM     28  C   UNL     1      -2.396 -10.125  11.364  0.00  0.00    +0.417 C 
ENDBRANCH  27  28
ENDBRANCH  21  22
ENDBRANCH  16   7
TORSDOF 6
ENDMDL
MODEL 2
REMARK VINA RESULT:      -2.1     14.401     16.058
REMARK  Name = 40779644
REMARK  6 active torsions:
REMARK  status: ('A' for Active; 'I' for Inactive)
REMARK    1  A    between atoms: N_6  and  C_15
REMARK    2  A    between atoms: N_7  and  C_16
REMARK    3  A    between atoms: C_9  and  C_15
REMARK    4  A    between atoms: C_10  and  C_16
REMARK    5  A    between atoms: C_21  and  C_22
REMARK    6  A    between atoms: C_27  and  C_28
REMARK                            x       y       z     vdW  Elec       q    Type
REMARK                         _______ _______ _______ _____ _____    ______ ____
ROOT
ATOM     16  C   UNL     1      -1.853   1.495  22.309  0.00  0.00    +0.123 C 
ENDROOT
BRANCH  16  10
ATOM      5  N   UNL     1      -1.734   2.699  24.506  0.00  0.00    -0.298 NA
ATOM      8  C   UNL     1      -4.301   3.096  24.643  0.00  0.00    -0.003 C 
ATOM      9  C   UNL     1      -3.871   1.943  25.577  0.00  0.00    +0.020 C 
ATOM     10  C   UNL     1      -2.325   2.690  23.141  0.00  0.00    +0.074 C 
ATOM     11  C   UNL     1      -3.866   2.774  23.202  0.00  0.00    +0.024 C 
ATOM     12  C   UNL     1      -2.369   1.657  25.348  0.00  0.00    +0.089 C 
ATOM     13  C   UNL     1      -3.520   4.347  25.086  0.00  0.00    +0.019 C 
ATOM     14  C   UNL     1      -2.016   4.021  25.116  0.00  0.00    +0.085 C 
BRANCH   9  15
ATOM     15  C   UNL     1      -4.716   0.682  25.409  0.00  0.00    +0.089 C 
BRANCH  15   6
ATOM      6  N   UNL     1      -3.900  -0.439  24.969  0.00  0.00    -0.302 NA
ATOM     17  C   UNL     1      -3.618  -1.384  26.050  0.00  0.00    +0.084 C 
ATOM     18  C   UNL     1      -4.555  -1.234  23.930  0.00  0.00    +0.084 C 
ATOM     19  C   UNL     1      -3.121  -2.615  25.307  0.00  0.00    +0.017 C 
ATOM     20  C   UNL     1      -3.733  -2.514  23.913  0.00  0.00    +0.017 C 
ENDBRANCH  15   6
ENDBRANCH   9  15
ENDBRANCH  16  10
BRANCH  16   7
ATOM      4  O   UNL     1      -0.585  -0.769  23.539  0.00  0.00    -0.270 OA
ATOM      7  N   UNL     1      -0.447   1.286  22.467  0.00  0.00    -0.310 N 
ATOM     21  C   UNL     1       0.085   0.153  23.080  0.00  0.00    +0.244 C 
ATOM     29  H   UNL     1       0.162   2.037  22.164  0.00  0.00    +0.149 HD
BRANCH  21  22
ATOM     22  C   UNL     1       1.566   0.098  23.190  0.00  0.00    +0.037 A 
ATOM     23  C   UNL     1       2.197  -1.100  23.528  0.00  0.00    +0.013 A 
ATOM     24  C   UNL     1       2.327   1.243  22.956  0.00  0.00    +0.013 A 
ATOM     25  C   UNL     1       3.587  -1.152  23.633  0.00  0.00    +0.013 A 
ATOM     26  C   UNL     1       3.716   1.191  23.060  0.00  0.00    +0.013 A 
ATOM     27  C   UNL     1       4.346  -0.006  23.399  0.00  0.00    +0.055 A 
BRANCH  27  28
ATOM      1  F   UNL     1       6.452  -0.476  22.367  0.00  0.00    -0.166 F 
ATOM      2  F   UNL     1       6.254  -0.915  24.486  0.00  0.00    -0.166 F 
ATOM      3  F   UNL     1       6.403   1.145  23.808  0.00  0.00    -0.166 F 
ATOM     28  C   UNL     1       5.832  -0.060  23.510  0.00  0.00    +0.417 C 
ENDBRANCH  27  28
ENDBRANCH  21  22
ENDBRANCH  16   7
TORSDOF 6
ENDMDL
MODEL 3
REMARK VINA RESULT:      -1.5      4.589      6.175
REMARK  Name = 40779644
REMARK  6 active torsions:
REMARK  status: ('A' for Active; 'I' for Inactive)
REMARK    1  A    between atoms: N_6  and  C_15
REMARK    2  A    between atoms: N_7  and  C_16
REMARK    3  A    between atoms: C_9  and  C_15
REMARK    4  A    between atoms: C_10  and  C_16
REMARK    5  A    between atoms: C_21  and  C_22
REMARK    6  A    between atoms: C_27  and  C_28
REMARK                            x       y       z     vdW  Elec       q    Type
REMARK                         _______ _______ _______ _____ _____    ______ ____
ROOT
ATOM     16  C   UNL     1      -3.815  -9.447   9.796  0.00  0.00    +0.123 C 
ENDROOT
BRANCH  16  10
ATOM      5  N   UNL     1      -5.545 -10.700  11.112  0.00  0.00    -0.298 NA
ATOM      8  C   UNL     1      -7.153  -8.664  11.296  0.00  0.00    -0.003 C 
ATOM      9  C   UNL     1      -7.652  -9.666  10.231  0.00  0.00    +0.020 C 
ATOM     10  C   UNL     1      -4.778  -9.432  10.986  0.00  0.00    +0.074 C 
ATOM     11  C   UNL     1      -5.724  -8.212  10.942  0.00  0.00    +0.024 C 
ATOM     12  C   UNL     1      -6.589 -10.776  10.063  0.00  0.00    +0.089 C 
ATOM     13  C   UNL     1      -7.071  -9.431  12.629  0.00  0.00    +0.019 C 
ATOM     14  C   UNL     1      -6.217 -10.697  12.434  0.00  0.00    +0.085 C 
BRANCH   9  15
ATOM     15  C   UNL     1      -7.994  -9.007   8.896  0.00  0.00    +0.089 C 
BRANCH  15   6
ATOM      6  N   UNL     1      -8.696  -7.749   9.098  0.00  0.00    -0.302 NA
ATOM     17  C   UNL     1      -8.037  -6.627   8.432  0.00  0.00    +0.084 C 
ATOM     18  C   UNL     1     -10.053  -7.773   8.551  0.00  0.00    +0.084 C 
ATOM     19  C   UNL     1      -9.108  -5.547   8.440  0.00  0.00    +0.017 C 
ATOM     20  C   UNL     1     -10.432  -6.300   8.522  0.00  0.00    +0.017 C 
ENDBRANCH  15   6
ENDBRANCH   9  15
ENDBRANCH  16  10
BRANCH  16   7
ATOM      4  O   UNL     1      -1.972 -10.474  11.744  0.00  0.00    -0.270 OA
ATOM      7  N   UNL     1      -2.551  -8.883  10.155  0.00  0.00    -0.310 N 
ATOM     21  C   UNL     1      -1.715  -9.449  11.116  0.00  0.00    +0.244 C 
ATOM     29  H   UNL     1      -2.304  -8.003   9.717  0.00  0.00    +0.149 HD
BRANCH  21  22
ATOM     22  C   UNL     1      -0.446  -8.727  11.393  0.00  0.00    +0.037 A 
ATOM     23  C   UNL     1       0.704  -9.033  10.665  0.00  0.00    +0.013 A 
ATOM     24  C   UNL     1      -0.404  -7.744  12.381  0.00  0.00    +0.013 A 
ATOM     25  C   UNL     1       1.896  -8.356  10.926  0.00  0.00    +0.013 A 
ATOM     26  C   UNL     1       0.787  -7.066  12.641  0.00  0.00    +0.013 A 
ATOM     27  C   UNL     1       1.937  -7.373  11.914  0.00  0.00    +0.055 A 
BRANCH  27  28
ATOM      1  F   UNL     1       3.871  -7.108  13.296  0.00  0.00    -0.166 F 
ATOM      2  F   UNL     1       3.016  -5.315  12.413  0.00  0.00    -0.166 F 
ATOM      3  F   UNL     1       4.117  -6.723  11.176  0.00  0.00    -0.166 F 
ATOM     28  C   UNL     1       3.209  -6.648  12.194  0.00  0.00    +0.417 C 
ENDBRANCH  27  28
ENDBRANCH  21  22
ENDBRANCH  16   7
TORSDOF 6
ENDMDL
MODEL 4
REMARK VINA RESULT:      -1.1     14.283     15.903
REMARK  Name = 40779644
REMARK  6 active torsions:
REMARK  status: ('A' for Active; 'I' for Inactive)
REMARK    1  A    between atoms: N_6  and  C_15
REMARK    2  A    between atoms: N_7  and  C_16
REMARK    3  A    between atoms: C_9  and  C_15
REMARK    4  A    between atoms: C_10  and  C_16
REMARK    5  A    between atoms: C_21  and  C_22
REMARK    6  A    between atoms: C_27  and  C_28
REMARK                            x       y       z     vdW  Elec       q    Type
REMARK                         _______ _______ _______ _____ _____    ______ ____
ROOT
ATOM     16  C   UNL     1      -3.101   4.284  25.684  0.00  0.00    +0.123 C 
ENDROOT
BRANCH  16  10
ATOM      5  N   UNL     1      -4.842   2.618  26.381  0.00  0.00    -0.298 NA
ATOM      8  C   UNL     1      -5.399   1.897  23.945  0.00  0.00    -0.003 C 
ATOM      9  C   UNL     1      -4.517   0.839  24.645  0.00  0.00    +0.020 C 
ATOM     10  C   UNL     1      -4.500   3.713  25.435  0.00  0.00    +0.074 C 
ATOM     11  C   UNL     1      -4.680   3.258  23.970  0.00  0.00    +0.024 C 
ATOM     12  C   UNL     1      -4.100   1.384  26.030  0.00  0.00    +0.089 C 
ATOM     13  C   UNL     1      -6.680   2.042  24.790  0.00  0.00    +0.019 C 
ATOM     14  C   UNL     1      -6.293   2.338  26.249  0.00  0.00    +0.085 C 
BRANCH   9  15
ATOM     15  C   UNL     1      -3.305   0.420  23.816  0.00  0.00    +0.089 C 
BRANCH  15   6
ATOM      6  N   UNL     1      -3.139  -1.026  23.826  0.00  0.00    -0.302 NA
ATOM     17  C   UNL     1      -2.500  -1.507  25.050  0.00  0.00    +0.084 C 
ATOM     18  C   UNL     1      -4.417  -1.734  23.760  0.00  0.00    +0.084 C 
ATOM     19  C   UNL     1      -2.784  -3.001  25.019  0.00  0.00    +0.017 C 
ATOM     20  C   UNL     1      -4.041  -3.151  24.167  0.00  0.00    +0.017 C 
ENDBRANCH  15   6
ENDBRANCH   9  15
ENDBRANCH  16  10
BRANCH  16   7
ATOM      4  O   UNL     1      -0.980   2.765  26.882  0.00  0.00    -0.270 OA
ATOM      7  N   UNL     1      -2.108   3.519  24.998  0.00  0.00    -0.310 N 
ATOM     21  C   UNL     1      -1.109   2.808  25.661  0.00  0.00    +0.244 C 
ATOM     29  H   UNL     1      -2.119   3.560  23.986  0.00  0.00    +0.149 HD
BRANCH  21  22
ATOM     22  C   UNL     1      -0.135   2.083  24.803  0.00  0.00    +0.037 A 
ATOM     23  C   UNL     1      -0.228   0.699  24.659  0.00  0.00    +0.013 A 
ATOM     24  C   UNL     1       0.871   2.787  24.141  0.00  0.00    +0.013 A 
ATOM     25  C   UNL     1       0.686   0.018  23.855  0.00  0.00    +0.013 A 
ATOM     26  C   UNL     1       1.784   2.106  23.336  0.00  0.00    +0.013 A 
ATOM     27  C   UNL     1       1.692   0.722  23.194  0.00  0.00    +0.055 A 
BRANCH  27  28
ATOM      1  F   UNL     1       3.731   0.762  21.943  0.00  0.00    -0.166 F 
ATOM      2  F   UNL     1       2.109  -0.466  21.177  0.00  0.00    -0.166 F 
ATOM      3  F   UNL     1       3.221  -1.099  22.935  0.00  0.00    -0.166 F 
ATOM     28  C   UNL     1       2.669  -0.004  22.333  0.00  0.00    +0.417 C 
ENDBRANCH  27  28
ENDBRANCH  21  22
ENDBRANCH  16   7
TORSDOF 6
ENDMDL
MODEL 5
REMARK VINA RESULT:      -0.7     14.471     16.149
REMARK  Name = 40779644
REMARK  6 active torsions:
REMARK  status: ('A' for Active; 'I' for Inactive)
REMARK    1  A    between atoms: N_6  and  C_15
REMARK    2  A    between atoms: N_7  and  C_16
REMARK    3  A    between atoms: C_9  and  C_15
REMARK    4  A    between atoms: C_10  and  C_16
REMARK    5  A    between atoms: C_21  and  C_22
REMARK    6  A    between atoms: C_27  and  C_28
REMARK                            x       y       z     vdW  Elec       q    Type
REMARK                         _______ _______ _______ _____ _____    ______ ____
ROOT
ATOM     16  C   UNL     1      -1.050   0.790  23.879  0.00  0.00    +0.123 C 
ENDROOT
BRANCH  16  10
ATOM      5  N   UNL     1      -2.652  -1.125  23.631  0.00  0.00    -0.298 NA
ATOM      8  C   UNL     1      -3.788  -0.720  25.935  0.00  0.00    -0.003 C 
ATOM      9  C   UNL     1      -4.678  -0.201  24.783  0.00  0.00    +0.020 C 
ATOM     10  C   UNL     1      -1.714  -0.419  24.545  0.00  0.00    +0.074 C 
ATOM     11  C   UNL     1      -2.413  -0.033  25.868  0.00  0.00    +0.024 C 
ATOM     12  C   UNL     1      -3.894  -0.335  23.457  0.00  0.00    +0.089 C 
ATOM     13  C   UNL     1      -3.561  -2.223  25.682  0.00  0.00    +0.019 C 
ATOM     14  C   UNL     1      -3.011  -2.420  24.258  0.00  0.00    +0.085 C 
BRANCH   9  15
ATOM     15  C   UNL     1      -5.175   1.227  25.001  0.00  0.00    +0.089 C 
BRANCH  15   6
ATOM      6  N   UNL     1      -4.063   2.161  25.080  0.00  0.00    -0.302 NA
ATOM     17  C   UNL     1      -3.915   2.958  23.863  0.00  0.00    +0.084 C 
ATOM     18  C   UNL     1      -4.231   3.138  26.156  0.00  0.00    +0.084 C 
ATOM     19  C   UNL     1      -2.996   4.088  24.303  0.00  0.00    +0.017 C 
ATOM     20  C   UNL     1      -3.200   4.203  25.811  0.00  0.00    +0.017 C 
ENDBRANCH  15   6
ENDBRANCH   9  15
ENDBRANCH  16  10
BRANCH  16   7
ATOM      4  O   UNL     1       0.572  -0.497  21.889  0.00  0.00    -0.270 OA
ATOM      7  N   UNL     1       0.374   0.661  23.892  0.00  0.00    -0.310 N 
ATOM     21  C   UNL     1       1.085   0.017  22.880  0.00  0.00    +0.244 C 
ATOM     29  H   UNL     1       0.856   1.010  24.712  0.00  0.00    +0.149 HD
BRANCH  21  22
ATOM     22  C   UNL     1       2.559  -0.056  23.054  0.00  0.00    +0.037 A 
ATOM     23  C   UNL     1       3.144  -1.216  23.564  0.00  0.00    +0.013 A 
ATOM     24  C   UNL     1       3.357   1.034  22.709  0.00  0.00    +0.013 A 
ATOM     25  C   UNL     1       4.528  -1.285  23.728  0.00  0.00    +0.013 A 
ATOM     26  C   UNL     1       4.741   0.964  22.872  0.00  0.00    +0.013 A 
ATOM     27  C   UNL     1       5.325  -0.194  23.382  0.00  0.00    +0.055 A 
BRANCH  27  28
ATOM      1  F   UNL     1       7.461  -0.771  22.471  0.00  0.00    -0.166 F 
ATOM      2  F   UNL     1       7.171  -1.061  24.605  0.00  0.00    -0.166 F 
ATOM      3  F   UNL     1       7.388   0.945  23.795  0.00  0.00    -0.166 F 
ATOM     28  C   UNL     1       6.805  -0.267  23.557  0.00  0.00    +0.417 C 
ENDBRANCH  27  28
ENDBRANCH  21  22
ENDBRANCH  16   7
TORSDOF 6
ENDMDL
