MODEL 1
REMARK VINA RESULT:      10.7      0.000      0.000
REMARK  Name = 11884262
REMARK  5 active torsions:
REMARK  status: ('A' for Active; 'I' for Inactive)
REMARK    1  A    between atoms: O_5  and  C_22
REMARK    2  A    between atoms: O_6  and  C_25
REMARK    3  A    between atoms: O_6  and  C_30
REMARK    4  A    between atoms: C_18  and  C_22
REMARK    5  A    between atoms: C_21  and  C_24
REMARK                            x       y       z     vdW  Elec       q    Type
REMARK                         _______ _______ _______ _____ _____    ______ ____
ROOT
ATOM      2  O   UNL     1      -4.254  -0.148  25.832  0.00  0.00    -0.273 OA
ATOM      3  O   UNL     1      -0.031   2.994  25.346  0.00  0.00    -0.270 OA
ATOM      4  O   UNL     1      -7.214   2.028  24.310  0.00  0.00    -0.273 OA
ATOM      7  N   UNL     1      -2.183   2.252  24.931  0.00  0.00    -0.283 N 
ATOM      8  N   UNL     1      -5.062   2.609  24.985  0.00  0.00    -0.296 N 
ATOM      9  N   UNL     1      -2.067  -0.658  25.456  0.00  0.00    -0.283 N 
ATOM     10  C   UNL     1      -3.059   1.278  24.294  0.00  0.00    +0.180 C 
ATOM     11  C   UNL     1      -4.415   1.873  23.896  0.00  0.00    +0.139 C 
ATOM     12  C   UNL     1      -2.784   3.516  25.362  0.00  0.00    +0.128 C 
ATOM     13  C   UNL     1      -4.185   3.317  25.920  0.00  0.00    +0.127 C 
ATOM     14  C   UNL     1      -3.187   0.128  25.279  0.00  0.00    +0.239 C 
ATOM     15  C   UNL     1      -0.801   2.101  24.985  0.00  0.00    +0.249 C 
ATOM     16  C   UNL     1      -0.205   0.788  24.618  0.00  0.00    +0.059 A 
ATOM     17  C   UNL     1      -0.769  -0.455  24.941  0.00  0.00    +0.046 A 
ATOM     18  C   UNL     1      -6.457   2.612  25.080  0.00  0.00    +0.241 C 
ATOM     19  C   UNL     1       1.092   0.836  24.073  0.00  0.00    +0.023 A 
ATOM     20  C   UNL     1       0.004  -1.618  24.777  0.00  0.00    +0.024 A 
ATOM     21  C   UNL     1       1.826  -0.332  23.871  0.00  0.00    -0.014 A 
ATOM     23  C   UNL     1       1.288  -1.558  24.236  0.00  0.00    +0.010 A 
ATOM     31  H   UNL     1      -2.224  -1.541  25.935  0.00  0.00    +0.155 HD
ENDROOT
BRANCH  21  24
ATOM      1 CL   UNL     1       6.910  -0.709  24.620  0.00  0.00    -0.084 Cl
ATOM     24  C   UNL     1       3.156  -0.264  23.305  0.00  0.00    +0.025 A 
ATOM     25  C   UNL     1       3.348   0.025  21.953  0.00  0.00    +0.128 A 
ATOM     26  C   UNL     1       4.261  -0.490  24.129  0.00  0.00    +0.032 A 
ATOM     27  C   UNL     1       4.638   0.087  21.425  0.00  0.00    +0.047 A 
ATOM     28  C   UNL     1       5.551  -0.429  23.602  0.00  0.00    +0.042 A 
ATOM     29  C   UNL     1       5.739  -0.140  22.251  0.00  0.00    +0.023 A 
BRANCH  25   6
ATOM      6  O   UNL     1       2.288   0.250  21.123  0.00  0.00    -0.495 OA
ATOM     30  C   UNL     1       1.241  -0.716  21.135  0.00  0.00    +0.277 C 
ENDBRANCH  25   6
ENDBRANCH  21  24
BRANCH  18  22
ATOM     22  C   UNL     1      -7.061   3.405  26.196  0.00  0.00    +0.251 C 
BRANCH  22   5
ATOM      5  O   UNL     1      -6.683   4.744  25.988  0.00  0.00    -0.386 OA
ATOM     32  H   UNL     1      -7.196   5.298  26.600  0.00  0.00    +0.210 HD
ENDBRANCH  22   5
ENDBRANCH  18  22
TORSDOF 4
ENDMDL
MODEL 2
REMARK VINA RESULT:      14.3      3.632      8.784
REMARK  Name = 11884262
REMARK  5 active torsions:
REMARK  status: ('A' for Active; 'I' for Inactive)
REMARK    1  A    between atoms: O_5  and  C_22
REMARK    2  A    between atoms: O_6  and  C_25
REMARK    3  A    between atoms: O_6  and  C_30
REMARK    4  A    between atoms: C_18  and  C_22
REMARK    5  A    between atoms: C_21  and  C_24
REMARK                            x       y       z     vdW  Elec       q    Type
REMARK                         _______ _______ _______ _____ _____    ______ ____
ROOT
ATOM      2  O   UNL     1       1.814  -1.299  21.689  0.00  0.00    -0.273 OA
ATOM      3  O   UNL     1       0.395   3.328  23.815  0.00  0.00    -0.270 OA
ATOM      4  O   UNL     1       5.263  -2.130  23.484  0.00  0.00    -0.273 OA
ATOM      7  N   UNL     1       1.563   1.337  23.651  0.00  0.00    -0.283 N 
ATOM      8  N   UNL     1       4.030  -0.159  23.350  0.00  0.00    -0.296 N 
ATOM      9  N   UNL     1      -0.249  -0.451  22.142  0.00  0.00    -0.283 N 
ATOM     10  C   UNL     1       1.566  -0.114  23.778  0.00  0.00    +0.180 C 
ATOM     11  C   UNL     1       2.937  -0.670  24.180  0.00  0.00    +0.139 C 
ATOM     12  C   UNL     1       2.861   2.012  23.625  0.00  0.00    +0.128 C 
ATOM     13  C   UNL     1       3.901   1.213  22.853  0.00  0.00    +0.127 C 
ATOM     14  C   UNL     1       1.083  -0.648  22.439  0.00  0.00    +0.239 C 
ATOM     15  C   UNL     1       0.400   2.098  23.729  0.00  0.00    +0.249 C 
ATOM     16  C   UNL     1      -0.917   1.409  23.678  0.00  0.00    +0.059 A 
ATOM     17  C   UNL     1      -1.201   0.303  22.861  0.00  0.00    +0.046 A 
ATOM     18  C   UNL     1       5.131  -0.978  23.080  0.00  0.00    +0.241 C 
ATOM     19  C   UNL     1      -1.967   2.042  24.370  0.00  0.00    +0.023 A 
ATOM     20  C   UNL     1      -2.538  -0.099  22.700  0.00  0.00    +0.024 A 
ATOM     21  C   UNL     1      -3.282   1.598  24.237  0.00  0.00    -0.014 A 
ATOM     23  C   UNL     1      -3.570   0.536  23.391  0.00  0.00    +0.010 A 
ATOM     31  H   UNL     1      -0.610  -0.997  21.363  0.00  0.00    +0.155 HD
ENDROOT
BRANCH  21  24
ATOM      1 CL   UNL     1      -7.305   1.175  27.428  0.00  0.00    -0.084 Cl
ATOM     24  C   UNL     1      -4.347   2.259  24.959  0.00  0.00    +0.025 A 
ATOM     25  C   UNL     1      -4.522   3.641  24.876  0.00  0.00    +0.128 A 
ATOM     26  C   UNL     1      -5.210   1.497  25.750  0.00  0.00    +0.032 A 
ATOM     27  C   UNL     1      -5.555   4.261  25.580  0.00  0.00    +0.047 A 
ATOM     28  C   UNL     1      -6.243   2.116  26.455  0.00  0.00    +0.042 A 
ATOM     29  C   UNL     1      -6.415   3.497  26.369  0.00  0.00    +0.023 A 
BRANCH  25   6
ATOM      6  O   UNL     1      -3.694   4.412  24.112  0.00  0.00    -0.495 OA
ATOM     30  C   UNL     1      -2.636   5.089  24.787  0.00  0.00    +0.277 C 
ENDBRANCH  25   6
ENDBRANCH  21  24
BRANCH  18  22
ATOM     22  C   UNL     1       6.229  -0.390  22.251  0.00  0.00    +0.251 C 
BRANCH  22   5
ATOM      5  O   UNL     1       7.320  -0.188  23.116  0.00  0.00    -0.386 OA
ATOM     32  H   UNL     1       6.981  -0.176  24.027  0.00  0.00    +0.210 HD
ENDBRANCH  22   5
ENDBRANCH  18  22
TORSDOF 4
ENDMDL
