MODEL 1
REMARK VINA RESULT:      -4.8      0.000      0.000
REMARK  Name = 26744542
REMARK  7 active torsions:
REMARK  status: ('A' for Active; 'I' for Inactive)
REMARK    1  A    between atoms: O_2  and  C_13
REMARK    2  A    between atoms: O_3  and  C_24
REMARK    3  A    between atoms: N_5  and  C_17
REMARK    4  A    between atoms: C_8  and  C_15
REMARK    5  A    between atoms: C_9  and  C_16
REMARK    6  A    between atoms: C_17  and  C_18
REMARK    7  A    between atoms: C_23  and  C_24
REMARK                            x       y       z     vdW  Elec       q    Type
REMARK                         _______ _______ _______ _____ _____    ______ ____
ROOT
ATOM      5  N   UNL     1      -3.563   3.442  25.515  0.00  0.00    -0.285 NA
ATOM      9  C   UNL     1      -4.439   2.305  25.866  0.00  0.00    +0.149 C 
ATOM     12  C   UNL     1      -5.871   2.843  25.691  0.00  0.00    +0.061 C 
ATOM     13  C   UNL     1      -5.698   4.301  25.285  0.00  0.00    +0.130 C 
ATOM     14  C   UNL     1      -4.321   4.655  25.813  0.00  0.00    +0.116 C 
ENDROOT
BRANCH   9  16
ATOM      1  O   UNL     1      -3.902   1.292  23.708  0.00  0.00    -0.336 OA
ATOM      6  N   UNL     1      -4.147  -0.184  25.375  0.00  0.00    -0.194 NA
ATOM      7  N   UNL     1      -3.686   0.027  23.145  0.00  0.00    -0.061 NA
ATOM     15  C   UNL     1      -3.848  -0.789  24.190  0.00  0.00    +0.175 A 
ATOM     16  C   UNL     1      -4.167   1.077  25.023  0.00  0.00    +0.245 A 
BRANCH  15   8
ATOM      8  C   UNL     1      -3.706  -2.309  24.061  0.00  0.00    +0.060 C 
ATOM     10  C   UNL     1      -3.368  -3.107  25.286  0.00  0.00    +0.012 C 
ATOM     11  C   UNL     1      -2.343  -2.920  24.206  0.00  0.00    +0.012 C 
ENDBRANCH  15   8
ENDBRANCH   9  16
BRANCH  13   2
ATOM      2  O   UNL     1      -6.706   5.106  25.865  0.00  0.00    -0.390 OA
ATOM     25  H   UNL     1      -7.183   4.557  26.510  0.00  0.00    +0.210 HD
ENDBRANCH  13   2
BRANCH   5  17
ATOM     17  C   UNL     1      -2.280   3.413  26.205  0.00  0.00    +0.120 C 
BRANCH  17  18
ATOM     18  C   UNL     1      -1.228   2.694  25.404  0.00  0.00    -0.033 A 
ATOM     19  C   UNL     1      -1.043   1.322  25.568  0.00  0.00    +0.006 A 
ATOM     20  C   UNL     1      -0.438   3.400  24.497  0.00  0.00    +0.006 A 
ATOM     21  C   UNL     1      -0.068   0.656  24.825  0.00  0.00    +0.015 A 
ATOM     22  C   UNL     1       0.536   2.735  23.754  0.00  0.00    +0.015 A 
ATOM     23  C   UNL     1       0.721   1.362  23.918  0.00  0.00    +0.059 A 
BRANCH  23  24
ATOM      4  O   UNL     1       1.556  -0.363  22.485  0.00  0.00    -0.245 OA
ATOM     24  C   UNL     1       1.737   0.668  23.142  0.00  0.00    +0.337 C 
BRANCH  24   3
ATOM      3  O   UNL     1       2.952   1.280  23.208  0.00  0.00    -0.477 OA
ATOM     26  H   UNL     1       3.275   1.350  24.132  0.00  0.00    +0.295 HD
ENDBRANCH  24   3
ENDBRANCH  23  24
ENDBRANCH  17  18
ENDBRANCH   5  17
TORSDOF 7
ENDMDL
MODEL 2
REMARK VINA RESULT:      -4.3      1.921      5.646
REMARK  Name = 26744542
REMARK  7 active torsions:
REMARK  status: ('A' for Active; 'I' for Inactive)
REMARK    1  A    between atoms: O_2  and  C_13
REMARK    2  A    between atoms: O_3  and  C_24
REMARK    3  A    between atoms: N_5  and  C_17
REMARK    4  A    between atoms: C_8  and  C_15
REMARK    5  A    between atoms: C_9  and  C_16
REMARK    6  A    between atoms: C_17  and  C_18
REMARK    7  A    between atoms: C_23  and  C_24
REMARK                            x       y       z     vdW  Elec       q    Type
REMARK                         _______ _______ _______ _____ _____    ______ ____
ROOT
ATOM      5  N   UNL     1       0.917   1.866  23.995  0.00  0.00    -0.285 NA
ATOM      9  C   UNL     1       0.211   0.783  23.279  0.00  0.00    +0.149 C 
ATOM     12  C   UNL     1       1.330  -0.141  22.764  0.00  0.00    +0.061 C 
ATOM     13  C   UNL     1       2.627   0.528  23.200  0.00  0.00    +0.130 C 
ATOM     14  C   UNL     1       2.234   1.983  23.374  0.00  0.00    +0.116 C 
ENDROOT
BRANCH   9  16
ATOM      1  O   UNL     1      -0.528   0.047  25.489  0.00  0.00    -0.336 OA
ATOM      6  N   UNL     1      -1.889  -0.565  23.818  0.00  0.00    -0.194 NA
ATOM      7  N   UNL     1      -1.578  -0.667  26.082  0.00  0.00    -0.061 NA
ATOM     15  C   UNL     1      -2.338  -0.995  25.032  0.00  0.00    +0.175 A 
ATOM     16  C   UNL     1      -0.789   0.060  24.156  0.00  0.00    +0.245 A 
BRANCH  15   8
ATOM      8  C   UNL     1      -3.631  -1.801  25.187  0.00  0.00    +0.060 C 
ATOM     10  C   UNL     1      -3.730  -3.140  24.519  0.00  0.00    +0.012 C 
ATOM     11  C   UNL     1      -4.518  -1.978  23.990  0.00  0.00    +0.012 C 
ENDBRANCH  15   8
ENDBRANCH   9  16
BRANCH  13   2
ATOM      2  O   UNL     1       3.629   0.369  22.214  0.00  0.00    -0.390 OA
ATOM     25  H   UNL     1       3.963  -0.541  22.281  0.00  0.00    +0.210 HD
ENDBRANCH  13   2
BRANCH   5  17
ATOM     17  C   UNL     1       0.191   3.130  23.983  0.00  0.00    +0.120 C 
BRANCH  17  18
ATOM     18  C   UNL     1      -1.268   2.942  24.302  0.00  0.00    -0.033 A 
ATOM     19  C   UNL     1      -1.713   3.047  25.619  0.00  0.00    +0.006 A 
ATOM     20  C   UNL     1      -2.176   2.663  23.280  0.00  0.00    +0.006 A 
ATOM     21  C   UNL     1      -3.065   2.873  25.915  0.00  0.00    +0.015 A 
ATOM     22  C   UNL     1      -3.527   2.490  23.575  0.00  0.00    +0.015 A 
ATOM     23  C   UNL     1      -3.972   2.595  24.893  0.00  0.00    +0.059 A 
BRANCH  23  24
ATOM      4  O   UNL     1      -6.132   1.589  24.668  0.00  0.00    -0.245 OA
ATOM     24  C   UNL     1      -5.383   2.415  25.200  0.00  0.00    +0.337 C 
BRANCH  24   3
ATOM      3  O   UNL     1      -5.820   3.273  26.162  0.00  0.00    -0.477 OA
ATOM     26  H   UNL     1      -5.537   2.990  27.059  0.00  0.00    +0.295 HD
ENDBRANCH  24   3
ENDBRANCH  23  24
ENDBRANCH  17  18
ENDBRANCH   5  17
TORSDOF 7
ENDMDL
MODEL 3
REMARK VINA RESULT:      -4.3     16.577     18.066
REMARK  Name = 26744542
REMARK  7 active torsions:
REMARK  status: ('A' for Active; 'I' for Inactive)
REMARK    1  A    between atoms: O_2  and  C_13
REMARK    2  A    between atoms: O_3  and  C_24
REMARK    3  A    between atoms: N_5  and  C_17
REMARK    4  A    between atoms: C_8  and  C_15
REMARK    5  A    between atoms: C_9  and  C_16
REMARK    6  A    between atoms: C_17  and  C_18
REMARK    7  A    between atoms: C_23  and  C_24
REMARK                            x       y       z     vdW  Elec       q    Type
REMARK                         _______ _______ _______ _____ _____    ______ ____
ROOT
ATOM      5  N   UNL     1      -6.205 -10.055  11.672  0.00  0.00    -0.285 NA
ATOM      9  C   UNL     1      -7.599 -10.170  11.196  0.00  0.00    +0.149 C 
ATOM     12  C   UNL     1      -8.460 -10.033  12.465  0.00  0.00    +0.061 C 
ATOM     13  C   UNL     1      -7.462  -9.892  13.606  0.00  0.00    +0.130 C 
ATOM     14  C   UNL     1      -6.200 -10.529  13.055  0.00  0.00    +0.116 C 
ENDROOT
BRANCH   9  16
ATOM      1  O   UNL     1      -6.983  -8.881   9.212  0.00  0.00    -0.336 OA
ATOM      6  N   UNL     1      -9.040  -8.444   9.986  0.00  0.00    -0.194 NA
ATOM      7  N   UNL     1      -7.524  -7.911   8.357  0.00  0.00    -0.061 NA
ATOM     15  C   UNL     1      -8.737  -7.705   8.880  0.00  0.00    +0.175 A 
ATOM     16  C   UNL     1      -7.940  -9.138  10.141  0.00  0.00    +0.245 A 
BRANCH  15   8
ATOM      8  C   UNL     1      -9.722  -6.703   8.271  0.00  0.00    +0.060 C 
ATOM     10  C   UNL     1      -9.527  -5.242   8.546  0.00  0.00    +0.012 C 
ATOM     11  C   UNL     1     -10.668  -5.978   9.182  0.00  0.00    +0.012 C 
ENDBRANCH  15   8
ENDBRANCH   9  16
BRANCH  13   2
ATOM      2  O   UNL     1      -7.925 -10.562  14.763  0.00  0.00    -0.390 OA
ATOM     25  H   UNL     1      -8.821 -10.234  14.951  0.00  0.00    +0.210 HD
ENDBRANCH  13   2
BRANCH   5  17
ATOM     17  C   UNL     1      -5.253 -10.781  10.841  0.00  0.00    +0.120 C 
BRANCH  17  18
ATOM     18  C   UNL     1      -3.857 -10.233  10.976  0.00  0.00    -0.033 A 
ATOM     19  C   UNL     1      -3.443  -9.175  10.168  0.00  0.00    +0.006 A 
ATOM     20  C   UNL     1      -2.979 -10.781  11.910  0.00  0.00    +0.006 A 
ATOM     21  C   UNL     1      -2.150  -8.665  10.293  0.00  0.00    +0.015 A 
ATOM     22  C   UNL     1      -1.687 -10.272  12.036  0.00  0.00    +0.015 A 
ATOM     23  C   UNL     1      -1.273  -9.214  11.227  0.00  0.00    +0.059 A 
BRANCH  23  24
ATOM      4  O   UNL     1       1.022  -8.936  10.606  0.00  0.00    -0.245 OA
ATOM     24  C   UNL     1       0.075  -8.683  11.359  0.00  0.00    +0.337 C 
BRANCH  24   3
ATOM      3  O   UNL     1       0.205  -7.851  12.429  0.00  0.00    -0.477 OA
ATOM     26  H   UNL     1       0.074  -6.911  12.178  0.00  0.00    +0.295 HD
ENDBRANCH  24   3
ENDBRANCH  23  24
ENDBRANCH  17  18
ENDBRANCH   5  17
TORSDOF 7
ENDMDL
MODEL 4
REMARK VINA RESULT:      -4.0      2.088      6.650
REMARK  Name = 26744542
REMARK  7 active torsions:
REMARK  status: ('A' for Active; 'I' for Inactive)
REMARK    1  A    between atoms: O_2  and  C_13
REMARK    2  A    between atoms: O_3  and  C_24
REMARK    3  A    between atoms: N_5  and  C_17
REMARK    4  A    between atoms: C_8  and  C_15
REMARK    5  A    between atoms: C_9  and  C_16
REMARK    6  A    between atoms: C_17  and  C_18
REMARK    7  A    between atoms: C_23  and  C_24
REMARK                            x       y       z     vdW  Elec       q    Type
REMARK                         _______ _______ _______ _____ _____    ______ ____
ROOT
ATOM      5  N   UNL     1      -0.043   0.053  23.574  0.00  0.00    -0.285 NA
ATOM      9  C   UNL     1       0.686   1.037  24.401  0.00  0.00    +0.149 C 
ATOM     12  C   UNL     1       2.003   1.289  23.644  0.00  0.00    +0.061 C 
ATOM     13  C   UNL     1       1.943   0.369  22.432  0.00  0.00    +0.130 C 
ATOM     14  C   UNL     1       0.972  -0.716  22.857  0.00  0.00    +0.116 C 
ENDROOT
BRANCH   9  16
ATOM      1  O   UNL     1       0.133   3.336  23.780  0.00  0.00    -0.336 OA
ATOM      6  N   UNL     1      -1.011   2.565  25.545  0.00  0.00    -0.194 NA
ATOM      7  N   UNL     1      -0.708   4.380  24.187  0.00  0.00    -0.061 NA
ATOM     15  C   UNL     1      -1.349   3.849  25.232  0.00  0.00    +0.175 A 
ATOM     16  C   UNL     1      -0.108   2.305  24.632  0.00  0.00    +0.245 A 
BRANCH  15   8
ATOM      8  C   UNL     1      -2.398   4.634  26.025  0.00  0.00    +0.060 C 
ATOM     10  C   UNL     1      -3.375   3.878  26.876  0.00  0.00    +0.012 C 
ATOM     11  C   UNL     1      -3.836   4.538  25.610  0.00  0.00    +0.012 C 
ENDBRANCH  15   8
ENDBRANCH   9  16
BRANCH  13   2
ATOM      2  O   UNL     1       3.223  -0.158  22.139  0.00  0.00    -0.390 OA
ATOM     25  H   UNL     1       3.544  -0.607  22.939  0.00  0.00    +0.210 HD
ENDBRANCH  13   2
BRANCH   5  17
ATOM     17  C   UNL     1      -0.933  -0.801  24.349  0.00  0.00    +0.120 C 
BRANCH  17  18
ATOM     18  C   UNL     1      -2.284  -0.169  24.550  0.00  0.00    -0.033 A 
ATOM     19  C   UNL     1      -3.087  -0.566  25.618  0.00  0.00    +0.006 A 
ATOM     20  C   UNL     1      -2.733   0.813  23.668  0.00  0.00    +0.006 A 
ATOM     21  C   UNL     1      -4.340   0.020  25.805  0.00  0.00    +0.015 A 
ATOM     22  C   UNL     1      -3.985   1.399  23.854  0.00  0.00    +0.015 A 
ATOM     23  C   UNL     1      -4.788   1.003  24.923  0.00  0.00    +0.059 A 
BRANCH  23  24
ATOM      4  O   UNL     1      -6.973   1.715  24.255  0.00  0.00    -0.245 OA
ATOM     24  C   UNL     1      -6.093   1.615  25.117  0.00  0.00    +0.337 C 
BRANCH  24   3
ATOM      3  O   UNL     1      -6.264   2.087  26.383  0.00  0.00    -0.477 OA
ATOM     26  H   UNL     1      -6.902   2.832  26.411  0.00  0.00    +0.295 HD
ENDBRANCH  24   3
ENDBRANCH  23  24
ENDBRANCH  17  18
ENDBRANCH   5  17
TORSDOF 7
ENDMDL
MODEL 5
REMARK VINA RESULT:      -3.6     19.369     21.106
REMARK  Name = 26744542
REMARK  7 active torsions:
REMARK  status: ('A' for Active; 'I' for Inactive)
REMARK    1  A    between atoms: O_2  and  C_13
REMARK    2  A    between atoms: O_3  and  C_24
REMARK    3  A    between atoms: N_5  and  C_17
REMARK    4  A    between atoms: C_8  and  C_15
REMARK    5  A    between atoms: C_9  and  C_16
REMARK    6  A    between atoms: C_17  and  C_18
REMARK    7  A    between atoms: C_23  and  C_24
REMARK                            x       y       z     vdW  Elec       q    Type
REMARK                         _______ _______ _______ _____ _____    ______ ____
ROOT
ATOM      5  N   UNL     1      16.298  -7.879  27.063  0.00  0.00    -0.285 NA
ATOM      9  C   UNL     1      17.055  -7.901  25.794  0.00  0.00    +0.149 C 
ATOM     12  C   UNL     1      16.291  -8.894  24.898  0.00  0.00    +0.061 C 
ATOM     13  C   UNL     1      15.151  -9.411  25.765  0.00  0.00    +0.130 C 
ATOM     14  C   UNL     1      15.649  -9.183  27.180  0.00  0.00    +0.116 C 
ENDROOT
BRANCH   9  16
ATOM      1  O   UNL     1      17.299  -6.485  23.817  0.00  0.00    -0.336 OA
ATOM      6  N   UNL     1      17.199  -5.352  25.746  0.00  0.00    -0.194 NA
ATOM      7  N   UNL     1      17.401  -5.129  23.478  0.00  0.00    -0.061 NA
ATOM     15  C   UNL     1      17.335  -4.526  24.669  0.00  0.00    +0.175 A 
ATOM     16  C   UNL     1      17.183  -6.528  25.170  0.00  0.00    +0.245 A 
BRANCH  15   8
ATOM      8  C   UNL     1      17.405  -3.003  24.811  0.00  0.00    +0.060 C 
ATOM     10  C   UNL     1      16.176  -2.193  24.523  0.00  0.00    +0.012 C 
ATOM     11  C   UNL     1      17.336  -2.159  23.572  0.00  0.00    +0.012 C 
ENDBRANCH  15   8
ENDBRANCH   9  16
BRANCH  13   2
ATOM      2  O   UNL     1      14.908 -10.781  25.509  0.00  0.00    -0.390 OA
ATOM     25  H   UNL     1      14.258 -11.090  26.162  0.00  0.00    +0.210 HD
ENDBRANCH  13   2
BRANCH   5  17
ATOM     17  C   UNL     1      17.129  -7.575  28.221  0.00  0.00    +0.120 C 
BRANCH  17  18
ATOM     18  C   UNL     1      16.435  -6.647  29.182  0.00  0.00    -0.033 A 
ATOM     19  C   UNL     1      15.257  -7.049  29.811  0.00  0.00    +0.006 A 
ATOM     20  C   UNL     1      16.968  -5.385  29.443  0.00  0.00    +0.006 A 
ATOM     21  C   UNL     1      14.614  -6.190  30.702  0.00  0.00    +0.015 A 
ATOM     22  C   UNL     1      16.325  -4.526  30.333  0.00  0.00    +0.015 A 
ATOM     23  C   UNL     1      15.148  -4.928  30.963  0.00  0.00    +0.059 A 
BRANCH  23  24
ATOM      4  O   UNL     1      14.998  -3.062  32.453  0.00  0.00    -0.245 OA
ATOM     24  C   UNL     1      14.478  -4.032  31.893  0.00  0.00    +0.337 C 
BRANCH  24   3
ATOM      3  O   UNL     1      13.175  -4.373  32.098  0.00  0.00    -0.477 OA
ATOM     26  H   UNL     1      13.026  -5.334  31.971  0.00  0.00    +0.295 HD
ENDBRANCH  24   3
ENDBRANCH  23  24
ENDBRANCH  17  18
ENDBRANCH   5  17
TORSDOF 7
ENDMDL
MODEL 6
REMARK VINA RESULT:      -3.3      2.167      5.150
REMARK  Name = 26744542
REMARK  7 active torsions:
REMARK  status: ('A' for Active; 'I' for Inactive)
REMARK    1  A    between atoms: O_2  and  C_13
REMARK    2  A    between atoms: O_3  and  C_24
REMARK    3  A    between atoms: N_5  and  C_17
REMARK    4  A    between atoms: C_8  and  C_15
REMARK    5  A    between atoms: C_9  and  C_16
REMARK    6  A    between atoms: C_17  and  C_18
REMARK    7  A    between atoms: C_23  and  C_24
REMARK                            x       y       z     vdW  Elec       q    Type
REMARK                         _______ _______ _______ _____ _____    ______ ____
ROOT
ATOM      5  N   UNL     1      -2.088  -1.275  24.811  0.00  0.00    -0.285 NA
ATOM      9  C   UNL     1      -3.024  -0.838  23.754  0.00  0.00    +0.149 C 
ATOM     12  C   UNL     1      -4.033  -1.994  23.620  0.00  0.00    +0.061 C 
ATOM     13  C   UNL     1      -3.555  -3.051  24.607  0.00  0.00    +0.130 C 
ATOM     14  C   UNL     1      -2.080  -2.736  24.778  0.00  0.00    +0.116 C 
ENDROOT
BRANCH   9  16
ATOM      1  O   UNL     1      -3.595   1.455  23.129  0.00  0.00    -0.336 OA
ATOM      6  N   UNL     1      -4.351   0.842  25.147  0.00  0.00    -0.194 NA
ATOM      7  N   UNL     1      -4.276   2.566  23.645  0.00  0.00    -0.061 NA
ATOM     15  C   UNL     1      -4.692   2.126  24.836  0.00  0.00    +0.175 A 
ATOM     16  C   UNL     1      -3.688   0.485  24.075  0.00  0.00    +0.245 A 
BRANCH  15   8
ATOM      8  C   UNL     1      -5.500   3.010  25.790  0.00  0.00    +0.060 C 
ATOM     10  C   UNL     1      -5.705   4.453  25.437  0.00  0.00    +0.012 C 
ATOM     11  C   UNL     1      -4.786   4.080  26.562  0.00  0.00    +0.012 C 
ENDBRANCH  15   8
ENDBRANCH   9  16
BRANCH  13   2
ATOM      2  O   UNL     1      -3.756  -4.351  24.085  0.00  0.00    -0.390 OA
ATOM     25  H   UNL     1      -3.752  -4.970  24.835  0.00  0.00    +0.210 HD
ENDBRANCH  13   2
BRANCH   5  17
ATOM     17  C   UNL     1      -0.751  -0.717  24.659  0.00  0.00    +0.120 C 
BRANCH  17  18
ATOM     18  C   UNL     1      -0.760   0.787  24.724  0.00  0.00    -0.033 A 
ATOM     19  C   UNL     1      -1.048   1.430  25.928  0.00  0.00    +0.006 A 
ATOM     20  C   UNL     1      -0.479   1.538  23.583  0.00  0.00    +0.006 A 
ATOM     21  C   UNL     1      -1.056   2.824  25.989  0.00  0.00    +0.015 A 
ATOM     22  C   UNL     1      -0.487   2.931  23.645  0.00  0.00    +0.015 A 
ATOM     23  C   UNL     1      -0.775   3.574  24.848  0.00  0.00    +0.059 A 
BRANCH  23  24
ATOM      4  O   UNL     1       0.119   5.767  24.500  0.00  0.00    -0.245 OA
ATOM     24  C   UNL     1      -0.782   5.027  24.912  0.00  0.00    +0.337 C 
BRANCH  24   3
ATOM      3  O   UNL     1      -1.914   5.518  25.488  0.00  0.00    -0.477 OA
ATOM     26  H   UNL     1      -1.725   6.293  26.060  0.00  0.00    +0.295 HD
ENDBRANCH  24   3
ENDBRANCH  23  24
ENDBRANCH  17  18
ENDBRANCH   5  17
TORSDOF 7
ENDMDL
MODEL 7
REMARK VINA RESULT:      -3.2      2.773      6.830
REMARK  Name = 26744542
REMARK  7 active torsions:
REMARK  status: ('A' for Active; 'I' for Inactive)
REMARK    1  A    between atoms: O_2  and  C_13
REMARK    2  A    between atoms: O_3  and  C_24
REMARK    3  A    between atoms: N_5  and  C_17
REMARK    4  A    between atoms: C_8  and  C_15
REMARK    5  A    between atoms: C_9  and  C_16
REMARK    6  A    between atoms: C_17  and  C_18
REMARK    7  A    between atoms: C_23  and  C_24
REMARK                            x       y       z     vdW  Elec       q    Type
REMARK                         _______ _______ _______ _____ _____    ______ ____
ROOT
ATOM      5  N   UNL     1      -1.211   0.407  23.205  0.00  0.00    -0.285 NA
ATOM      9  C   UNL     1      -0.079   0.235  24.138  0.00  0.00    +0.149 C 
ATOM     12  C   UNL     1      -0.367  -1.091  24.866  0.00  0.00    +0.061 C 
ATOM     13  C   UNL     1      -1.702  -1.565  24.308  0.00  0.00    +0.130 C 
ATOM     14  C   UNL     1      -2.349  -0.289  23.802  0.00  0.00    +0.116 C 
ENDROOT
BRANCH   9  16
ATOM      1  O   UNL     1       1.281  -0.241  22.164  0.00  0.00    -0.336 OA
ATOM      6  N   UNL     1       2.428   0.641  23.873  0.00  0.00    -0.194 NA
ATOM      7  N   UNL     1       2.609  -0.137  21.730  0.00  0.00    -0.061 NA
ATOM     15  C   UNL     1       3.223   0.391  22.793  0.00  0.00    +0.175 A 
ATOM     16  C   UNL     1       1.262   0.238  23.435  0.00  0.00    +0.245 A 
BRANCH  15   8
ATOM      8  C   UNL     1       4.723   0.697  22.794  0.00  0.00    +0.060 C 
ATOM     10  C   UNL     1       5.686  -0.417  23.087  0.00  0.00    +0.012 C 
ATOM     11  C   UNL     1       5.464   0.669  24.099  0.00  0.00    +0.012 C 
ENDBRANCH  15   8
ENDBRANCH   9  16
BRANCH  13   2
ATOM      2  O   UNL     1      -2.478  -2.181  25.318  0.00  0.00    -0.390 OA
ATOM     25  H   UNL     1      -3.381  -1.830  25.247  0.00  0.00    +0.210 HD
ENDBRANCH  13   2
BRANCH   5  17
ATOM     17  C   UNL     1      -1.512   1.804  22.919  0.00  0.00    +0.120 C 
BRANCH  17  18
ATOM     18  C   UNL     1      -2.684   2.302  23.722  0.00  0.00    -0.033 A 
ATOM     19  C   UNL     1      -2.492   3.269  24.708  0.00  0.00    +0.006 A 
ATOM     20  C   UNL     1      -3.961   1.796  23.480  0.00  0.00    +0.006 A 
ATOM     21  C   UNL     1      -3.578   3.731  25.453  0.00  0.00    +0.015 A 
ATOM     22  C   UNL     1      -5.046   2.258  24.224  0.00  0.00    +0.015 A 
ATOM     23  C   UNL     1      -4.855   3.225  25.210  0.00  0.00    +0.059 A 
BRANCH  23  24
ATOM      4  O   UNL     1      -6.440   4.857  25.954  0.00  0.00    -0.245 OA
ATOM     24  C   UNL     1      -5.988   3.707  25.985  0.00  0.00    +0.337 C 
BRANCH  24   3
ATOM      3  O   UNL     1      -6.526   2.740  26.778  0.00  0.00    -0.477 OA
ATOM     26  H   UNL     1      -7.449   2.528  26.520  0.00  0.00    +0.295 HD
ENDBRANCH  24   3
ENDBRANCH  23  24
ENDBRANCH  17  18
ENDBRANCH   5  17
TORSDOF 7
ENDMDL
MODEL 8
REMARK VINA RESULT:      -2.6     17.707     20.947
REMARK  Name = 26744542
REMARK  7 active torsions:
REMARK  status: ('A' for Active; 'I' for Inactive)
REMARK    1  A    between atoms: O_2  and  C_13
REMARK    2  A    between atoms: O_3  and  C_24
REMARK    3  A    between atoms: N_5  and  C_17
REMARK    4  A    between atoms: C_8  and  C_15
REMARK    5  A    between atoms: C_9  and  C_16
REMARK    6  A    between atoms: C_17  and  C_18
REMARK    7  A    between atoms: C_23  and  C_24
REMARK                            x       y       z     vdW  Elec       q    Type
REMARK                         _______ _______ _______ _____ _____    ______ ____
ROOT
ATOM      5  N   UNL     1      14.388  -9.282  30.561  0.00  0.00    -0.285 NA
ATOM      9  C   UNL     1      15.833  -9.000  30.689  0.00  0.00    +0.149 C 
ATOM     12  C   UNL     1      16.398  -9.188  29.269  0.00  0.00    +0.061 C 
ATOM     13  C   UNL     1      15.206  -9.619  28.424  0.00  0.00    +0.130 C 
ATOM     14  C   UNL     1      14.246 -10.208  29.440  0.00  0.00    +0.116 C 
ENDROOT
BRANCH   9  16
ATOM      1  O   UNL     1      16.306  -7.543  32.594  0.00  0.00    -0.336 OA
ATOM      6  N   UNL     1      16.191  -6.472  30.630  0.00  0.00    -0.194 NA
ATOM      7  N   UNL     1      16.542  -6.190  32.873  0.00  0.00    -0.061 NA
ATOM     15  C   UNL     1      16.457  -5.625  31.665  0.00  0.00    +0.175 A 
ATOM     16  C   UNL     1      16.110  -7.622  31.252  0.00  0.00    +0.245 A 
BRANCH  15   8
ATOM      8  C   UNL     1      16.648  -4.119  31.460  0.00  0.00    +0.060 C 
ATOM     10  C   UNL     1      16.502  -3.206  32.641  0.00  0.00    +0.012 C 
ATOM     11  C   UNL     1      15.453  -3.219  31.569  0.00  0.00    +0.012 C 
ENDBRANCH  15   8
ENDBRANCH   9  16
BRANCH  13   2
ATOM      2  O   UNL     1      15.597 -10.573  27.456  0.00  0.00    -0.390 OA
ATOM     25  H   UNL     1      16.550 -10.729  27.568  0.00  0.00    +0.210 HD
ENDBRANCH  13   2
BRANCH   5  17
ATOM     17  C   UNL     1      13.795  -9.806  31.784  0.00  0.00    +0.120 C 
BRANCH  17  18
ATOM     18  C   UNL     1      12.332  -9.470  31.887  0.00  0.00    -0.033 A 
ATOM     19  C   UNL     1      11.929  -8.142  32.022  0.00  0.00    +0.006 A 
ATOM     20  C   UNL     1      11.377 -10.487  31.847  0.00  0.00    +0.006 A 
ATOM     21  C   UNL     1      10.573  -7.830  32.116  0.00  0.00    +0.015 A 
ATOM     22  C   UNL     1      10.022 -10.175  31.941  0.00  0.00    +0.015 A 
ATOM     23  C   UNL     1       9.619  -8.847  32.076  0.00  0.00    +0.059 A 
BRANCH  23  24
ATOM      4  O   UNL     1       7.727  -7.591  32.829  0.00  0.00    -0.245 OA
ATOM     24  C   UNL     1       8.204  -8.523  32.173  0.00  0.00    +0.337 C 
BRANCH  24   3
ATOM      3  O   UNL     1       7.424  -9.372  31.449  0.00  0.00    -0.477 OA
ATOM     26  H   UNL     1       7.411  -9.133  30.497  0.00  0.00    +0.295 HD
ENDBRANCH  24   3
ENDBRANCH  23  24
ENDBRANCH  17  18
ENDBRANCH   5  17
TORSDOF 7
ENDMDL
MODEL 9
REMARK VINA RESULT:      -2.4     15.040     16.782
REMARK  Name = 26744542
REMARK  7 active torsions:
REMARK  status: ('A' for Active; 'I' for Inactive)
REMARK    1  A    between atoms: O_2  and  C_13
REMARK    2  A    between atoms: O_3  and  C_24
REMARK    3  A    between atoms: N_5  and  C_17
REMARK    4  A    between atoms: C_8  and  C_15
REMARK    5  A    between atoms: C_9  and  C_16
REMARK    6  A    between atoms: C_17  and  C_18
REMARK    7  A    between atoms: C_23  and  C_24
REMARK                            x       y       z     vdW  Elec       q    Type
REMARK                         _______ _______ _______ _____ _____    ______ ____
ROOT
ATOM      5  N   UNL     1      -4.068 -10.174  13.540  0.00  0.00    -0.285 NA
ATOM      9  C   UNL     1      -5.335 -10.658  12.952  0.00  0.00    +0.149 C 
ATOM     12  C   UNL     1      -6.366 -10.539  14.089  0.00  0.00    +0.061 C 
ATOM     13  C   UNL     1      -5.577 -10.024  15.286  0.00  0.00    +0.130 C 
ATOM     14  C   UNL     1      -4.151 -10.438  14.975  0.00  0.00    +0.116 C 
ENDROOT
BRANCH   9  16
ATOM      1  O   UNL     1      -4.859  -8.942  11.278  0.00  0.00    -0.336 OA
ATOM      6  N   UNL     1      -6.819  -9.986  10.986  0.00  0.00    -0.194 NA
ATOM      7  N   UNL     1      -5.440  -8.370  10.138  0.00  0.00    -0.061 NA
ATOM     15  C   UNL     1      -6.592  -9.038  10.031  0.00  0.00    +0.175 A 
ATOM     16  C   UNL     1      -5.735  -9.883  11.714  0.00  0.00    +0.245 A 
BRANCH  15   8
ATOM      8  C   UNL     1      -7.593  -8.755   8.907  0.00  0.00    +0.060 C 
ATOM     10  C   UNL     1      -8.141  -7.366   8.762  0.00  0.00    +0.012 C 
ATOM     11  C   UNL     1      -9.022  -8.471   9.267  0.00  0.00    +0.012 C 
ENDBRANCH  15   8
ENDBRANCH   9  16
BRANCH  13   2
ATOM      2  O   UNL     1      -6.044 -10.612  16.485  0.00  0.00    -0.390 OA
ATOM     25  H   UNL     1      -5.712 -10.073  17.223  0.00  0.00    +0.210 HD
ENDBRANCH  13   2
BRANCH   5  17
ATOM     17  C   UNL     1      -2.888 -10.781  12.938  0.00  0.00    +0.120 C 
BRANCH  17  18
ATOM     18  C   UNL     1      -1.777  -9.783  12.751  0.00  0.00    -0.033 A 
ATOM     19  C   UNL     1      -1.338  -9.460  11.467  0.00  0.00    +0.006 A 
ATOM     20  C   UNL     1      -1.186  -9.179  13.862  0.00  0.00    +0.006 A 
ATOM     21  C   UNL     1      -0.309  -8.534  11.294  0.00  0.00    +0.015 A 
ATOM     22  C   UNL     1      -0.158  -8.254  13.688  0.00  0.00    +0.015 A 
ATOM     23  C   UNL     1       0.281  -7.932  12.404  0.00  0.00    +0.059 A 
BRANCH  23  24
ATOM      4  O   UNL     1       1.267  -5.752  12.437  0.00  0.00    -0.245 OA
ATOM     24  C   UNL     1       1.354  -6.966  12.224  0.00  0.00    +0.337 C 
BRANCH  24   3
ATOM      3  O   UNL     1       2.505  -7.542  11.782  0.00  0.00    -0.477 OA
ATOM     26  H   UNL     1       2.513  -7.639  10.806  0.00  0.00    +0.295 HD
ENDBRANCH  24   3
ENDBRANCH  23  24
ENDBRANCH  17  18
ENDBRANCH   5  17
TORSDOF 7
ENDMDL
MODEL 10
REMARK VINA RESULT:      -2.2      2.038      5.021
REMARK  Name = 26744542
REMARK  7 active torsions:
REMARK  status: ('A' for Active; 'I' for Inactive)
REMARK    1  A    between atoms: O_2  and  C_13
REMARK    2  A    between atoms: O_3  and  C_24
REMARK    3  A    between atoms: N_5  and  C_17
REMARK    4  A    between atoms: C_8  and  C_15
REMARK    5  A    between atoms: C_9  and  C_16
REMARK    6  A    between atoms: C_17  and  C_18
REMARK    7  A    between atoms: C_23  and  C_24
REMARK                            x       y       z     vdW  Elec       q    Type
REMARK                         _______ _______ _______ _____ _____    ______ ____
ROOT
ATOM      5  N   UNL     1      -1.919  -0.176  24.079  0.00  0.00    -0.285 NA
ATOM      9  C   UNL     1      -3.283   0.364  24.258  0.00  0.00    +0.149 C 
ATOM     12  C   UNL     1      -3.980  -0.636  25.200  0.00  0.00    +0.061 C 
ATOM     13  C   UNL     1      -2.945  -1.723  25.457  0.00  0.00    +0.130 C 
ATOM     14  C   UNL     1      -2.019  -1.622  24.259  0.00  0.00    +0.116 C 
ENDROOT
BRANCH   9  16
ATOM      1  O   UNL     1      -4.467   2.244  25.275  0.00  0.00    -0.336 OA
ATOM      6  N   UNL     1      -2.297   2.635  24.883  0.00  0.00    -0.194 NA
ATOM      7  N   UNL     1      -4.220   3.551  25.716  0.00  0.00    -0.061 NA
ATOM     15  C   UNL     1      -2.920   3.707  25.451  0.00  0.00    +0.175 A 
ATOM     16  C   UNL     1      -3.283   1.777  24.800  0.00  0.00    +0.245 A 
BRANCH  15   8
ATOM      8  C   UNL     1      -2.179   5.010  25.767  0.00  0.00    +0.060 C 
ATOM     10  C   UNL     1      -2.082   6.061  24.701  0.00  0.00    +0.012 C 
ATOM     11  C   UNL     1      -0.865   5.274  25.091  0.00  0.00    +0.012 C 
ENDBRANCH  15   8
ENDBRANCH   9  16
BRANCH  13   2
ATOM      2  O   UNL     1      -3.562  -2.994  25.537  0.00  0.00    -0.390 OA
ATOM     25  H   UNL     1      -2.997  -3.559  26.090  0.00  0.00    +0.210 HD
ENDBRANCH  13   2
BRANCH   5  17
ATOM     17  C   UNL     1      -1.327   0.177  22.795  0.00  0.00    +0.120 C 
BRANCH  17  18
ATOM     18  C   UNL     1       0.174   0.260  22.873  0.00  0.00    -0.033 A 
ATOM     19  C   UNL     1       0.778   1.179  23.730  0.00  0.00    +0.006 A 
ATOM     20  C   UNL     1       0.962  -0.582  22.088  0.00  0.00    +0.006 A 
ATOM     21  C   UNL     1       2.169   1.256  23.804  0.00  0.00    +0.015 A 
ATOM     22  C   UNL     1       2.352  -0.505  22.161  0.00  0.00    +0.015 A 
ATOM     23  C   UNL     1       2.956   0.414  23.019  0.00  0.00    +0.059 A 
BRANCH  23  24
ATOM      4  O   UNL     1       5.180   0.399  22.137  0.00  0.00    -0.245 OA
ATOM     24  C   UNL     1       4.406   0.493  23.095  0.00  0.00    +0.337 C 
BRANCH  24   3
ATOM      3  O   UNL     1       4.851   0.685  24.368  0.00  0.00    -0.477 OA
ATOM     26  H   UNL     1       5.822   0.563  24.437  0.00  0.00    +0.295 HD
ENDBRANCH  24   3
ENDBRANCH  23  24
ENDBRANCH  17  18
ENDBRANCH   5  17
TORSDOF 7
ENDMDL
