MODEL 1
REMARK VINA RESULT:      -0.2      0.000      0.000
REMARK  Name = 11866353
REMARK  10 active torsions:
REMARK  status: ('A' for Active; 'I' for Inactive)
REMARK    1  A    between atoms: O_1  and  C_11
REMARK    2  A    between atoms: O_2  and  C_14
REMARK    3  A    between atoms: O_3  and  C_16
REMARK    4  A    between atoms: N_7  and  C_12
REMARK    5  A    between atoms: N_8  and  C_19
REMARK    6  A    between atoms: N_9  and  C_22
REMARK    7  A    between atoms: C_11  and  C_17
REMARK    8  A    between atoms: C_19  and  C_20
REMARK    9  A    between atoms: C_19  and  C_21
REMARK   10  A    between atoms: C_27  and  C_28
REMARK                            x       y       z     vdW  Elec       q    Type
REMARK                         _______ _______ _______ _____ _____    ______ ____
ROOT
ATOM     11  C   UNL     1      -3.620   2.123  24.568  0.00  0.00    +0.146 C 
ATOM     12  C   UNL     1      -1.460   3.225  23.809  0.00  0.00    +0.109 C 
ATOM     13  C   UNL     1      -2.215   1.906  24.005  0.00  0.00    +0.069 C 
ATOM     14  C   UNL     1      -1.436   4.066  25.092  0.00  0.00    +0.163 C 
ATOM     15  C   UNL     1      -3.582   2.944  25.856  0.00  0.00    +0.078 C 
ATOM     16  C   UNL     1      -2.839   4.268  25.671  0.00  0.00    +0.148 C 
ENDROOT
BRANCH  12   7
ATOM      5  O   UNL     1       0.187   1.003  24.555  0.00  0.00    -0.252 OA
ATOM      7  N   UNL     1      -0.114   2.954  23.353  0.00  0.00    -0.294 N 
ATOM      9  N   UNL     1       1.882   1.843  23.166  0.00  0.00    -0.269 N 
ATOM     18  C   UNL     1       0.621   1.842  23.769  0.00  0.00    +0.304 C 
ATOM     29  H   UNL     1       0.343   3.642  22.761  0.00  0.00    +0.151 HD
ATOM     34  H   UNL     1       2.084   2.615  22.535  0.00  0.00    +0.156 HD
BRANCH   9  22
ATOM     22  C   UNL     1       2.921   0.896  23.323  0.00  0.00    +0.035 A 
ATOM     23  C   UNL     1       2.603  -0.446  23.445  0.00  0.00    +0.023 A 
ATOM     24  C   UNL     1       4.236   1.331  23.350  0.00  0.00    +0.023 A 
ATOM     25  C   UNL     1       3.627  -1.381  23.600  0.00  0.00    +0.005 A 
ATOM     26  C   UNL     1       5.261   0.396  23.505  0.00  0.00    +0.005 A 
ATOM     27  C   UNL     1       4.956  -0.958  23.629  0.00  0.00    -0.050 A 
ATOM     28  C   UNL     1       6.052  -1.957  23.794  0.00  0.00    +0.044 C 
ENDBRANCH   9  22
ENDBRANCH  12   7
BRANCH  11  17
ATOM      4  O   UNL     1      -5.517   0.676  24.695  0.00  0.00    -0.273 OA
ATOM      8  N   UNL     1      -3.411  -0.181  25.194  0.00  0.00    -0.302 N 
ATOM     17  C   UNL     1      -4.302   0.809  24.813  0.00  0.00    +0.245 C 
ATOM     33  H   UNL     1      -2.425   0.038  25.299  0.00  0.00    +0.150 HD
BRANCH   8  19
ATOM     19  C   UNL     1      -3.817  -1.531  25.510  0.00  0.00    +0.156 C 
ATOM     20  C   UNL     1      -3.117  -2.034  26.762  0.00  0.00    +0.038 C 
BRANCH  19  21
ATOM      6  O   UNL     1      -4.340  -2.810  23.512  0.00  0.00    -0.274 OA
ATOM     10  N   UNL     1      -2.152  -2.693  24.199  0.00  0.00    -0.328 N 
ATOM     21  C   UNL     1      -3.497  -2.415  24.314  0.00  0.00    +0.231 C 
ATOM     35  H   UNL     1      -1.801  -3.265  23.437  0.00  0.00    +0.145 HD
ATOM     36  H   UNL     1      -1.464  -2.344  24.858  0.00  0.00    +0.145 HD
ENDBRANCH  19  21
ENDBRANCH   8  19
ENDBRANCH  11  17
BRANCH  11   1
ATOM      1  O   UNL     1      -4.440   2.791  23.615  0.00  0.00    -0.379 OA
ATOM     30  H   UNL     1      -4.896   3.525  24.062  0.00  0.00    +0.211 HD
ENDBRANCH  11   1
BRANCH  14   2
ATOM      2  O   UNL     1      -0.900   5.358  24.795  0.00  0.00    -0.387 OA
ATOM     31  H   UNL     1      -1.003   5.508  23.840  0.00  0.00    +0.210 HD
ENDBRANCH  14   2
BRANCH  16   3
ATOM      3  O   UNL     1      -2.715   4.907  26.941  0.00  0.00    -0.389 OA
ATOM     32  H   UNL     1      -3.304   4.447  27.564  0.00  0.00    +0.210 HD
ENDBRANCH  16   3
TORSDOF 8
ENDMDL
MODEL 2
REMARK VINA RESULT:       0.8      1.634      4.857
REMARK  Name = 11866353
REMARK  10 active torsions:
REMARK  status: ('A' for Active; 'I' for Inactive)
REMARK    1  A    between atoms: O_1  and  C_11
REMARK    2  A    between atoms: O_2  and  C_14
REMARK    3  A    between atoms: O_3  and  C_16
REMARK    4  A    between atoms: N_7  and  C_12
REMARK    5  A    between atoms: N_8  and  C_19
REMARK    6  A    between atoms: N_9  and  C_22
REMARK    7  A    between atoms: C_11  and  C_17
REMARK    8  A    between atoms: C_19  and  C_20
REMARK    9  A    between atoms: C_19  and  C_21
REMARK   10  A    between atoms: C_27  and  C_28
REMARK                            x       y       z     vdW  Elec       q    Type
REMARK                         _______ _______ _______ _____ _____    ______ ____
ROOT
ATOM     11  C   UNL     1      -3.843   0.153  25.023  0.00  0.00    +0.146 C 
ATOM     12  C   UNL     1      -2.025  -1.456  24.274  0.00  0.00    +0.109 C 
ATOM     13  C   UNL     1      -2.463   0.008  24.381  0.00  0.00    +0.069 C 
ATOM     14  C   UNL     1      -3.077  -2.316  23.561  0.00  0.00    +0.163 C 
ATOM     15  C   UNL     1      -4.886  -0.692  24.292  0.00  0.00    +0.078 C 
ATOM     16  C   UNL     1      -4.466  -2.158  24.186  0.00  0.00    +0.148 C 
ENDROOT
BRANCH  12   7
ATOM      5  O   UNL     1       0.420  -0.181  25.048  0.00  0.00    -0.252 OA
ATOM      7  N   UNL     1      -0.753  -1.537  23.590  0.00  0.00    -0.294 N 
ATOM      9  N   UNL     1       1.467  -1.141  23.180  0.00  0.00    -0.269 N 
ATOM     18  C   UNL     1       0.395  -0.880  24.038  0.00  0.00    +0.304 C 
ATOM     29  H   UNL     1      -0.711  -2.034  22.704  0.00  0.00    +0.151 HD
ATOM     34  H   UNL     1       1.277  -1.745  22.384  0.00  0.00    +0.156 HD
BRANCH   9  22
ATOM     22  C   UNL     1       2.796  -0.668  23.281  0.00  0.00    +0.035 A 
ATOM     23  C   UNL     1       3.107   0.591  22.795  0.00  0.00    +0.023 A 
ATOM     24  C   UNL     1       3.760  -1.474  23.864  0.00  0.00    +0.023 A 
ATOM     25  C   UNL     1       4.418   1.059  22.895  0.00  0.00    +0.005 A 
ATOM     26  C   UNL     1       5.071  -1.006  23.963  0.00  0.00    +0.005 A 
ATOM     27  C   UNL     1       5.399   0.259  23.480  0.00  0.00    -0.050 A 
ATOM     28  C   UNL     1       6.801   0.758  23.586  0.00  0.00    +0.044 C 
ENDBRANCH   9  22
ENDBRANCH  12   7
BRANCH  11  17
ATOM      4  O   UNL     1      -5.452   1.919  25.026  0.00  0.00    -0.273 OA
ATOM      8  N   UNL     1      -3.188   2.457  25.072  0.00  0.00    -0.302 N 
ATOM     17  C   UNL     1      -4.269   1.592  25.047  0.00  0.00    +0.245 C 
ATOM     33  H   UNL     1      -2.243   2.088  25.049  0.00  0.00    +0.150 HD
BRANCH   8  19
ATOM     19  C   UNL     1      -3.327   3.895  25.076  0.00  0.00    +0.156 C 
ATOM     20  C   UNL     1      -3.932   4.390  23.772  0.00  0.00    +0.038 C 
BRANCH  19  21
ATOM      6  O   UNL     1      -1.699   5.697  25.141  0.00  0.00    -0.274 OA
ATOM     10  N   UNL     1      -1.029   3.589  25.760  0.00  0.00    -0.328 N 
ATOM     21  C   UNL     1      -1.953   4.506  25.305  0.00  0.00    +0.231 C 
ATOM     35  H   UNL     1      -0.075   3.867  25.963  0.00  0.00    +0.145 HD
ATOM     36  H   UNL     1      -1.258   2.611  25.910  0.00  0.00    +0.145 HD
ENDBRANCH  19  21
ENDBRANCH   8  19
ENDBRANCH  11  17
BRANCH  11   1
ATOM      1  O   UNL     1      -3.801  -0.242  26.390  0.00  0.00    -0.379 OA
ATOM     30  H   UNL     1      -4.447   0.292  26.884  0.00  0.00    +0.211 HD
ENDBRANCH  11   1
BRANCH  14   2
ATOM      2  O   UNL     1      -2.708  -3.693  23.669  0.00  0.00    -0.387 OA
ATOM     31  H   UNL     1      -1.853  -3.806  23.221  0.00  0.00    +0.210 HD
ENDBRANCH  14   2
BRANCH  16   3
ATOM      3  O   UNL     1      -5.410  -2.850  23.369  0.00  0.00    -0.389 OA
ATOM     32  H   UNL     1      -6.010  -2.188  22.984  0.00  0.00    +0.210 HD
ENDBRANCH  16   3
TORSDOF 8
ENDMDL
