MODEL 1
REMARK VINA RESULT:      -9.3      0.000      0.000
REMARK  Name = 51137959
REMARK  7 active torsions:
REMARK  status: ('A' for Active; 'I' for Inactive)
REMARK    1  A    between atoms: N_5  and  C_22
REMARK    2  A    between atoms: C_6  and  C_8
REMARK    3  A    between atoms: C_7  and  C_17
REMARK    4  A    between atoms: C_8  and  C_13
REMARK    5  A    between atoms: C_13  and  C_18
REMARK    6  A    between atoms: C_13  and  C_19
REMARK    7  A    between atoms: C_22  and  C_23
REMARK                            x       y       z     vdW  Elec       q    Type
REMARK                         _______ _______ _______ _____ _____    ______ ____
ROOT
ATOM      3  N   UNL     1      -1.395  -0.059  24.772  0.00  0.00    -0.299 NA
ATOM      4  N   UNL     1      -2.156   4.893  25.402  0.00  0.00    -0.360 N 
ATOM      6  C   UNL     1      -2.849   0.133  24.689  0.00  0.00    +0.085 C 
ATOM      7  C   UNL     1      -0.621   0.732  23.827  0.00  0.00    +0.145 C 
ATOM      9  C   UNL     1      -3.359   1.537  25.032  0.00  0.00    -0.021 A 
ATOM     10  C   UNL     1      -2.554   2.711  25.087  0.00  0.00    +0.008 A 
ATOM     11  C   UNL     1      -0.092   2.013  24.469  0.00  0.00    +0.065 C 
ATOM     12  C   UNL     1      -1.160   2.980  24.858  0.00  0.00    -0.020 A 
ATOM     14  C   UNL     1      -3.147   3.939  25.401  0.00  0.00    +0.047 A 
ATOM     15  C   UNL     1      -4.750   1.722  25.241  0.00  0.00    +0.006 A 
ATOM     16  C   UNL     1      -0.960   4.329  25.072  0.00  0.00    +0.087 A 
ATOM     20  C   UNL     1      -4.512   4.093  25.650  0.00  0.00    +0.026 A 
ATOM     21  C   UNL     1      -5.309   2.960  25.551  0.00  0.00    +0.002 A 
ATOM     27  H   UNL     1      -1.063   0.079  25.726  0.00  0.00    +0.123 HD
ATOM     28  H   UNL     1      -2.300   5.874  25.602  0.00  0.00    +0.165 HD
ENDROOT
BRANCH   7  17
ATOM      1  O   UNL     1       0.804  -1.169  24.052  0.00  0.00    -0.274 OA
ATOM      5  N   UNL     1       1.241   0.375  22.365  0.00  0.00    -0.307 N 
ATOM     17  C   UNL     1       0.536  -0.137  23.441  0.00  0.00    +0.231 C 
ATOM     29  H   UNL     1       0.925   1.230  21.917  0.00  0.00    +0.149 HD
BRANCH   5  22
ATOM     22  C   UNL     1       2.413  -0.262  21.812  0.00  0.00    +0.178 C 
BRANCH  22  23
ATOM      2  O   UNL     1       4.005  -1.163  23.412  0.00  0.00    -0.466 OA
ATOM     23  C   UNL     1       3.619  -0.080  22.688  0.00  0.00    +0.122 A 
ATOM     24  C   UNL     1       4.454   0.986  22.928  0.00  0.00    +0.046 A 
ATOM     25  C   UNL     1       5.415   0.528  23.861  0.00  0.00    +0.041 A 
ATOM     26  C   UNL     1       5.100  -0.784  24.123  0.00  0.00    +0.195 A 
ENDBRANCH  22  23
ENDBRANCH   5  22
ENDBRANCH   7  17
BRANCH   6   8
ATOM      8  C   UNL     1      -3.439  -0.950  25.609  0.00  0.00    +0.026 C 
BRANCH   8  13
ATOM     13  C   UNL     1      -3.606  -2.303  24.909  0.00  0.00    -0.015 C 
ATOM     18  C   UNL     1      -2.225  -2.875  24.581  0.00  0.00    +0.007 C 
ATOM     19  C   UNL     1      -4.441  -2.205  23.631  0.00  0.00    +0.007 C 
ENDBRANCH   8  13
ENDBRANCH   6   8
TORSDOF 5
ENDMDL
