MODEL 1
REMARK VINA RESULT:      25.1      0.000      0.000
REMARK  Name = 7142447
REMARK  2 active torsions:
REMARK  status: ('A' for Active; 'I' for Inactive)
REMARK    1  A    between atoms: C_17  and  C_20
REMARK    2  A    between atoms: C_21  and  C_23
REMARK                            x       y       z     vdW  Elec       q    Type
REMARK                         _______ _______ _______ _____ _____    ______ ____
ROOT
ATOM      2  O   UNL     1      -2.348   0.126  22.882  0.00  0.00    -0.273 OA
ATOM      3  O   UNL     1       1.649   1.868  25.869  0.00  0.00    -0.270 OA
ATOM      4  O   UNL     1      -4.555   3.495  22.393  0.00  0.00    -0.270 OA
ATOM      5  N   UNL     1      -0.179   2.039  24.461  0.00  0.00    -0.283 N 
ATOM      6  N   UNL     1      -2.896   2.901  23.894  0.00  0.00    -0.294 N 
ATOM      7  N   UNL     1      -0.156  -0.487  22.922  0.00  0.00    -0.283 N 
ATOM      9  C   UNL     1      -0.730   1.902  23.121  0.00  0.00    +0.180 C 
ATOM     10  C   UNL     1      -1.872   2.888  22.847  0.00  0.00    +0.140 C 
ATOM     11  C   UNL     1      -0.947   2.827  25.426  0.00  0.00    +0.128 C 
ATOM     12  C   UNL     1      -2.445   2.614  25.261  0.00  0.00    +0.127 C 
ATOM     13  C   UNL     1      -1.164   0.451  22.997  0.00  0.00    +0.239 C 
ATOM     14  C   UNL     1       1.095   1.597  24.802  0.00  0.00    +0.249 C 
ATOM     15  C   UNL     1       1.831   0.720  23.852  0.00  0.00    +0.059 A 
ATOM     16  C   UNL     1       1.232  -0.291  23.082  0.00  0.00    +0.046 A 
ATOM     17  C   UNL     1      -4.216   3.262  23.555  0.00  0.00    +0.248 C 
ATOM     18  C   UNL     1       3.234   0.819  23.886  0.00  0.00    +0.024 A 
ATOM     19  C   UNL     1       2.054  -1.221  22.422  0.00  0.00    +0.024 A 
ATOM     21  C   UNL     1       4.034  -0.082  23.187  0.00  0.00    -0.010 A 
ATOM     22  C   UNL     1       3.445  -1.111  22.464  0.00  0.00    +0.011 A 
ATOM     31  H   UNL     1      -0.443  -1.415  22.619  0.00  0.00    +0.155 HD
ENDROOT
BRANCH  17  20
ATOM      8  N   UNL     1      -6.507   4.765  26.095  0.00  0.00    -0.263 NA
ATOM     20  C   UNL     1      -5.184   3.365  24.643  0.00  0.00    +0.055 A 
ATOM     24  C   UNL     1      -5.693   2.228  25.250  0.00  0.00    +0.016 A 
ATOM     25  C   UNL     1      -5.615   4.599  25.092  0.00  0.00    +0.123 A 
ATOM     27  C   UNL     1      -6.613   2.357  26.285  0.00  0.00    +0.020 A 
ATOM     28  C   UNL     1      -6.984   3.636  26.666  0.00  0.00    +0.111 A 
ENDBRANCH  17  20
BRANCH  21  23
ATOM      1  S   UNL     1       6.172   1.212  24.263  0.00  0.00    -0.097 S 
ATOM     23  C   UNL     1       5.470   0.038  23.232  0.00  0.00    +0.019 A 
ATOM     26  C   UNL     1       6.424  -0.678  22.541  0.00  0.00    +0.016 A 
ATOM     29  C   UNL     1       7.747  -0.257  22.863  0.00  0.00    +0.008 A 
ATOM     30  C   UNL     1       7.755   0.764  23.787  0.00  0.00    +0.046 A 
ENDBRANCH  21  23
TORSDOF 2
ENDMDL
MODEL 2
REMARK VINA RESULT:      25.4      1.951      2.568
REMARK  Name = 7142447
REMARK  2 active torsions:
REMARK  status: ('A' for Active; 'I' for Inactive)
REMARK    1  A    between atoms: C_17  and  C_20
REMARK    2  A    between atoms: C_21  and  C_23
REMARK                            x       y       z     vdW  Elec       q    Type
REMARK                         _______ _______ _______ _____ _____    ______ ____
ROOT
ATOM      2  O   UNL     1      -1.163   3.856  23.660  0.00  0.00    -0.273 OA
ATOM      3  O   UNL     1       0.594  -1.126  23.816  0.00  0.00    -0.270 OA
ATOM      4  O   UNL     1      -3.451   4.038  27.006  0.00  0.00    -0.270 OA
ATOM      5  N   UNL     1      -0.364   0.813  24.638  0.00  0.00    -0.283 N 
ATOM      6  N   UNL     1      -2.607   2.274  25.767  0.00  0.00    -0.294 N 
ATOM      7  N   UNL     1       0.827   2.969  23.001  0.00  0.00    -0.283 N 
ATOM      9  C   UNL     1      -0.191   2.181  25.103  0.00  0.00    +0.180 C 
ATOM     10  C   UNL     1      -1.230   2.584  26.158  0.00  0.00    +0.140 C 
ATOM     11  C   UNL     1      -1.620   0.142  24.975  0.00  0.00    +0.128 C 
ATOM     12  C   UNL     1      -2.802   1.098  24.912  0.00  0.00    +0.127 C 
ATOM     13  C   UNL     1      -0.249   3.052  23.859  0.00  0.00    +0.239 C 
ATOM     14  C   UNL     1       0.661   0.083  24.043  0.00  0.00    +0.249 C 
ATOM     15  C   UNL     1       1.898   0.793  23.622  0.00  0.00    +0.059 A 
ATOM     16  C   UNL     1       1.920   2.079  23.055  0.00  0.00    +0.046 A 
ATOM     17  C   UNL     1      -3.658   3.056  26.291  0.00  0.00    +0.248 C 
ATOM     18  C   UNL     1       3.080   0.030  23.640  0.00  0.00    +0.024 A 
ATOM     19  C   UNL     1       3.106   2.540  22.459  0.00  0.00    +0.024 A 
ATOM     21  C   UNL     1       4.261   0.522  23.088  0.00  0.00    -0.010 A 
ATOM     22  C   UNL     1       4.272   1.773  22.485  0.00  0.00    +0.011 A 
ATOM     31  H   UNL     1       0.886   3.705  22.300  0.00  0.00    +0.155 HD
ENDROOT
BRANCH  17  20
ATOM      8  N   UNL     1      -7.190   1.921  26.725  0.00  0.00    -0.263 NA
ATOM     20  C   UNL     1      -5.022   2.653  25.964  0.00  0.00    +0.055 A 
ATOM     24  C   UNL     1      -5.452   2.609  24.646  0.00  0.00    +0.016 A 
ATOM     25  C   UNL     1      -5.915   2.305  26.959  0.00  0.00    +0.123 A 
ATOM     27  C   UNL     1      -6.757   2.220  24.365  0.00  0.00    +0.020 A 
ATOM     28  C   UNL     1      -7.579   1.889  25.430  0.00  0.00    +0.111 A 
ENDBRANCH  17  20
BRANCH  21  23
ATOM      1  S   UNL     1       5.407  -1.832  23.831  0.00  0.00    -0.097 S 
ATOM     23  C   UNL     1       5.463  -0.274  23.120  0.00  0.00    +0.019 A 
ATOM     26  C   UNL     1       6.720   0.031  22.645  0.00  0.00    +0.016 A 
ATOM     29  C   UNL     1       7.649  -1.027  22.868  0.00  0.00    +0.008 A 
ATOM     30  C   UNL     1       7.066  -2.101  23.505  0.00  0.00    +0.046 A 
ENDBRANCH  21  23
TORSDOF 2
ENDMDL
MODEL 3
REMARK VINA RESULT:      27.1      3.270      9.459
REMARK  Name = 7142447
REMARK  2 active torsions:
REMARK  status: ('A' for Active; 'I' for Inactive)
REMARK    1  A    between atoms: C_17  and  C_20
REMARK    2  A    between atoms: C_21  and  C_23
REMARK                            x       y       z     vdW  Elec       q    Type
REMARK                         _______ _______ _______ _____ _____    ______ ____
ROOT
ATOM      2  O   UNL     1       1.670  -0.437  21.418  0.00  0.00    -0.273 OA
ATOM      3  O   UNL     1       0.352   3.234  24.984  0.00  0.00    -0.270 OA
ATOM      4  O   UNL     1       4.378  -2.657  23.466  0.00  0.00    -0.270 OA
ATOM      5  N   UNL     1       1.258   1.247  24.219  0.00  0.00    -0.283 N 
ATOM      6  N   UNL     1       3.514  -0.534  23.787  0.00  0.00    -0.294 N 
ATOM      7  N   UNL     1      -0.316   0.609  21.797  0.00  0.00    -0.283 N 
ATOM      9  C   UNL     1       1.044  -0.105  23.725  0.00  0.00    +0.180 C 
ATOM     10  C   UNL     1       2.183  -1.061  24.102  0.00  0.00    +0.140 C 
ATOM     11  C   UNL     1       2.598   1.581  24.703  0.00  0.00    +0.128 C 
ATOM     12  C   UNL     1       3.681   0.923  23.860  0.00  0.00    +0.127 C 
ATOM     13  C   UNL     1       0.859   0.026  22.223  0.00  0.00    +0.239 C 
ATOM     14  C   UNL     1       0.222   2.159  24.396  0.00  0.00    +0.249 C 
ATOM     15  C   UNL     1      -1.114   1.850  23.821  0.00  0.00    +0.059 A 
ATOM     16  C   UNL     1      -1.316   1.226  22.577  0.00  0.00    +0.046 A 
ATOM     17  C   UNL     1       4.561  -1.439  23.519  0.00  0.00    +0.248 C 
ATOM     18  C   UNL     1      -2.217   2.390  24.507  0.00  0.00    +0.024 A 
ATOM     19  C   UNL     1      -2.607   1.220  22.021  0.00  0.00    +0.024 A 
ATOM     21  C   UNL     1      -3.499   2.333  23.962  0.00  0.00    -0.010 A 
ATOM     22  C   UNL     1      -3.693   1.760  22.712  0.00  0.00    +0.011 A 
ATOM     31  H   UNL     1      -0.530   0.493  20.809  0.00  0.00    +0.155 HD
ENDROOT
BRANCH  17  20
ATOM      8  N   UNL     1       8.055  -1.049  22.258  0.00  0.00    -0.263 NA
ATOM     20  C   UNL     1       5.894  -0.881  23.315  0.00  0.00    +0.055 A 
ATOM     24  C   UNL     1       6.275   0.293  23.944  0.00  0.00    +0.016 A 
ATOM     25  C   UNL     1       6.806  -1.512  22.489  0.00  0.00    +0.123 A 
ATOM     27  C   UNL     1       7.553   0.801  23.731  0.00  0.00    +0.020 A 
ATOM     28  C   UNL     1       8.396   0.098  22.886  0.00  0.00    +0.111 A 
ENDBRANCH  17  20
BRANCH  21  23
ATOM      1  S   UNL     1      -5.812   1.831  25.304  0.00  0.00    -0.097 S 
ATOM     23  C   UNL     1      -4.617   2.889  24.682  0.00  0.00    +0.019 A 
ATOM     26  C   UNL     1      -4.898   4.208  24.968  0.00  0.00    +0.016 A 
ATOM     29  C   UNL     1      -6.108   4.351  25.707  0.00  0.00    +0.008 A 
ATOM     30  C   UNL     1      -6.708   3.136  25.957  0.00  0.00    +0.046 A 
ENDBRANCH  21  23
TORSDOF 2
ENDMDL
MODEL 4
REMARK VINA RESULT:      27.1      1.548      1.911
REMARK  Name = 7142447
REMARK  2 active torsions:
REMARK  status: ('A' for Active; 'I' for Inactive)
REMARK    1  A    between atoms: C_17  and  C_20
REMARK    2  A    between atoms: C_21  and  C_23
REMARK                            x       y       z     vdW  Elec       q    Type
REMARK                         _______ _______ _______ _____ _____    ______ ____
ROOT
ATOM      2  O   UNL     1      -0.996  -1.331  24.615  0.00  0.00    -0.273 OA
ATOM      3  O   UNL     1       2.834   2.306  24.408  0.00  0.00    -0.270 OA
ATOM      4  O   UNL     1      -3.905   0.391  22.372  0.00  0.00    -0.270 OA
ATOM      5  N   UNL     1       0.873   1.251  23.779  0.00  0.00    -0.283 N 
ATOM      6  N   UNL     1      -2.009   1.225  23.406  0.00  0.00    -0.294 N 
ATOM      7  N   UNL     1       1.268  -1.568  24.584  0.00  0.00    -0.283 N 
ATOM      9  C   UNL     1       0.226   0.123  23.125  0.00  0.00    +0.180 C 
ATOM     10  C   UNL     1      -1.122   0.498  22.495  0.00  0.00    +0.140 C 
ATOM     11  C   UNL     1       0.062   2.445  24.018  0.00  0.00    +0.128 C 
ATOM     12  C   UNL     1      -1.366   2.086  24.405  0.00  0.00    +0.127 C 
ATOM     13  C   UNL     1       0.098  -0.956  24.187  0.00  0.00    +0.239 C 
ATOM     14  C   UNL     1       2.241   1.294  24.030  0.00  0.00    +0.249 C 
ATOM     15  C   UNL     1       3.041   0.050  23.870  0.00  0.00    +0.059 A 
ATOM     16  C   UNL     1       2.592  -1.232  24.231  0.00  0.00    +0.046 A 
ATOM     17  C   UNL     1      -3.404   1.128  23.224  0.00  0.00    +0.248 C 
ATOM     18  C   UNL     1       4.387   0.229  23.502  0.00  0.00    +0.024 A 
ATOM     19  C   UNL     1       3.518  -2.289  24.280  0.00  0.00    +0.024 A 
ATOM     21  C   UNL     1       5.282  -0.840  23.510  0.00  0.00    -0.010 A 
ATOM     22  C   UNL     1       4.850  -2.097  23.912  0.00  0.00    +0.011 A 
ATOM     31  H   UNL     1       1.153  -2.426  25.118  0.00  0.00    +0.155 HD
ENDROOT
BRANCH  17  20
ATOM      8  N   UNL     1      -4.867   4.141  24.878  0.00  0.00    -0.263 NA
ATOM     20  C   UNL     1      -4.252   1.949  24.083  0.00  0.00    +0.055 A 
ATOM     24  C   UNL     1      -5.212   1.367  24.896  0.00  0.00    +0.016 A 
ATOM     25  C   UNL     1      -4.115   3.324  24.105  0.00  0.00    +0.123 A 
ATOM     27  C   UNL     1      -6.005   2.175  25.705  0.00  0.00    +0.020 A 
ATOM     28  C   UNL     1      -5.794   3.543  25.659  0.00  0.00    +0.111 A 
ENDBRANCH  17  20
BRANCH  21  23
ATOM      1  S   UNL     1       7.504   0.710  23.761  0.00  0.00    -0.097 S 
ATOM     23  C   UNL     1       6.656  -0.636  23.126  0.00  0.00    +0.019 A 
ATOM     26  C   UNL     1       7.444  -1.391  22.284  0.00  0.00    +0.016 A 
ATOM     29  C   UNL     1       8.759  -0.857  22.158  0.00  0.00    +0.008 A 
ATOM     30  C   UNL     1       8.927   0.286  22.909  0.00  0.00    +0.046 A 
ENDBRANCH  21  23
TORSDOF 2
ENDMDL
MODEL 5
REMARK VINA RESULT:      28.7     15.151     16.835
REMARK  Name = 7142447
REMARK  2 active torsions:
REMARK  status: ('A' for Active; 'I' for Inactive)
REMARK    1  A    between atoms: C_17  and  C_20
REMARK    2  A    between atoms: C_21  and  C_23
REMARK                            x       y       z     vdW  Elec       q    Type
REMARK                         _______ _______ _______ _____ _____    ______ ____
ROOT
ATOM      2  O   UNL     1      -4.179 -10.027   8.993  0.00  0.00    -0.273 OA
ATOM      3  O   UNL     1      -1.891  -8.698  13.568  0.00  0.00    -0.270 OA
ATOM      4  O   UNL     1      -7.623  -7.887   9.130  0.00  0.00    -0.270 OA
ATOM      5  N   UNL     1      -3.385  -8.516  11.811  0.00  0.00    -0.283 N 
ATOM      6  N   UNL     1      -6.090  -8.512  10.747  0.00  0.00    -0.294 N 
ATOM      7  N   UNL     1      -1.981  -9.759   9.524  0.00  0.00    -0.283 N 
ATOM      9  C   UNL     1      -3.629  -8.160  10.421  0.00  0.00    +0.180 C 
ATOM     10  C   UNL     1      -5.053  -7.644  10.183  0.00  0.00    +0.140 C 
ATOM     11  C   UNL     1      -4.551  -8.635  12.688  0.00  0.00    +0.128 C 
ATOM     12  C   UNL     1      -5.738  -9.253  11.964  0.00  0.00    +0.127 C 
ATOM     13  C   UNL     1      -3.311  -9.406   9.612  0.00  0.00    +0.239 C 
ATOM     14  C   UNL     1      -2.109  -8.585  12.361  0.00  0.00    +0.249 C 
ATOM     15  C   UNL     1      -0.932  -8.554  11.451  0.00  0.00    +0.059 A 
ATOM     16  C   UNL     1      -0.881  -9.191  10.200  0.00  0.00    +0.046 A 
ATOM     17  C   UNL     1      -7.369  -8.524  10.153  0.00  0.00    +0.248 C 
ATOM     18  C   UNL     1       0.243  -7.996  11.988  0.00  0.00    +0.024 A 
ATOM     19  C   UNL     1       0.358  -9.315   9.549  0.00  0.00    +0.024 A 
ATOM     21  C   UNL     1       1.456  -8.086  11.306  0.00  0.00    -0.010 A 
ATOM     22  C   UNL     1       1.517  -8.758  10.092  0.00  0.00    +0.011 A 
ATOM     31  H   UNL     1      -1.758 -10.450   8.810  0.00  0.00    +0.155 HD
ENDROOT
BRANCH  17  20
ATOM      8  N   UNL     1      -9.414 -10.103  12.851  0.00  0.00    -0.263 NA
ATOM     20  C   UNL     1      -8.404  -9.319  10.806  0.00  0.00    +0.055 A 
ATOM     24  C   UNL     1      -9.332 -10.027  10.058  0.00  0.00    +0.016 A 
ATOM     25  C   UNL     1      -8.482  -9.385  12.185  0.00  0.00    +0.123 A 
ATOM     27  C   UNL     1     -10.307 -10.776  10.708  0.00  0.00    +0.020 A 
ATOM     28  C   UNL     1     -10.304 -10.781  12.093  0.00  0.00    +0.111 A 
ENDBRANCH  17  20
BRANCH  21  23
ATOM      1  S   UNL     1       2.597  -5.888  12.433  0.00  0.00    -0.097 S 
ATOM     23  C   UNL     1       2.648  -7.505  11.871  0.00  0.00    +0.019 A 
ATOM     26  C   UNL     1       3.894  -8.071  12.040  0.00  0.00    +0.016 A 
ATOM     29  C   UNL     1       4.817  -7.165  12.640  0.00  0.00    +0.008 A 
ATOM     30  C   UNL     1       4.242  -5.942  12.906  0.00  0.00    +0.046 A 
ENDBRANCH  21  23
TORSDOF 2
ENDMDL
