MODEL 1
REMARK VINA RESULT:      -6.7      0.000      0.000
REMARK  Name = 56775131
REMARK  5 active torsions:
REMARK  status: ('A' for Active; 'I' for Inactive)
REMARK    1  A    between atoms: N_6  and  C_13
REMARK    2  A    between atoms: N_7  and  C_15
REMARK    3  A    between atoms: C_13  and  C_17
REMARK    4  A    between atoms: C_15  and  C_18
REMARK    5  A    between atoms: C_23  and  C_28
REMARK                            x       y       z     vdW  Elec       q    Type
REMARK                         _______ _______ _______ _____ _____    ______ ____
ROOT
ATOM      4  O   UNL     1      -1.345  -2.503  24.540  0.00  0.00    -0.364 OA
ATOM      5  O   UNL     1      -4.768  -1.883  23.977  0.00  0.00    -0.273 OA
ATOM      6  N   UNL     1       0.586  -0.056  23.473  0.00  0.00    -0.294 NA
ATOM      7  N   UNL     1      -3.007  -0.363  24.045  0.00  0.00    -0.288 N 
ATOM      9  C   UNL     1      -1.584  -0.117  24.266  0.00  0.00    +0.120 C 
ATOM     10  C   UNL     1      -0.838  -1.244  24.974  0.00  0.00    +0.154 C 
ATOM     11  C   UNL     1      -0.786   0.032  22.973  0.00  0.00    +0.110 C 
ATOM     12  C   UNL     1       0.607  -1.126  24.478  0.00  0.00    +0.118 C 
ATOM     14  C   UNL     1      -3.594  -1.609  24.236  0.00  0.00    +0.242 C 
ATOM     16  C   UNL     1      -2.703  -2.646  24.886  0.00  0.00    +0.256 C 
ENDROOT
BRANCH   6  13
ATOM     13  C   UNL     1       1.560  -0.258  22.412  0.00  0.00    +0.121 C 
BRANCH  13  17
ATOM      8  N   UNL     1       4.794  -1.385  24.013  0.00  0.00    -0.263 NA
ATOM     17  C   UNL     1       2.968  -0.229  22.929  0.00  0.00    -0.015 A 
ATOM     21  C   UNL     1       3.748   0.918  22.825  0.00  0.00    +0.008 A 
ATOM     22  C   UNL     1       3.533  -1.344  23.527  0.00  0.00    +0.115 A 
ATOM     25  C   UNL     1       5.050   0.915  23.314  0.00  0.00    +0.020 A 
ATOM     27  C   UNL     1       5.521  -0.252  23.894  0.00  0.00    +0.111 A 
ENDBRANCH  13  17
ENDBRANCH   6  13
BRANCH   7  15
ATOM     15  C   UNL     1      -3.795   0.742  23.516  0.00  0.00    +0.143 C 
BRANCH  15  18
ATOM     18  C   UNL     1      -3.635   1.990  24.336  0.00  0.00    -0.030 A 
ATOM     19  C   UNL     1      -2.440   2.709  24.287  0.00  0.00    +0.017 A 
ATOM     20  C   UNL     1      -4.682   2.431  25.146  0.00  0.00    +0.005 A 
ATOM     23  C   UNL     1      -2.293   3.869  25.049  0.00  0.00    +0.055 A 
ATOM     24  C   UNL     1      -4.533   3.590  25.908  0.00  0.00    +0.001 A 
ATOM     26  C   UNL     1      -3.339   4.309  25.859  0.00  0.00    +0.012 A 
BRANCH  23  28
ATOM      1  F   UNL     1      -0.065   4.129  25.836  0.00  0.00    -0.166 F 
ATOM      2  F   UNL     1      -0.439   4.658  23.760  0.00  0.00    -0.166 F 
ATOM      3  F   UNL     1      -1.152   5.949  25.352  0.00  0.00    -0.166 F 
ATOM     28  C   UNL     1      -1.015   4.636  24.998  0.00  0.00    +0.417 C 
ENDBRANCH  23  28
ENDBRANCH  15  18
ENDBRANCH   7  15
TORSDOF 5
ENDMDL
MODEL 2
REMARK VINA RESULT:      -4.5      3.466      6.653
REMARK  Name = 56775131
REMARK  5 active torsions:
REMARK  status: ('A' for Active; 'I' for Inactive)
REMARK    1  A    between atoms: N_6  and  C_13
REMARK    2  A    between atoms: N_7  and  C_15
REMARK    3  A    between atoms: C_13  and  C_17
REMARK    4  A    between atoms: C_15  and  C_18
REMARK    5  A    between atoms: C_23  and  C_28
REMARK                            x       y       z     vdW  Elec       q    Type
REMARK                         _______ _______ _______ _____ _____    ______ ____
ROOT
ATOM      4  O   UNL     1      -3.553   4.607  24.302  0.00  0.00    -0.364 OA
ATOM      5  O   UNL     1      -0.053   5.022  24.295  0.00  0.00    -0.273 OA
ATOM      6  N   UNL     1      -4.488   1.689  25.510  0.00  0.00    -0.294 NA
ATOM      7  N   UNL     1      -1.339   3.536  25.542  0.00  0.00    -0.288 N 
ATOM      9  C   UNL     1      -2.664   3.049  25.916  0.00  0.00    +0.120 C 
ATOM     10  C   UNL     1      -3.818   3.978  25.552  0.00  0.00    +0.154 C 
ATOM     11  C   UNL     1      -3.058   1.756  25.207  0.00  0.00    +0.110 C 
ATOM     12  C   UNL     1      -5.021   3.048  25.361  0.00  0.00    +0.118 C 
ATOM     14  C   UNL     1      -1.147   4.633  24.708  0.00  0.00    +0.242 C 
ATOM     16  C   UNL     1      -2.400   5.415  24.378  0.00  0.00    +0.256 C 
ENDROOT
BRANCH   6  13
ATOM     13  C   UNL     1      -5.191   0.712  24.693  0.00  0.00    +0.121 C 
BRANCH  13  17
ATOM      8  N   UNL     1      -3.297  -2.301  25.970  0.00  0.00    -0.263 NA
ATOM     17  C   UNL     1      -4.523  -0.631  24.723  0.00  0.00    -0.015 A 
ATOM     21  C   UNL     1      -4.493  -1.443  23.594  0.00  0.00    +0.008 A 
ATOM     22  C   UNL     1      -3.915  -1.102  25.876  0.00  0.00    +0.115 A 
ATOM     25  C   UNL     1      -3.866  -2.683  23.651  0.00  0.00    +0.020 A 
ATOM     27  C   UNL     1      -3.288  -3.061  24.853  0.00  0.00    +0.111 A 
ENDBRANCH  13  17
ENDBRANCH   6  13
BRANCH   7  15
ATOM     15  C   UNL     1      -0.195   2.763  26.006  0.00  0.00    +0.143 C 
BRANCH  15  18
ATOM     18  C   UNL     1       0.049   1.552  25.151  0.00  0.00    -0.030 A 
ATOM     19  C   UNL     1       1.156   1.509  24.303  0.00  0.00    +0.017 A 
ATOM     20  C   UNL     1      -0.830   0.471  25.207  0.00  0.00    +0.005 A 
ATOM     23  C   UNL     1       1.382   0.383  23.509  0.00  0.00    +0.055 A 
ATOM     24  C   UNL     1      -0.605  -0.654  24.413  0.00  0.00    +0.001 A 
ATOM     26  C   UNL     1       0.502  -0.698  23.565  0.00  0.00    +0.012 A 
BRANCH  23  28
ATOM      1  F   UNL     1       3.462  -0.626  22.959  0.00  0.00    -0.166 F 
ATOM      2  F   UNL     1       2.243   0.074  21.299  0.00  0.00    -0.166 F 
ATOM      3  F   UNL     1       3.272   1.505  22.566  0.00  0.00    -0.166 F 
ATOM     28  C   UNL     1       2.563   0.337  22.601  0.00  0.00    +0.417 C 
ENDBRANCH  23  28
ENDBRANCH  15  18
ENDBRANCH   7  15
TORSDOF 5
ENDMDL
MODEL 3
REMARK VINA RESULT:      -3.9      2.808      4.820
REMARK  Name = 56775131
REMARK  5 active torsions:
REMARK  status: ('A' for Active; 'I' for Inactive)
REMARK    1  A    between atoms: N_6  and  C_13
REMARK    2  A    between atoms: N_7  and  C_15
REMARK    3  A    between atoms: C_13  and  C_17
REMARK    4  A    between atoms: C_15  and  C_18
REMARK    5  A    between atoms: C_23  and  C_28
REMARK                            x       y       z     vdW  Elec       q    Type
REMARK                         _______ _______ _______ _____ _____    ______ ____
ROOT
ATOM      4  O   UNL     1      -3.185   4.207  26.266  0.00  0.00    -0.364 OA
ATOM      5  O   UNL     1      -6.057   2.166  26.236  0.00  0.00    -0.273 OA
ATOM      6  N   UNL     1      -0.867   3.177  24.164  0.00  0.00    -0.294 NA
ATOM      7  N   UNL     1      -4.398   2.365  24.617  0.00  0.00    -0.288 N 
ATOM      9  C   UNL     1      -3.173   3.020  24.165  0.00  0.00    +0.120 C 
ATOM     10  C   UNL     1      -2.832   4.318  24.890  0.00  0.00    +0.154 C 
ATOM     11  C   UNL     1      -1.917   2.185  24.397  0.00  0.00    +0.110 C 
ATOM     12  C   UNL     1      -1.306   4.422  24.806  0.00  0.00    +0.118 C 
ATOM     14  C   UNL     1      -5.075   2.746  25.771  0.00  0.00    +0.242 C 
ATOM     16  C   UNL     1      -4.573   4.019  26.418  0.00  0.00    +0.256 C 
ENDROOT
BRANCH   6  13
ATOM     13  C   UNL     1       0.439   2.733  24.623  0.00  0.00    +0.121 C 
BRANCH  13  17
ATOM      8  N   UNL     1       2.839   0.578  22.649  0.00  0.00    -0.263 NA
ATOM     17  C   UNL     1       0.971   1.599  23.796  0.00  0.00    -0.015 A 
ATOM     21  C   UNL     1       0.147   0.549  23.405  0.00  0.00    +0.008 A 
ATOM     22  C   UNL     1       2.297   1.567  23.395  0.00  0.00    +0.115 A 
ATOM     25  C   UNL     1       0.668  -0.487  22.636  0.00  0.00    +0.020 A 
ATOM     27  C   UNL     1       2.008  -0.426  22.289  0.00  0.00    +0.111 A 
ENDBRANCH  13  17
ENDBRANCH   6  13
BRANCH   7  15
ATOM     15  C   UNL     1      -4.850   1.209  23.853  0.00  0.00    +0.143 C 
BRANCH  15  18
ATOM     18  C   UNL     1      -4.123  -0.044  24.246  0.00  0.00    -0.030 A 
ATOM     19  C   UNL     1      -3.002   0.030  25.074  0.00  0.00    +0.017 A 
ATOM     20  C   UNL     1      -4.569  -1.283  23.784  0.00  0.00    +0.005 A 
ATOM     23  C   UNL     1      -2.327  -1.136  25.438  0.00  0.00    +0.055 A 
ATOM     24  C   UNL     1      -3.893  -2.448  24.148  0.00  0.00    +0.001 A 
ATOM     26  C   UNL     1      -2.773  -2.374  24.976  0.00  0.00    +0.012 A 
BRANCH  23  28
ATOM      1  F   UNL     1      -0.131  -1.903  25.929  0.00  0.00    -0.166 F 
ATOM      2  F   UNL     1      -0.559   0.184  26.363  0.00  0.00    -0.166 F 
ATOM      3  F   UNL     1      -1.387  -1.376  27.624  0.00  0.00    -0.166 F 
ATOM     28  C   UNL     1      -1.128  -1.057  26.321  0.00  0.00    +0.417 C 
ENDBRANCH  23  28
ENDBRANCH  15  18
ENDBRANCH   7  15
TORSDOF 5
ENDMDL
MODEL 4
REMARK VINA RESULT:      -2.9      1.843      2.349
REMARK  Name = 56775131
REMARK  5 active torsions:
REMARK  status: ('A' for Active; 'I' for Inactive)
REMARK    1  A    between atoms: N_6  and  C_13
REMARK    2  A    between atoms: N_7  and  C_15
REMARK    3  A    between atoms: C_13  and  C_17
REMARK    4  A    between atoms: C_15  and  C_18
REMARK    5  A    between atoms: C_23  and  C_28
REMARK                            x       y       z     vdW  Elec       q    Type
REMARK                         _______ _______ _______ _____ _____    ______ ____
ROOT
ATOM      4  O   UNL     1      -0.587  -2.544  24.978  0.00  0.00    -0.364 OA
ATOM      5  O   UNL     1      -4.031  -3.004  24.391  0.00  0.00    -0.273 OA
ATOM      6  N   UNL     1       0.669  -0.016  23.280  0.00  0.00    -0.294 NA
ATOM      7  N   UNL     1      -2.735  -1.106  24.027  0.00  0.00    -0.288 N 
ATOM      9  C   UNL     1      -1.435  -0.448  24.134  0.00  0.00    +0.120 C 
ATOM     10  C   UNL     1      -0.444  -1.129  25.072  0.00  0.00    +0.154 C 
ATOM     11  C   UNL     1      -0.660  -0.417  22.819  0.00  0.00    +0.110 C 
ATOM     12  C   UNL     1       0.935  -0.761  24.516  0.00  0.00    +0.118 C 
ATOM     14  C   UNL     1      -2.980  -2.377  24.537  0.00  0.00    +0.242 C 
ATOM     16  C   UNL     1      -1.871  -2.950  25.392  0.00  0.00    +0.256 C 
ENDROOT
BRANCH   6  13
ATOM     13  C   UNL     1       1.697  -0.208  22.270  0.00  0.00    +0.121 C 
BRANCH  13  17
ATOM      8  N   UNL     1       4.828  -1.442  23.992  0.00  0.00    -0.263 NA
ATOM     17  C   UNL     1       3.074  -0.218  22.864  0.00  0.00    -0.015 A 
ATOM     21  C   UNL     1       3.867   0.925  22.858  0.00  0.00    +0.008 A 
ATOM     22  C   UNL     1       3.597  -1.366  23.440  0.00  0.00    +0.115 A 
ATOM     25  C   UNL     1       5.139   0.886  23.419  0.00  0.00    +0.020 A 
ATOM     27  C   UNL     1       5.569  -0.312  23.967  0.00  0.00    +0.111 A 
ENDBRANCH  13  17
ENDBRANCH   6  13
BRANCH   7  15
ATOM     15  C   UNL     1      -3.767  -0.412  23.268  0.00  0.00    +0.143 C 
BRANCH  15  18
ATOM     18  C   UNL     1      -3.751   1.068  23.520  0.00  0.00    -0.030 A 
ATOM     19  C   UNL     1      -4.447   1.599  24.607  0.00  0.00    +0.017 A 
ATOM     20  C   UNL     1      -3.040   1.913  22.667  0.00  0.00    +0.005 A 
ATOM     23  C   UNL     1      -4.432   2.974  24.840  0.00  0.00    +0.055 A 
ATOM     24  C   UNL     1      -3.026   3.288  22.900  0.00  0.00    +0.001 A 
ATOM     26  C   UNL     1      -3.721   3.819  23.987  0.00  0.00    +0.012 A 
BRANCH  23  28
ATOM      1  F   UNL     1      -4.351   4.112  26.925  0.00  0.00    -0.166 F 
ATOM      2  F   UNL     1      -6.069   4.516  25.655  0.00  0.00    -0.166 F 
ATOM      3  F   UNL     1      -5.909   2.614  26.686  0.00  0.00    -0.166 F 
ATOM     28  C   UNL     1      -5.177   3.542  26.000  0.00  0.00    +0.417 C 
ENDBRANCH  23  28
ENDBRANCH  15  18
ENDBRANCH   7  15
TORSDOF 5
ENDMDL
MODEL 5
REMARK VINA RESULT:      -2.7      3.733      7.364
REMARK  Name = 56775131
REMARK  5 active torsions:
REMARK  status: ('A' for Active; 'I' for Inactive)
REMARK    1  A    between atoms: N_6  and  C_13
REMARK    2  A    between atoms: N_7  and  C_15
REMARK    3  A    between atoms: C_13  and  C_17
REMARK    4  A    between atoms: C_15  and  C_18
REMARK    5  A    between atoms: C_23  and  C_28
REMARK                            x       y       z     vdW  Elec       q    Type
REMARK                         _______ _______ _______ _____ _____    ______ ____
ROOT
ATOM      4  O   UNL     1      -0.250   3.670  23.659  0.00  0.00    -0.364 OA
ATOM      5  O   UNL     1       0.842   0.327  23.881  0.00  0.00    -0.273 OA
ATOM      6  N   UNL     1      -2.502   4.429  25.940  0.00  0.00    -0.294 NA
ATOM      7  N   UNL     1      -0.204   1.625  25.504  0.00  0.00    -0.288 N 
ATOM      9  C   UNL     1      -0.751   2.921  25.898  0.00  0.00    +0.120 C 
ATOM     10  C   UNL     1      -0.328   4.093  25.018  0.00  0.00    +0.154 C 
ATOM     11  C   UNL     1      -2.273   2.990  25.812  0.00  0.00    +0.110 C 
ATOM     12  C   UNL     1      -1.478   5.099  25.128  0.00  0.00    +0.118 C 
ATOM     14  C   UNL     1       0.447   1.419  24.292  0.00  0.00    +0.242 C 
ATOM     16  C   UNL     1       0.734   2.675  23.497  0.00  0.00    +0.256 C 
ENDROOT
BRANCH   6  13
ATOM     13  C   UNL     1      -3.856   4.818  25.579  0.00  0.00    +0.121 C 
BRANCH  13  17
ATOM      8  N   UNL     1      -6.464   2.231  26.471  0.00  0.00    -0.263 NA
ATOM     17  C   UNL     1      -4.770   3.634  25.467  0.00  0.00    -0.015 A 
ATOM     21  C   UNL     1      -4.794   2.851  24.317  0.00  0.00    +0.008 A 
ATOM     22  C   UNL     1      -5.617   3.284  26.507  0.00  0.00    +0.115 A 
ATOM     25  C   UNL     1      -5.651   1.759  24.243  0.00  0.00    +0.020 A 
ATOM     27  C   UNL     1      -6.459   1.494  25.337  0.00  0.00    +0.111 A 
ENDBRANCH  13  17
ENDBRANCH   6  13
BRANCH   7  15
ATOM     15  C   UNL     1      -0.450   0.504  26.401  0.00  0.00    +0.143 C 
BRANCH  15  18
ATOM     18  C   UNL     1      -1.027  -0.679  25.677  0.00  0.00    -0.030 A 
ATOM     19  C   UNL     1      -2.296  -0.595  25.103  0.00  0.00    +0.017 A 
ATOM     20  C   UNL     1      -0.294  -1.862  25.579  0.00  0.00    +0.005 A 
ATOM     23  C   UNL     1      -2.831  -1.694  24.431  0.00  0.00    +0.055 A 
ATOM     24  C   UNL     1      -0.830  -2.961  24.908  0.00  0.00    +0.001 A 
ATOM     26  C   UNL     1      -2.098  -2.877  24.333  0.00  0.00    +0.012 A 
BRANCH  23  28
ATOM      1  F   UNL     1      -4.207  -0.825  22.699  0.00  0.00    -0.166 F 
ATOM      2  F   UNL     1      -4.695  -2.813  23.432  0.00  0.00    -0.166 F 
ATOM      3  F   UNL     1      -5.130  -1.072  24.652  0.00  0.00    -0.166 F 
ATOM     28  C   UNL     1      -4.187  -1.605  23.818  0.00  0.00    +0.417 C 
ENDBRANCH  23  28
ENDBRANCH  15  18
ENDBRANCH   7  15
TORSDOF 5
ENDMDL
