MODEL 1
REMARK VINA RESULT:       0.1      0.000      0.000
REMARK  Name = 51137131
REMARK  6 active torsions:
REMARK  status: ('A' for Active; 'I' for Inactive)
REMARK    1  A    between atoms: S_2  and  C_18
REMARK    2  A    between atoms: S_2  and  C_23
REMARK    3  A    between atoms: N_6  and  C_13
REMARK    4  A    between atoms: C_8  and  C_12
REMARK    5  A    between atoms: C_13  and  C_14
REMARK    6  A    between atoms: C_23  and  C_27
REMARK                            x       y       z     vdW  Elec       q    Type
REMARK                         _______ _______ _______ _____ _____    ______ ____
ROOT
ATOM      3  O   UNL     1      -6.291  -9.694  10.783  0.00  0.00    -0.439 OA
ATOM      7  N   UNL     1      -6.282 -10.781  12.772  0.00  0.00    -0.213 NA
ATOM     12  C   UNL     1      -6.989 -10.355  11.748  0.00  0.00    +0.201 A 
ATOM     15  C   UNL     1      -5.007 -10.372  12.467  0.00  0.00    +0.111 A 
ATOM     16  C   UNL     1      -5.008  -9.706  11.250  0.00  0.00    +0.155 A 
ATOM     17  C   UNL     1      -3.794 -10.520  13.156  0.00  0.00    +0.058 A 
ATOM     18  C   UNL     1      -2.636  -9.982  12.577  0.00  0.00    +0.090 A 
ATOM     21  C   UNL     1      -3.883  -9.160  10.645  0.00  0.00    +0.050 A 
ATOM     22  C   UNL     1      -2.683  -9.316  11.347  0.00  0.00    +0.030 A 
ENDROOT
BRANCH  12   8
ATOM      6  N   UNL     1     -10.246  -9.674  10.213  0.00  0.00    -0.297 NA
ATOM      8  C   UNL     1      -8.474 -10.504  11.504  0.00  0.00    +0.090 C 
ATOM      9  C   UNL     1      -9.366  -9.601  12.374  0.00  0.00    +0.029 C 
ATOM     10  C   UNL     1      -8.879 -10.176  10.060  0.00  0.00    +0.097 C 
ATOM     11  C   UNL     1     -10.198  -8.798  11.384  0.00  0.00    +0.085 C 
BRANCH   6  13
ATOM     13  C   UNL     1     -10.720  -8.983   9.023  0.00  0.00    +0.119 C 
BRANCH  13  14
ATOM      1 CL   UNL     1     -10.720  -3.773   8.884  0.00  0.00    -0.084 Cl
ATOM     14  C   UNL     1      -9.968  -7.701   8.782  0.00  0.00    -0.032 A 
ATOM     19  C   UNL     1     -10.616  -6.474   8.928  0.00  0.00    +0.025 A 
ATOM     20  C   UNL     1      -8.622  -7.740   8.416  0.00  0.00    +0.005 A 
ATOM     24  C   UNL     1      -9.919  -5.287   8.706  0.00  0.00    +0.041 A 
ATOM     25  C   UNL     1      -7.925  -6.551   8.194  0.00  0.00    +0.002 A 
ATOM     26  C   UNL     1      -8.574  -5.325   8.340  0.00  0.00    +0.020 A 
ENDBRANCH  13  14
ENDBRANCH   6  13
ENDBRANCH  12   8
BRANCH  18   2
ATOM      2  S   UNL     1      -1.107 -10.146  13.410  0.00  0.00    -0.003 S 
ATOM      4  O   UNL     1      -1.346 -10.749  14.714  0.00  0.00    -0.169 OA
ATOM      5  O   UNL     1      -0.163 -10.760  12.490  0.00  0.00    -0.169 OA
BRANCH   2  23
ATOM     23  C   UNL     1      -0.582  -8.472  13.699  0.00  0.00    +0.168 C 
ATOM     27  C   UNL     1       0.375  -7.998  12.628  0.00  0.00    +0.028 C 
ENDBRANCH   2  23
ENDBRANCH  18   2
TORSDOF 5
ENDMDL
MODEL 2
REMARK VINA RESULT:       1.1      1.699      2.387
REMARK  Name = 51137131
REMARK  6 active torsions:
REMARK  status: ('A' for Active; 'I' for Inactive)
REMARK    1  A    between atoms: S_2  and  C_18
REMARK    2  A    between atoms: S_2  and  C_23
REMARK    3  A    between atoms: N_6  and  C_13
REMARK    4  A    between atoms: C_8  and  C_12
REMARK    5  A    between atoms: C_13  and  C_14
REMARK    6  A    between atoms: C_23  and  C_27
REMARK                            x       y       z     vdW  Elec       q    Type
REMARK                         _______ _______ _______ _____ _____    ______ ____
ROOT
ATOM      3  O   UNL     1      -5.948  -9.804  11.525  0.00  0.00    -0.439 OA
ATOM      7  N   UNL     1      -4.761 -10.513  13.320  0.00  0.00    -0.213 NA
ATOM     12  C   UNL     1      -5.943 -10.372  12.763  0.00  0.00    +0.201 A 
ATOM     15  C   UNL     1      -3.904  -9.997  12.378  0.00  0.00    +0.111 A 
ATOM     16  C   UNL     1      -4.628  -9.563  11.277  0.00  0.00    +0.155 A 
ATOM     17  C   UNL     1      -2.508  -9.858  12.369  0.00  0.00    +0.058 A 
ATOM     18  C   UNL     1      -1.910  -9.281  11.240  0.00  0.00    +0.090 A 
ATOM     21  C   UNL     1      -4.071  -8.987  10.142  0.00  0.00    +0.050 A 
ATOM     22  C   UNL     1      -2.679  -8.855  10.150  0.00  0.00    +0.030 A 
ENDROOT
BRANCH  12   8
ATOM      6  N   UNL     1      -9.598 -10.438  13.014  0.00  0.00    -0.297 NA
ATOM      8  C   UNL     1      -7.295 -10.759  13.317  0.00  0.00    +0.090 C 
ATOM      9  C   UNL     1      -7.835  -9.825  14.415  0.00  0.00    +0.029 C 
ATOM     10  C   UNL     1      -8.397 -10.778  12.249  0.00  0.00    +0.097 C 
ATOM     11  C   UNL     1      -9.186  -9.350  13.900  0.00  0.00    +0.085 C 
BRANCH   6  13
ATOM     13  C   UNL     1     -10.715 -10.064  12.159  0.00  0.00    +0.119 C 
BRANCH  13  14
ATOM      1 CL   UNL     1     -10.407  -6.068   8.828  0.00  0.00    -0.084 Cl
ATOM     14  C   UNL     1     -10.249  -9.526  10.832  0.00  0.00    -0.032 A 
ATOM     19  C   UNL     1     -10.512  -8.201  10.485  0.00  0.00    +0.025 A 
ATOM     20  C   UNL     1      -9.551 -10.352   9.951  0.00  0.00    +0.005 A 
ATOM     24  C   UNL     1     -10.079  -7.702   9.257  0.00  0.00    +0.041 A 
ATOM     25  C   UNL     1      -9.118  -9.853   8.722  0.00  0.00    +0.002 A 
ATOM     26  C   UNL     1      -9.382  -8.528   8.375  0.00  0.00    +0.020 A 
ENDBRANCH  13  14
ENDBRANCH   6  13
ENDBRANCH  12   8
BRANCH  18   2
ATOM      2  S   UNL     1      -0.172  -9.090  11.195  0.00  0.00    -0.003 S 
ATOM      4  O   UNL     1       0.447 -10.390  11.414  0.00  0.00    -0.169 OA
ATOM      5  O   UNL     1       0.161  -8.320  10.007  0.00  0.00    -0.169 OA
BRANCH   2  23
ATOM     23  C   UNL     1       0.197  -8.091  12.619  0.00  0.00    +0.168 C 
ATOM     27  C   UNL     1       1.132  -6.955  12.271  0.00  0.00    +0.028 C 
ENDBRANCH   2  23
ENDBRANCH  18   2
TORSDOF 5
ENDMDL
MODEL 3
REMARK VINA RESULT:       1.7     16.349     17.542
REMARK  Name = 51137131
REMARK  6 active torsions:
REMARK  status: ('A' for Active; 'I' for Inactive)
REMARK    1  A    between atoms: S_2  and  C_18
REMARK    2  A    between atoms: S_2  and  C_23
REMARK    3  A    between atoms: N_6  and  C_13
REMARK    4  A    between atoms: C_8  and  C_12
REMARK    5  A    between atoms: C_13  and  C_14
REMARK    6  A    between atoms: C_23  and  C_27
REMARK                            x       y       z     vdW  Elec       q    Type
REMARK                         _______ _______ _______ _____ _____    ______ ____
ROOT
ATOM      3  O   UNL     1      -1.303   0.718  24.204  0.00  0.00    -0.439 OA
ATOM      7  N   UNL     1      -0.514  -1.356  23.746  0.00  0.00    -0.213 NA
ATOM     12  C   UNL     1      -1.546  -0.617  24.090  0.00  0.00    +0.201 A 
ATOM     15  C   UNL     1       0.502  -0.441  23.620  0.00  0.00    +0.111 A 
ATOM     16  C   UNL     1       0.023   0.831  23.899  0.00  0.00    +0.155 A 
ATOM     17  C   UNL     1       1.853  -0.594  23.273  0.00  0.00    +0.058 A 
ATOM     18  C   UNL     1       2.657   0.554  23.229  0.00  0.00    +0.090 A 
ATOM     21  C   UNL     1       0.787   1.990  23.865  0.00  0.00    +0.050 A 
ATOM     22  C   UNL     1       2.132   1.819  23.519  0.00  0.00    +0.030 A 
ENDROOT
BRANCH  12   8
ATOM      6  N   UNL     1      -5.124  -0.244  24.789  0.00  0.00    -0.297 NA
ATOM      8  C   UNL     1      -2.964  -1.058  24.374  0.00  0.00    +0.090 C 
ATOM      9  C   UNL     1      -3.301  -1.228  25.866  0.00  0.00    +0.029 C 
ATOM     10  C   UNL     1      -4.014  -0.069  23.849  0.00  0.00    +0.097 C 
ATOM     11  C   UNL     1      -4.494  -0.314  26.107  0.00  0.00    +0.085 C 
BRANCH   6  13
ATOM     13  C   UNL     1      -6.103   0.829  24.698  0.00  0.00    +0.119 C 
BRANCH  13  14
ATOM      1 CL   UNL     1      -1.909   3.922  24.730  0.00  0.00    -0.084 Cl
ATOM     14  C   UNL     1      -5.495   2.170  25.008  0.00  0.00    -0.032 A 
ATOM     19  C   UNL     1      -4.142   2.399  24.754  0.00  0.00    +0.025 A 
ATOM     20  C   UNL     1      -6.284   3.187  25.547  0.00  0.00    +0.005 A 
ATOM     24  C   UNL     1      -3.578   3.641  25.040  0.00  0.00    +0.041 A 
ATOM     25  C   UNL     1      -5.720   4.430  25.833  0.00  0.00    +0.002 A 
ATOM     26  C   UNL     1      -4.367   4.658  25.579  0.00  0.00    +0.020 A 
ENDBRANCH  13  14
ENDBRANCH   6  13
ENDBRANCH  12   8
BRANCH  18   2
ATOM      2  S   UNL     1       4.346   0.400  22.803  0.00  0.00    -0.003 S 
ATOM      4  O   UNL     1       4.457   0.302  21.355  0.00  0.00    -0.169 OA
ATOM      5  O   UNL     1       5.081   1.431  23.518  0.00  0.00    -0.169 OA
BRANCH   2  23
ATOM     23  C   UNL     1       4.825  -1.178  23.469  0.00  0.00    +0.168 C 
ATOM     27  C   UNL     1       5.847  -1.026  24.573  0.00  0.00    +0.028 C 
ENDBRANCH   2  23
ENDBRANCH  18   2
TORSDOF 5
ENDMDL
MODEL 4
REMARK VINA RESULT:       2.8     15.670     17.419
REMARK  Name = 51137131
REMARK  6 active torsions:
REMARK  status: ('A' for Active; 'I' for Inactive)
REMARK    1  A    between atoms: S_2  and  C_18
REMARK    2  A    between atoms: S_2  and  C_23
REMARK    3  A    between atoms: N_6  and  C_13
REMARK    4  A    between atoms: C_8  and  C_12
REMARK    5  A    between atoms: C_13  and  C_14
REMARK    6  A    between atoms: C_23  and  C_27
REMARK                            x       y       z     vdW  Elec       q    Type
REMARK                         _______ _______ _______ _____ _____    ______ ____
ROOT
ATOM      3  O   UNL     1      -0.542   1.080  23.128  0.00  0.00    -0.439 OA
ATOM      7  N   UNL     1       0.637   2.481  24.463  0.00  0.00    -0.213 NA
ATOM     12  C   UNL     1      -0.542   2.119  24.008  0.00  0.00    +0.201 A 
ATOM     15  C   UNL     1       1.498   1.614  23.835  0.00  0.00    +0.111 A 
ATOM     16  C   UNL     1       0.779   0.754  23.017  0.00  0.00    +0.155 A 
ATOM     17  C   UNL     1       2.892   1.481  23.899  0.00  0.00    +0.058 A 
ATOM     18  C   UNL     1       3.495   0.479  23.125  0.00  0.00    +0.090 A 
ATOM     21  C   UNL     1       1.341  -0.250  22.237  0.00  0.00    +0.050 A 
ATOM     22  C   UNL     1       2.732  -0.368  22.312  0.00  0.00    +0.030 A 
ENDROOT
BRANCH  12   8
ATOM      6  N   UNL     1      -4.134   2.129  24.736  0.00  0.00    -0.297 NA
ATOM      8  C   UNL     1      -1.896   2.706  24.336  0.00  0.00    +0.090 C 
ATOM      9  C   UNL     1      -2.752   3.081  23.113  0.00  0.00    +0.029 C 
ATOM     10  C   UNL     1      -2.781   1.752  25.150  0.00  0.00    +0.097 C 
ATOM     11  C   UNL     1      -4.050   2.304  23.286  0.00  0.00    +0.085 C 
BRANCH   6  13
ATOM     13  C   UNL     1      -5.128   1.138  25.118  0.00  0.00    +0.119 C 
BRANCH  13  14
ATOM      1 CL   UNL     1      -4.594  -3.426  22.660  0.00  0.00    -0.084 Cl
ATOM     14  C   UNL     1      -4.564  -0.257  25.102  0.00  0.00    -0.032 A 
ATOM     19  C   UNL     1      -4.811  -1.097  24.015  0.00  0.00    +0.025 A 
ATOM     20  C   UNL     1      -3.792  -0.711  26.172  0.00  0.00    +0.005 A 
ATOM     24  C   UNL     1      -4.287  -2.390  23.999  0.00  0.00    +0.041 A 
ATOM     25  C   UNL     1      -3.268  -2.004  26.155  0.00  0.00    +0.002 A 
ATOM     26  C   UNL     1      -3.515  -2.843  25.069  0.00  0.00    +0.020 A 
ENDBRANCH  13  14
ENDBRANCH   6  13
ENDBRANCH  12   8
BRANCH  18   2
ATOM      2  S   UNL     1       5.233   0.286  23.178  0.00  0.00    -0.003 S 
ATOM      4  O   UNL     1       5.700  -0.113  21.858  0.00  0.00    -0.169 OA
ATOM      5  O   UNL     1       5.792   1.465  23.819  0.00  0.00    -0.169 OA
BRANCH   2  23
ATOM     23  C   UNL     1       5.488  -1.101  24.260  0.00  0.00    +0.168 C 
ATOM     27  C   UNL     1       4.483  -2.201  23.999  0.00  0.00    +0.028 C 
ENDBRANCH   2  23
ENDBRANCH  18   2
TORSDOF 5
ENDMDL
MODEL 5
REMARK VINA RESULT:       3.1     16.430     17.675
REMARK  Name = 51137131
REMARK  6 active torsions:
REMARK  status: ('A' for Active; 'I' for Inactive)
REMARK    1  A    between atoms: S_2  and  C_18
REMARK    2  A    between atoms: S_2  and  C_23
REMARK    3  A    between atoms: N_6  and  C_13
REMARK    4  A    between atoms: C_8  and  C_12
REMARK    5  A    between atoms: C_13  and  C_14
REMARK    6  A    between atoms: C_23  and  C_27
REMARK                            x       y       z     vdW  Elec       q    Type
REMARK                         _______ _______ _______ _____ _____    ______ ____
ROOT
ATOM      3  O   UNL     1      -1.119   0.647  23.830  0.00  0.00    -0.439 OA
ATOM      7  N   UNL     1      -0.553  -1.540  23.997  0.00  0.00    -0.213 NA
ATOM     12  C   UNL     1      -1.514  -0.642  24.017  0.00  0.00    +0.201 A 
ATOM     15  C   UNL     1       0.577  -0.789  23.780  0.00  0.00    +0.111 A 
ATOM     16  C   UNL     1       0.234   0.551  23.677  0.00  0.00    +0.155 A 
ATOM     17  C   UNL     1       1.925  -1.155  23.655  0.00  0.00    +0.058 A 
ATOM     18  C   UNL     1       2.866  -0.139  23.433  0.00  0.00    +0.090 A 
ATOM     21  C   UNL     1       1.136   1.584  23.457  0.00  0.00    +0.050 A 
ATOM     22  C   UNL     1       2.476   1.202  23.336  0.00  0.00    +0.030 A 
ENDROOT
BRANCH  12   8
ATOM      6  N   UNL     1      -5.000   0.270  24.679  0.00  0.00    -0.297 NA
ATOM      8  C   UNL     1      -2.996  -0.858  24.219  0.00  0.00    +0.090 C 
ATOM      9  C   UNL     1      -3.418  -1.129  25.673  0.00  0.00    +0.029 C 
ATOM     10  C   UNL     1      -3.840   0.351  23.789  0.00  0.00    +0.097 C 
ATOM     11  C   UNL     1      -4.446  -0.053  25.994  0.00  0.00    +0.085 C 
BRANCH   6  13
ATOM     13  C   UNL     1      -5.777   1.500  24.692  0.00  0.00    +0.119 C 
BRANCH  13  14
ATOM      1 CL   UNL     1      -1.082   3.724  25.105  0.00  0.00    -0.084 Cl
ATOM     14  C   UNL     1      -4.945   2.684  25.107  0.00  0.00    -0.032 A 
ATOM     19  C   UNL     1      -3.561   2.659  24.933  0.00  0.00    +0.025 A 
ATOM     20  C   UNL     1      -5.558   3.808  25.662  0.00  0.00    +0.005 A 
ATOM     24  C   UNL     1      -2.790   3.756  25.316  0.00  0.00    +0.041 A 
ATOM     25  C   UNL     1      -4.786   4.905  26.045  0.00  0.00    +0.002 A 
ATOM     26  C   UNL     1      -3.402   4.880  25.872  0.00  0.00    +0.020 A 
ENDBRANCH  13  14
ENDBRANCH   6  13
ENDBRANCH  12   8
BRANCH  18   2
ATOM      2  S   UNL     1       4.556  -0.558  23.274  0.00  0.00    -0.003 S 
ATOM      4  O   UNL     1       4.709  -1.987  23.510  0.00  0.00    -0.169 OA
ATOM      5  O   UNL     1       5.047   0.028  22.037  0.00  0.00    -0.169 OA
BRANCH   2  23
ATOM     23  C   UNL     1       5.346   0.279  24.630  0.00  0.00    +0.168 C 
ATOM     27  C   UNL     1       6.382   1.267  24.143  0.00  0.00    +0.028 C 
ENDBRANCH   2  23
ENDBRANCH  18   2
TORSDOF 5
ENDMDL
MODEL 6
REMARK VINA RESULT:       3.4     16.577     18.221
REMARK  Name = 51137131
REMARK  6 active torsions:
REMARK  status: ('A' for Active; 'I' for Inactive)
REMARK    1  A    between atoms: S_2  and  C_18
REMARK    2  A    between atoms: S_2  and  C_23
REMARK    3  A    between atoms: N_6  and  C_13
REMARK    4  A    between atoms: C_8  and  C_12
REMARK    5  A    between atoms: C_13  and  C_14
REMARK    6  A    between atoms: C_23  and  C_27
REMARK                            x       y       z     vdW  Elec       q    Type
REMARK                         _______ _______ _______ _____ _____    ______ ____
ROOT
ATOM      3  O   UNL     1      -1.298   1.871  24.577  0.00  0.00    -0.439 OA
ATOM      7  N   UNL     1       0.467   3.286  24.699  0.00  0.00    -0.213 NA
ATOM     12  C   UNL     1      -0.812   3.092  24.934  0.00  0.00    +0.201 A 
ATOM     15  C   UNL     1       0.870   2.098  24.139  0.00  0.00    +0.111 A 
ATOM     16  C   UNL     1      -0.208   1.229  24.064  0.00  0.00    +0.155 A 
ATOM     17  C   UNL     1       2.120   1.669  23.671  0.00  0.00    +0.058 A 
ATOM     18  C   UNL     1       2.218   0.373  23.143  0.00  0.00    +0.090 A 
ATOM     21  C   UNL     1      -0.151  -0.061  23.549  0.00  0.00    +0.050 A 
ATOM     22  C   UNL     1       1.103  -0.472  23.085  0.00  0.00    +0.030 A 
ENDROOT
BRANCH  12   8
ATOM      6  N   UNL     1      -4.103   4.358  25.933  0.00  0.00    -0.297 NA
ATOM      8  C   UNL     1      -1.810   4.047  25.547  0.00  0.00    +0.090 C 
ATOM      9  C   UNL     1      -2.354   5.119  24.587  0.00  0.00    +0.029 C 
ATOM     10  C   UNL     1      -3.062   3.340  26.087  0.00  0.00    +0.097 C 
ATOM     11  C   UNL     1      -3.866   4.943  24.613  0.00  0.00    +0.085 C 
BRANCH   6  13
ATOM     13  C   UNL     1      -5.443   3.806  26.062  0.00  0.00    +0.119 C 
BRANCH  13  14
ATOM      1 CL   UNL     1      -3.306  -0.910  25.469  0.00  0.00    -0.084 Cl
ATOM     14  C   UNL     1      -5.532   2.414  25.497  0.00  0.00    -0.032 A 
ATOM     19  C   UNL     1      -4.499   1.503  25.719  0.00  0.00    +0.025 A 
ATOM     20  C   UNL     1      -6.649   2.033  24.753  0.00  0.00    +0.005 A 
ATOM     24  C   UNL     1      -4.582   0.212  25.197  0.00  0.00    +0.041 A 
ATOM     25  C   UNL     1      -6.732   0.741  24.231  0.00  0.00    +0.002 A 
ATOM     26  C   UNL     1      -5.699  -0.169  24.453  0.00  0.00    +0.020 A 
ENDBRANCH  13  14
ENDBRANCH   6  13
ENDBRANCH  12   8
BRANCH  18   2
ATOM      2  S   UNL     1       3.761  -0.194  22.547  0.00  0.00    -0.003 S 
ATOM      4  O   UNL     1       3.973  -1.555  23.019  0.00  0.00    -0.169 OA
ATOM      5  O   UNL     1       3.823   0.097  21.123  0.00  0.00    -0.169 OA
BRANCH   2  23
ATOM     23  C   UNL     1       4.955   0.834  23.371  0.00  0.00    +0.168 C 
ATOM     27  C   UNL     1       5.767   0.046  24.374  0.00  0.00    +0.028 C 
ENDBRANCH   2  23
ENDBRANCH  18   2
TORSDOF 5
ENDMDL
