MODEL 1
REMARK VINA RESULT:       2.2      0.000      0.000
REMARK  Name = 11943318
REMARK  7 active torsions:
REMARK  status: ('A' for Active; 'I' for Inactive)
REMARK    1  A    between atoms: O_2  and  C_22
REMARK    2  A    between atoms: O_2  and  C_23
REMARK    3  A    between atoms: N_4  and  C_14
REMARK    4  A    between atoms: N_5  and  C_17
REMARK    5  A    between atoms: C_7  and  C_13
REMARK    6  A    between atoms: C_8  and  C_14
REMARK    7  A    between atoms: C_13  and  C_15
REMARK                            x       y       z     vdW  Elec       q    Type
REMARK                         _______ _______ _______ _____ _____    ______ ____
ROOT
ATOM      1  O   UNL     1      -3.458   1.027  23.241  0.00  0.00    -0.253 OA
ATOM      4  N   UNL     1      -4.204   0.492  25.365  0.00  0.00    -0.298 N 
ATOM      5  N   UNL     1      -1.963   0.238  24.871  0.00  0.00    -0.269 N 
ATOM     16  C   UNL     1      -3.212   0.623  24.376  0.00  0.00    +0.304 C 
ATOM     29  H   UNL     1      -3.926   0.149  26.280  0.00  0.00    +0.150 HD
ATOM     30  H   UNL     1      -1.934  -0.073  25.839  0.00  0.00    +0.156 HD
ENDROOT
BRANCH   5  17
ATOM     17  C   UNL     1      -0.725   0.228  24.188  0.00  0.00    +0.035 A 
ATOM     18  C   UNL     1      -0.366  -0.889  23.450  0.00  0.00    +0.027 A 
ATOM     19  C   UNL     1       0.105   1.334  24.272  0.00  0.00    +0.027 A 
ATOM     20  C   UNL     1       0.855  -0.898  22.778  0.00  0.00    +0.048 A 
ATOM     21  C   UNL     1       1.326   1.324  23.598  0.00  0.00    +0.048 A 
ATOM     22  C   UNL     1       1.702   0.208  22.852  0.00  0.00    +0.129 A 
BRANCH  22   2
ATOM      2  O   UNL     1       2.894   0.197  22.196  0.00  0.00    -0.456 OA
BRANCH   2  23
ATOM     23  C   UNL     1       4.032  -0.084  22.934  0.00  0.00    +0.128 A 
ATOM     24  C   UNL     1       4.957   0.919  23.156  0.00  0.00    +0.046 A 
ATOM     25  C   UNL     1       4.213  -1.364  23.428  0.00  0.00    +0.046 A 
ATOM     26  C   UNL     1       6.102   0.634  23.899  0.00  0.00    +0.004 A 
ATOM     27  C   UNL     1       5.359  -1.648  24.172  0.00  0.00    +0.004 A 
ATOM     28  C   UNL     1       6.304  -0.649  24.407  0.00  0.00    +0.000 A 
ENDBRANCH   2  23
ENDBRANCH  22   2
ENDBRANCH   5  17
BRANCH   4  14
ATOM     14  C   UNL     1      -5.581   0.811  25.152  0.00  0.00    +0.124 C 
BRANCH  14   8
ATOM      3  N   UNL     1      -5.851   3.205  24.450  0.00  0.00    -0.298 NA
ATOM      6  C   UNL     1      -4.467   4.142  26.444  0.00  0.00    -0.004 C 
ATOM      7  C   UNL     1      -3.635   4.154  25.141  0.00  0.00    +0.006 C 
ATOM      8  C   UNL     1      -5.883   2.246  25.588  0.00  0.00    +0.074 C 
ATOM      9  C   UNL     1      -4.949   2.708  26.729  0.00  0.00    +0.024 C 
ATOM     10  C   UNL     1      -4.451   3.457  24.029  0.00  0.00    +0.088 C 
ATOM     11  C   UNL     1      -5.720   5.000  26.181  0.00  0.00    +0.019 C 
ATOM     12  C   UNL     1      -6.430   4.487  24.917  0.00  0.00    +0.085 C 
BRANCH   7  13
ATOM     13  C   UNL     1      -2.253   3.526  25.303  0.00  0.00    +0.002 C 
ATOM     15  C   UNL     1      -1.153   4.552  25.118  0.00  0.00    +0.004 C 
ENDBRANCH   7  13
ENDBRANCH  14   8
ENDBRANCH   4  14
TORSDOF 6
ENDMDL
MODEL 2
REMARK VINA RESULT:       3.4      1.309      2.686
REMARK  Name = 11943318
REMARK  7 active torsions:
REMARK  status: ('A' for Active; 'I' for Inactive)
REMARK    1  A    between atoms: O_2  and  C_22
REMARK    2  A    between atoms: O_2  and  C_23
REMARK    3  A    between atoms: N_4  and  C_14
REMARK    4  A    between atoms: N_5  and  C_17
REMARK    5  A    between atoms: C_7  and  C_13
REMARK    6  A    between atoms: C_8  and  C_14
REMARK    7  A    between atoms: C_13  and  C_15
REMARK                            x       y       z     vdW  Elec       q    Type
REMARK                         _______ _______ _______ _____ _____    ______ ____
ROOT
ATOM      1  O   UNL     1      -2.338   3.485  24.071  0.00  0.00    -0.253 OA
ATOM      4  N   UNL     1      -3.015   3.369  26.281  0.00  0.00    -0.298 N 
ATOM      5  N   UNL     1      -1.250   2.055  25.582  0.00  0.00    -0.269 N 
ATOM     16  C   UNL     1      -2.199   3.005  25.194  0.00  0.00    +0.304 C 
ATOM     29  H   UNL     1      -2.842   2.928  27.179  0.00  0.00    +0.150 HD
ATOM     30  H   UNL     1      -1.271   1.763  26.556  0.00  0.00    +0.156 HD
ENDROOT
BRANCH   5  17
ATOM     17  C   UNL     1      -0.256   1.444  24.783  0.00  0.00    +0.035 A 
ATOM     18  C   UNL     1      -0.339   0.088  24.514  0.00  0.00    +0.027 A 
ATOM     19  C   UNL     1       0.781   2.216  24.284  0.00  0.00    +0.027 A 
ATOM     20  C   UNL     1       0.642  -0.513  23.726  0.00  0.00    +0.048 A 
ATOM     21  C   UNL     1       1.761   1.614  23.495  0.00  0.00    +0.048 A 
ATOM     22  C   UNL     1       1.692   0.250  23.216  0.00  0.00    +0.129 A 
BRANCH  22   2
ATOM      2  O   UNL     1       2.649  -0.338  22.448  0.00  0.00    -0.456 OA
BRANCH   2  23
ATOM     23  C   UNL     1       3.919  -0.463  22.987  0.00  0.00    +0.128 A 
ATOM     24  C   UNL     1       4.257  -1.627  23.654  0.00  0.00    +0.046 A 
ATOM     25  C   UNL     1       4.816   0.580  22.844  0.00  0.00    +0.046 A 
ATOM     26  C   UNL     1       5.536  -1.751  24.196  0.00  0.00    +0.004 A 
ATOM     27  C   UNL     1       6.095   0.455  23.386  0.00  0.00    +0.004 A 
ATOM     28  C   UNL     1       6.455  -0.710  24.063  0.00  0.00    +0.000 A 
ENDBRANCH   2  23
ENDBRANCH  22   2
ENDBRANCH   5  17
BRANCH   4  14
ATOM     14  C   UNL     1      -4.076   4.322  26.189  0.00  0.00    +0.124 C 
BRANCH  14   8
ATOM      3  N   UNL     1      -5.938   2.674  26.524  0.00  0.00    -0.298 NA
ATOM      6  C   UNL     1      -5.757   1.695  24.121  0.00  0.00    -0.004 C 
ATOM      7  C   UNL     1      -5.113   0.743  25.154  0.00  0.00    +0.006 C 
ATOM      8  C   UNL     1      -5.338   3.681  25.608  0.00  0.00    +0.074 C 
ATOM      9  C   UNL     1      -5.081   3.076  24.209  0.00  0.00    +0.024 C 
ATOM     10  C   UNL     1      -5.120   1.437  26.535  0.00  0.00    +0.088 C 
ATOM     11  C   UNL     1      -7.228   1.880  24.539  0.00  0.00    +0.019 C 
ATOM     12  C   UNL     1      -7.285   2.332  26.009  0.00  0.00    +0.085 C 
BRANCH   7  13
ATOM     13  C   UNL     1      -3.710   0.286  24.760  0.00  0.00    +0.002 C 
ATOM     15  C   UNL     1      -3.700  -1.170  24.341  0.00  0.00    +0.004 C 
ENDBRANCH   7  13
ENDBRANCH  14   8
ENDBRANCH   4  14
TORSDOF 6
ENDMDL
