MODEL 1
REMARK VINA RESULT:       3.9      0.000      0.000
REMARK  Name = 40778188
REMARK  9 active torsions:
REMARK  status: ('A' for Active; 'I' for Inactive)
REMARK    1  A    between atoms: O_3  and  C_11
REMARK    2  A    between atoms: O_4  and  C_12
REMARK    3  A    between atoms: N_8  and  C_21
REMARK    4  A    between atoms: N_9  and  C_15
REMARK    5  A    between atoms: C_10  and  C_14
REMARK    6  A    between atoms: C_13  and  C_15
REMARK    7  A    between atoms: C_14  and  C_16
REMARK    8  A    between atoms: C_22  and  C_25
REMARK    9  A    between atoms: C_33  and  C_34
REMARK                            x       y       z     vdW  Elec       q    Type
REMARK                         _______ _______ _______ _____ _____    ______ ____
ROOT
ATOM      2  O   UNL     1      -4.415   1.660  23.782  0.00  0.00    -0.366 OA
ATOM     10  C   UNL     1      -5.170   0.778  24.643  0.00  0.00    +0.159 C 
ATOM     11  C   UNL     1      -6.062   1.672  25.498  0.00  0.00    +0.175 C 
ATOM     12  C   UNL     1      -5.250   2.948  25.571  0.00  0.00    +0.176 C 
ATOM     13  C   UNL     1      -4.671   3.022  24.169  0.00  0.00    +0.167 C 
ENDROOT
BRANCH  11   3
ATOM      3  O   UNL     1      -7.278   1.898  24.785  0.00  0.00    -0.387 OA
ATOM     35  H   UNL     1      -7.673   1.029  24.602  0.00  0.00    +0.210 HD
ENDBRANCH  11   3
BRANCH  12   4
ATOM      4  O   UNL     1      -6.025   4.086  25.886  0.00  0.00    -0.387 OA
ATOM     36  H   UNL     1      -5.596   4.854  25.473  0.00  0.00    +0.210 HD
ENDBRANCH  12   4
BRANCH  10  14
ATOM     14  C   UNL     1      -4.179  -0.035  25.463  0.00  0.00    +0.130 C 
BRANCH  14  16
ATOM      5  O   UNL     1      -4.158  -1.944  24.051  0.00  0.00    -0.276 OA
ATOM      7  N   UNL     1      -2.115  -0.904  24.429  0.00  0.00    -0.298 N 
ATOM      8  N   UNL     1       0.706  -0.566  23.869  0.00  0.00    -0.327 N 
ATOM     16  C   UNL     1      -3.493  -1.051  24.582  0.00  0.00    +0.218 C 
ATOM     17  C   UNL     1      -1.327   0.159  25.059  0.00  0.00    +0.126 C 
ATOM     18  C   UNL     1      -1.380  -1.844  23.586  0.00  0.00    +0.126 C 
ATOM     19  C   UNL     1       0.157  -0.193  25.174  0.00  0.00    +0.124 C 
ATOM     20  C   UNL     1      -0.195  -1.180  22.889  0.00  0.00    +0.124 C 
BRANCH   8  21
ATOM      1  F   UNL     1       6.050   0.185  22.703  0.00  0.00    -0.205 F 
ATOM     21  C   UNL     1       2.053  -0.377  23.575  0.00  0.00    +0.030 A 
ATOM     23  C   UNL     1       2.975  -1.388  23.847  0.00  0.00    +0.026 A 
ATOM     24  C   UNL     1       2.483   0.824  23.008  0.00  0.00    +0.026 A 
ATOM     26  C   UNL     1       4.325  -1.198  23.552  0.00  0.00    +0.040 A 
ATOM     27  C   UNL     1       3.833   1.013  22.714  0.00  0.00    +0.040 A 
ATOM     28  C   UNL     1       4.754   0.001  22.986  0.00  0.00    +0.124 A 
ENDBRANCH   8  21
ENDBRANCH  14  16
ENDBRANCH  10  14
BRANCH  13  15
ATOM     15  C   UNL     1      -3.386   3.826  24.090  0.00  0.00    +0.138 C 
BRANCH  15   9
ATOM      6  O   UNL     1      -0.545   3.408  24.035  0.00  0.00    -0.270 OA
ATOM      9  N   UNL     1      -2.538   3.560  25.215  0.00  0.00    -0.309 N 
ATOM     22  C   UNL     1      -1.164   3.368  25.096  0.00  0.00    +0.244 C 
ATOM     37  H   UNL     1      -2.977   3.567  26.129  0.00  0.00    +0.149 HD
BRANCH  22  25
ATOM     25  C   UNL     1      -0.430   3.074  26.354  0.00  0.00    +0.037 A 
ATOM     29  C   UNL     1       0.954   2.905  26.331  0.00  0.00    +0.013 A 
ATOM     30  C   UNL     1      -1.125   2.969  27.558  0.00  0.00    +0.013 A 
ATOM     31  C   UNL     1       1.642   2.628  27.511  0.00  0.00    +0.004 A 
ATOM     32  C   UNL     1      -0.437   2.692  28.740  0.00  0.00    +0.004 A 
ATOM     33  C   UNL     1       0.947   2.522  28.716  0.00  0.00    -0.050 A 
ATOM     34  C   UNL     1       1.684   2.226  29.979  0.00  0.00    +0.044 C 
ENDBRANCH  22  25
ENDBRANCH  15   9
ENDBRANCH  13  15
TORSDOF 8
ENDMDL
MODEL 2
REMARK VINA RESULT:       4.7      2.411      4.485
REMARK  Name = 40778188
REMARK  9 active torsions:
REMARK  status: ('A' for Active; 'I' for Inactive)
REMARK    1  A    between atoms: O_3  and  C_11
REMARK    2  A    between atoms: O_4  and  C_12
REMARK    3  A    between atoms: N_8  and  C_21
REMARK    4  A    between atoms: N_9  and  C_15
REMARK    5  A    between atoms: C_10  and  C_14
REMARK    6  A    between atoms: C_13  and  C_15
REMARK    7  A    between atoms: C_14  and  C_16
REMARK    8  A    between atoms: C_22  and  C_25
REMARK    9  A    between atoms: C_33  and  C_34
REMARK                            x       y       z     vdW  Elec       q    Type
REMARK                         _______ _______ _______ _____ _____    ______ ____
ROOT
ATOM      2  O   UNL     1      -3.679   2.430  25.427  0.00  0.00    -0.366 OA
ATOM     10  C   UNL     1      -3.103   3.642  24.892  0.00  0.00    +0.159 C 
ATOM     11  C   UNL     1      -4.095   4.760  25.195  0.00  0.00    +0.175 C 
ATOM     12  C   UNL     1      -5.412   4.015  25.217  0.00  0.00    +0.176 C 
ATOM     13  C   UNL     1      -5.014   2.710  25.887  0.00  0.00    +0.167 C 
ENDROOT
BRANCH  11   3
ATOM      3  O   UNL     1      -3.797   5.278  26.491  0.00  0.00    -0.387 OA
ATOM     35  H   UNL     1      -3.459   4.541  27.028  0.00  0.00    +0.210 HD
ENDBRANCH  11   3
BRANCH  12   4
ATOM      4  O   UNL     1      -6.425   4.690  25.932  0.00  0.00    -0.387 OA
ATOM     36  H   UNL     1      -6.106   5.591  26.109  0.00  0.00    +0.210 HD
ENDBRANCH  12   4
BRANCH  10  14
ATOM     14  C   UNL     1      -2.878   3.432  23.401  0.00  0.00    +0.130 C 
BRANCH  14  16
ATOM      5  O   UNL     1      -3.479   1.219  22.788  0.00  0.00    -0.276 OA
ATOM      7  N   UNL     1      -1.239   1.592  23.281  0.00  0.00    -0.298 N 
ATOM      8  N   UNL     1       1.523   0.729  23.363  0.00  0.00    -0.327 N 
ATOM     16  C   UNL     1      -2.570   1.981  23.126  0.00  0.00    +0.218 C 
ATOM     17  C   UNL     1      -0.160   2.500  23.682  0.00  0.00    +0.126 C 
ATOM     18  C   UNL     1      -0.859   0.205  23.027  0.00  0.00    +0.126 C 
ATOM     19  C   UNL     1       1.041   1.765  24.278  0.00  0.00    +0.124 C 
ATOM     20  C   UNL     1       0.555   0.094  22.463  0.00  0.00    +0.124 C 
BRANCH   8  21
ATOM      1  F   UNL     1       6.813  -0.856  23.385  0.00  0.00    -0.205 F 
ATOM     21  C   UNL     1       2.857   0.329  23.368  0.00  0.00    +0.030 A 
ATOM     23  C   UNL     1       3.858   1.234  23.015  0.00  0.00    +0.026 A 
ATOM     24  C   UNL     1       3.193  -0.977  23.728  0.00  0.00    +0.026 A 
ATOM     26  C   UNL     1       5.194   0.834  23.021  0.00  0.00    +0.040 A 
ATOM     27  C   UNL     1       4.530  -1.377  23.733  0.00  0.00    +0.040 A 
ATOM     28  C   UNL     1       5.530  -0.470  23.380  0.00  0.00    +0.124 A 
ENDBRANCH   8  21
ENDBRANCH  14  16
ENDBRANCH  10  14
BRANCH  13  15
ATOM     15  C   UNL     1      -5.929   1.551  25.538  0.00  0.00    +0.138 C 
BRANCH  15   9
ATOM      6  O   UNL     1      -4.202  -0.274  26.927  0.00  0.00    -0.270 OA
ATOM      9  N   UNL     1      -5.193   0.463  24.963  0.00  0.00    -0.309 N 
ATOM     22  C   UNL     1      -4.375  -0.375  25.715  0.00  0.00    +0.244 C 
ATOM     37  H   UNL     1      -5.334   0.289  23.973  0.00  0.00    +0.149 HD
BRANCH  22  25
ATOM     25  C   UNL     1      -3.659  -1.440  24.965  0.00  0.00    +0.037 A 
ATOM     29  C   UNL     1      -4.333  -2.191  24.003  0.00  0.00    +0.013 A 
ATOM     30  C   UNL     1      -2.311  -1.686  25.224  0.00  0.00    +0.013 A 
ATOM     31  C   UNL     1      -3.659  -3.190  23.301  0.00  0.00    +0.004 A 
ATOM     32  C   UNL     1      -1.636  -2.686  24.522  0.00  0.00    +0.004 A 
ATOM     33  C   UNL     1      -2.311  -3.437  23.560  0.00  0.00    -0.050 A 
ATOM     34  C   UNL     1      -1.591  -4.506  22.809  0.00  0.00    +0.044 C 
ENDBRANCH  22  25
ENDBRANCH  15   9
ENDBRANCH  13  15
TORSDOF 8
ENDMDL
MODEL 3
REMARK VINA RESULT:       6.6      2.277      4.011
REMARK  Name = 40778188
REMARK  9 active torsions:
REMARK  status: ('A' for Active; 'I' for Inactive)
REMARK    1  A    between atoms: O_3  and  C_11
REMARK    2  A    between atoms: O_4  and  C_12
REMARK    3  A    between atoms: N_8  and  C_21
REMARK    4  A    between atoms: N_9  and  C_15
REMARK    5  A    between atoms: C_10  and  C_14
REMARK    6  A    between atoms: C_13  and  C_15
REMARK    7  A    between atoms: C_14  and  C_16
REMARK    8  A    between atoms: C_22  and  C_25
REMARK    9  A    between atoms: C_33  and  C_34
REMARK                            x       y       z     vdW  Elec       q    Type
REMARK                         _______ _______ _______ _____ _____    ______ ____
ROOT
ATOM      2  O   UNL     1      -3.325  -0.438  25.217  0.00  0.00    -0.366 OA
ATOM     10  C   UNL     1      -3.803  -1.210  24.092  0.00  0.00    +0.159 C 
ATOM     11  C   UNL     1      -3.119  -2.570  24.183  0.00  0.00    +0.175 C 
ATOM     12  C   UNL     1      -1.822  -2.224  24.884  0.00  0.00    +0.176 C 
ATOM     13  C   UNL     1      -2.286  -1.177  25.883  0.00  0.00    +0.167 C 
ENDROOT
BRANCH  11   3
ATOM      3  O   UNL     1      -3.919  -3.415  25.010  0.00  0.00    -0.387 OA
ATOM     35  H   UNL     1      -3.813  -4.325  24.684  0.00  0.00    +0.210 HD
ENDBRANCH  11   3
BRANCH  12   4
ATOM      4  O   UNL     1      -1.217  -3.330  25.519  0.00  0.00    -0.387 OA
ATOM     36  H   UNL     1      -1.343  -3.222  26.476  0.00  0.00    +0.210 HD
ENDBRANCH  12   4
BRANCH  10  14
ATOM     14  C   UNL     1      -3.453  -0.450  22.821  0.00  0.00    +0.130 C 
BRANCH  14  16
ATOM      5  O   UNL     1      -3.145   1.808  23.487  0.00  0.00    -0.276 OA
ATOM      7  N   UNL     1      -1.222   0.574  23.066  0.00  0.00    -0.298 N 
ATOM      8  N   UNL     1       1.656   0.255  23.120  0.00  0.00    -0.327 N 
ATOM     16  C   UNL     1      -2.602   0.751  23.158  0.00  0.00    +0.218 C 
ATOM     17  C   UNL     1      -0.580  -0.684  22.676  0.00  0.00    +0.126 C 
ATOM     18  C   UNL     1      -0.330   1.687  23.383  0.00  0.00    +0.126 C 
ATOM     19  C   UNL     1       0.843  -0.485  22.152  0.00  0.00    +0.124 C 
ATOM     20  C   UNL     1       0.981   1.210  24.004  0.00  0.00    +0.124 C 
BRANCH   8  21
ATOM      1  F   UNL     1       7.131  -0.419  23.354  0.00  0.00    -0.205 F 
ATOM     21  C   UNL     1       3.036   0.085  23.179  0.00  0.00    +0.030 A 
ATOM     23  C   UNL     1       3.884   1.128  22.805  0.00  0.00    +0.026 A 
ATOM     24  C   UNL     1       3.572  -1.128  23.612  0.00  0.00    +0.026 A 
ATOM     26  C   UNL     1       5.267   0.958  22.865  0.00  0.00    +0.040 A 
ATOM     27  C   UNL     1       4.956  -1.298  23.670  0.00  0.00    +0.040 A 
ATOM     28  C   UNL     1       5.803  -0.254  23.297  0.00  0.00    +0.124 A 
ENDBRANCH   8  21
ENDBRANCH  14  16
ENDBRANCH  10  14
BRANCH  13  15
ATOM     15  C   UNL     1      -1.182  -0.229  26.316  0.00  0.00    +0.138 C 
BRANCH  15   9
ATOM      6  O   UNL     1       0.113   2.161  27.241  0.00  0.00    -0.270 OA
ATOM      9  N   UNL     1      -1.451   1.112  25.886  0.00  0.00    -0.309 N 
ATOM     22  C   UNL     1      -0.772   2.217  26.391  0.00  0.00    +0.244 C 
ATOM     37  H   UNL     1      -2.134   1.225  25.144  0.00  0.00    +0.149 HD
BRANCH  22  25
ATOM     25  C   UNL     1      -1.187   3.542  25.863  0.00  0.00    +0.037 A 
ATOM     29  C   UNL     1      -0.280   4.324  25.149  0.00  0.00    +0.013 A 
ATOM     30  C   UNL     1      -2.485   4.002  26.079  0.00  0.00    +0.013 A 
ATOM     31  C   UNL     1      -0.670   5.568  24.654  0.00  0.00    +0.004 A 
ATOM     32  C   UNL     1      -2.877   5.247  25.584  0.00  0.00    +0.004 A 
ATOM     33  C   UNL     1      -1.968   6.029  24.871  0.00  0.00    -0.050 A 
ATOM     34  C   UNL     1      -2.385   7.360  24.341  0.00  0.00    +0.044 C 
ENDBRANCH  22  25
ENDBRANCH  15   9
ENDBRANCH  13  15
TORSDOF 8
ENDMDL
