MODEL 1
REMARK VINA RESULT:      -4.8      0.000      0.000
REMARK  Name = 51137435
REMARK  6 active torsions:
REMARK  status: ('A' for Active; 'I' for Inactive)
REMARK    1  A    between atoms: O_2  and  C_13
REMARK    2  A    between atoms: N_3  and  C_10
REMARK    3  A    between atoms: C_6  and  C_11
REMARK    4  A    between atoms: C_10  and  C_12
REMARK    5  A    between atoms: C_14  and  C_16
REMARK    6  A    between atoms: C_24  and  C_25
REMARK                            x       y       z     vdW  Elec       q    Type
REMARK                         _______ _______ _______ _____ _____    ______ ____
ROOT
ATOM      3  N   UNL     1      17.370  -5.054  23.477  0.00  0.00    -0.297 NA
ATOM      6  C   UNL     1      17.394  -6.567  25.267  0.00  0.00    +0.092 C 
ATOM      7  C   UNL     1      17.402  -7.343  23.938  0.00  0.00    +0.029 C 
ATOM      8  C   UNL     1      16.974  -5.141  24.884  0.00  0.00    +0.097 C 
ATOM      9  C   UNL     1      16.962  -6.329  22.889  0.00  0.00    +0.085 C 
ENDROOT
BRANCH   6  11
ATOM      1  O   UNL     1      16.084  -6.325  27.322  0.00  0.00    -0.420 OA
ATOM      4  N   UNL     1      16.114  -8.404  26.500  0.00  0.00    -0.112 NA
ATOM      5  N   UNL     1      15.346  -8.411  27.649  0.00  0.00    -0.107 NA
ATOM     11  C   UNL     1      16.524  -7.167  26.347  0.00  0.00    +0.222 A 
ATOM     14  C   UNL     1      15.356  -7.177  28.095  0.00  0.00    +0.248 A 
BRANCH  14  16
ATOM     16  C   UNL     1      14.732  -6.598  29.249  0.00  0.00    +0.038 A 
ATOM     20  C   UNL     1      15.395  -5.613  29.980  0.00  0.00    +0.013 A 
ATOM     21  C   UNL     1      13.462  -7.021  29.641  0.00  0.00    +0.013 A 
ATOM     22  C   UNL     1      14.788  -5.049  31.102  0.00  0.00    +0.004 A 
ATOM     23  C   UNL     1      12.855  -6.458  30.763  0.00  0.00    +0.004 A 
ATOM     24  C   UNL     1      13.518  -5.472  31.494  0.00  0.00    -0.050 A 
ATOM     25  C   UNL     1      12.869  -4.870  32.695  0.00  0.00    +0.044 C 
ENDBRANCH  14  16
ENDBRANCH   6  11
BRANCH   3  10
ATOM     10  C   UNL     1      16.767  -3.914  22.800  0.00  0.00    +0.123 C 
BRANCH  10  12
ATOM     12  C   UNL     1      16.866  -2.657  23.623  0.00  0.00    +0.008 A 
ATOM     13  C   UNL     1      17.031  -1.415  23.010  0.00  0.00    +0.121 A 
ATOM     15  C   UNL     1      16.792  -2.744  25.013  0.00  0.00    +0.008 A 
ATOM     17  C   UNL     1      17.121  -0.260  23.787  0.00  0.00    +0.046 A 
ATOM     18  C   UNL     1      16.881  -1.589  25.790  0.00  0.00    +0.001 A 
ATOM     19  C   UNL     1      17.047  -0.347  25.177  0.00  0.00    +0.004 A 
BRANCH  13   2
ATOM      2  O   UNL     1      17.106  -1.312  21.654  0.00  0.00    -0.506 OA
ATOM     26  H   UNL     1      17.291  -2.190  21.279  0.00  0.00    +0.292 HD
ENDBRANCH  13   2
ENDBRANCH  10  12
ENDBRANCH   3  10
TORSDOF 5
ENDMDL
MODEL 2
REMARK VINA RESULT:      -2.6     17.670     19.146
REMARK  Name = 51137435
REMARK  6 active torsions:
REMARK  status: ('A' for Active; 'I' for Inactive)
REMARK    1  A    between atoms: O_2  and  C_13
REMARK    2  A    between atoms: N_3  and  C_10
REMARK    3  A    between atoms: C_6  and  C_11
REMARK    4  A    between atoms: C_10  and  C_12
REMARK    5  A    between atoms: C_14  and  C_16
REMARK    6  A    between atoms: C_24  and  C_25
REMARK                            x       y       z     vdW  Elec       q    Type
REMARK                         _______ _______ _______ _____ _____    ______ ____
ROOT
ATOM      3  N   UNL     1      -4.086  -0.727  24.533  0.00  0.00    -0.297 NA
ATOM      6  C   UNL     1      -1.802  -0.789  24.006  0.00  0.00    +0.092 C 
ATOM      7  C   UNL     1      -2.017  -1.342  25.425  0.00  0.00    +0.029 C 
ATOM      8  C   UNL     1      -3.109  -0.058  23.670  0.00  0.00    +0.097 C 
ATOM      9  C   UNL     1      -3.412  -0.874  25.822  0.00  0.00    +0.085 C 
ENDROOT
BRANCH   6  11
ATOM      1  O   UNL     1       0.619  -0.548  23.729  0.00  0.00    -0.420 OA
ATOM      4  N   UNL     1      -0.488   1.394  23.797  0.00  0.00    -0.112 NA
ATOM      5  N   UNL     1       0.856   1.674  23.640  0.00  0.00    -0.107 NA
ATOM     11  C   UNL     1      -0.580   0.086  23.844  0.00  0.00    +0.222 A 
ATOM     14  C   UNL     1       1.464   0.512  23.605  0.00  0.00    +0.248 A 
BRANCH  14  16
ATOM     16  C   UNL     1       2.855   0.192  23.459  0.00  0.00    +0.038 A 
ATOM     20  C   UNL     1       3.741   1.147  22.960  0.00  0.00    +0.013 A 
ATOM     21  C   UNL     1       3.320  -1.073  23.815  0.00  0.00    +0.013 A 
ATOM     22  C   UNL     1       5.093   0.836  22.818  0.00  0.00    +0.004 A 
ATOM     23  C   UNL     1       4.672  -1.384  23.673  0.00  0.00    +0.004 A 
ATOM     24  C   UNL     1       5.559  -0.429  23.175  0.00  0.00    -0.050 A 
ATOM     25  C   UNL     1       7.005  -0.762  23.022  0.00  0.00    +0.044 C 
ENDBRANCH  14  16
ENDBRANCH   6  11
BRANCH   3  10
ATOM     10  C   UNL     1      -5.332   0.017  24.640  0.00  0.00    +0.123 C 
BRANCH  10  12
ATOM     12  C   UNL     1      -5.092   1.494  24.805  0.00  0.00    +0.008 A 
ATOM     13  C   UNL     1      -5.788   2.228  25.765  0.00  0.00    +0.121 A 
ATOM     15  C   UNL     1      -4.160   2.128  23.983  0.00  0.00    +0.008 A 
ATOM     17  C   UNL     1      -5.553   3.596  25.904  0.00  0.00    +0.046 A 
ATOM     18  C   UNL     1      -3.924   3.496  24.122  0.00  0.00    +0.001 A 
ATOM     19  C   UNL     1      -4.621   4.230  25.082  0.00  0.00    +0.004 A 
BRANCH  13   2
ATOM      2  O   UNL     1      -6.701   1.624  26.575  0.00  0.00    -0.506 OA
ATOM     26  H   UNL     1      -7.529   1.496  26.081  0.00  0.00    +0.292 HD
ENDBRANCH  13   2
ENDBRANCH  10  12
ENDBRANCH   3  10
TORSDOF 5
ENDMDL
MODEL 3
REMARK VINA RESULT:      -1.1     17.875     19.138
REMARK  Name = 51137435
REMARK  6 active torsions:
REMARK  status: ('A' for Active; 'I' for Inactive)
REMARK    1  A    between atoms: O_2  and  C_13
REMARK    2  A    between atoms: N_3  and  C_10
REMARK    3  A    between atoms: C_6  and  C_11
REMARK    4  A    between atoms: C_10  and  C_12
REMARK    5  A    between atoms: C_14  and  C_16
REMARK    6  A    between atoms: C_24  and  C_25
REMARK                            x       y       z     vdW  Elec       q    Type
REMARK                         _______ _______ _______ _____ _____    ______ ____
ROOT
ATOM      3  N   UNL     1      -4.791   1.266  24.318  0.00  0.00    -0.297 NA
ATOM      6  C   UNL     1      -3.569  -0.733  24.250  0.00  0.00    +0.092 C 
ATOM      7  C   UNL     1      -4.359  -0.658  25.568  0.00  0.00    +0.029 C 
ATOM      8  C   UNL     1      -3.590   0.700  23.701  0.00  0.00    +0.097 C 
ATOM      9  C   UNL     1      -4.756   0.806  25.706  0.00  0.00    +0.085 C 
ENDROOT
BRANCH   6  11
ATOM      1  O   UNL     1      -1.153  -0.517  23.921  0.00  0.00    -0.420 OA
ATOM      4  N   UNL     1      -1.774  -2.444  24.872  0.00  0.00    -0.112 NA
ATOM      5  N   UNL     1      -0.398  -2.455  24.746  0.00  0.00    -0.107 NA
ATOM     11  C   UNL     1      -2.172  -1.295  24.378  0.00  0.00    +0.222 A 
ATOM     14  C   UNL     1      -0.079  -1.311  24.187  0.00  0.00    +0.248 A 
BRANCH  14  16
ATOM     16  C   UNL     1       1.201  -0.779  23.820  0.00  0.00    +0.038 A 
ATOM     20  C   UNL     1       1.303   0.531  23.352  0.00  0.00    +0.013 A 
ATOM     21  C   UNL     1       2.344  -1.572  23.928  0.00  0.00    +0.013 A 
ATOM     22  C   UNL     1       2.547   1.050  22.995  0.00  0.00    +0.004 A 
ATOM     23  C   UNL     1       3.588  -1.053  23.571  0.00  0.00    +0.004 A 
ATOM     24  C   UNL     1       3.690   0.257  23.104  0.00  0.00    -0.050 A 
ATOM     25  C   UNL     1       5.021   0.812  22.721  0.00  0.00    +0.044 C 
ENDBRANCH  14  16
ENDBRANCH   6  11
BRANCH   3  10
ATOM     10  C   UNL     1      -4.836   2.718  24.216  0.00  0.00    +0.123 C 
BRANCH  10  12
ATOM     12  C   UNL     1      -3.505   3.344  24.539  0.00  0.00    +0.008 A 
ATOM     13  C   UNL     1      -3.331   4.087  25.706  0.00  0.00    +0.121 A 
ATOM     15  C   UNL     1      -2.439   3.173  23.656  0.00  0.00    +0.008 A 
ATOM     17  C   UNL     1      -2.091   4.660  25.990  0.00  0.00    +0.046 A 
ATOM     18  C   UNL     1      -1.199   3.745  23.939  0.00  0.00    +0.001 A 
ATOM     19  C   UNL     1      -1.026   4.489  25.106  0.00  0.00    +0.004 A 
BRANCH  13   2
ATOM      2  O   UNL     1      -4.361   4.263  26.580  0.00  0.00    -0.506 OA
ATOM     26  H   UNL     1      -4.378   5.192  26.867  0.00  0.00    +0.292 HD
ENDBRANCH  13   2
ENDBRANCH  10  12
ENDBRANCH   3  10
TORSDOF 5
ENDMDL
MODEL 4
REMARK VINA RESULT:      -1.0     16.751     18.501
REMARK  Name = 51137435
REMARK  6 active torsions:
REMARK  status: ('A' for Active; 'I' for Inactive)
REMARK    1  A    between atoms: O_2  and  C_13
REMARK    2  A    between atoms: N_3  and  C_10
REMARK    3  A    between atoms: C_6  and  C_11
REMARK    4  A    between atoms: C_10  and  C_12
REMARK    5  A    between atoms: C_14  and  C_16
REMARK    6  A    between atoms: C_24  and  C_25
REMARK                            x       y       z     vdW  Elec       q    Type
REMARK                         _______ _______ _______ _____ _____    ______ ____
ROOT
ATOM      3  N   UNL     1      -3.206   1.590  24.880  0.00  0.00    -0.297 NA
ATOM      6  C   UNL     1      -1.033   1.737  24.014  0.00  0.00    +0.092 C 
ATOM      7  C   UNL     1      -2.000   2.524  23.112  0.00  0.00    +0.029 C 
ATOM      8  C   UNL     1      -1.940   0.854  24.881  0.00  0.00    +0.097 C 
ATOM      9  C   UNL     1      -3.388   2.026  23.496  0.00  0.00    +0.085 C 
ENDROOT
BRANCH   6  11
ATOM      1  O   UNL     1       1.289   0.996  23.778  0.00  0.00    -0.420 OA
ATOM      4  N   UNL     1      -0.084   0.208  22.198  0.00  0.00    -0.112 NA
ATOM      5  N   UNL     1       1.183  -0.284  21.946  0.00  0.00    -0.107 NA
ATOM     11  C   UNL     1       0.025   0.949  23.276  0.00  0.00    +0.222 A 
ATOM     14  C   UNL     1       1.952   0.201  22.892  0.00  0.00    +0.248 A 
BRANCH  14  16
ATOM     16  C   UNL     1       3.355   0.027  23.134  0.00  0.00    +0.038 A 
ATOM     20  C   UNL     1       3.832  -1.189  23.624  0.00  0.00    +0.013 A 
ATOM     21  C   UNL     1       4.241   1.073  22.880  0.00  0.00    +0.013 A 
ATOM     22  C   UNL     1       5.196  -1.359  23.858  0.00  0.00    +0.004 A 
ATOM     23  C   UNL     1       5.605   0.903  23.115  0.00  0.00    +0.004 A 
ATOM     24  C   UNL     1       6.082  -0.313  23.605  0.00  0.00    -0.050 A 
ATOM     25  C   UNL     1       7.542  -0.495  23.856  0.00  0.00    +0.044 C 
ENDBRANCH  14  16
ENDBRANCH   6  11
BRANCH   3  10
ATOM     10  C   UNL     1      -4.319   0.780  25.356  0.00  0.00    +0.123 C 
BRANCH  10  12
ATOM     12  C   UNL     1      -4.144  -0.674  25.007  0.00  0.00    +0.008 A 
ATOM     13  C   UNL     1      -3.481  -1.541  25.875  0.00  0.00    +0.121 A 
ATOM     15  C   UNL     1      -4.656  -1.151  23.800  0.00  0.00    +0.008 A 
ATOM     17  C   UNL     1      -3.328  -2.885  25.536  0.00  0.00    +0.046 A 
ATOM     18  C   UNL     1      -4.504  -2.496  23.461  0.00  0.00    +0.001 A 
ATOM     19  C   UNL     1      -3.840  -3.363  24.329  0.00  0.00    +0.004 A 
BRANCH  13   2
ATOM      2  O   UNL     1      -2.976  -1.091  27.057  0.00  0.00    -0.506 OA
ATOM     26  H   UNL     1      -2.198  -0.536  26.878  0.00  0.00    +0.292 HD
ENDBRANCH  13   2
ENDBRANCH  10  12
ENDBRANCH   3  10
TORSDOF 5
ENDMDL
MODEL 5
REMARK VINA RESULT:      -0.9     17.780     19.302
REMARK  Name = 51137435
REMARK  6 active torsions:
REMARK  status: ('A' for Active; 'I' for Inactive)
REMARK    1  A    between atoms: O_2  and  C_13
REMARK    2  A    between atoms: N_3  and  C_10
REMARK    3  A    between atoms: C_6  and  C_11
REMARK    4  A    between atoms: C_10  and  C_12
REMARK    5  A    between atoms: C_14  and  C_16
REMARK    6  A    between atoms: C_24  and  C_25
REMARK                            x       y       z     vdW  Elec       q    Type
REMARK                         _______ _______ _______ _____ _____    ______ ____
ROOT
ATOM      3  N   UNL     1      -2.545   4.400  25.634  0.00  0.00    -0.297 NA
ATOM      6  C   UNL     1      -0.652   3.039  25.388  0.00  0.00    +0.092 C 
ATOM      7  C   UNL     1      -0.323   4.468  24.921  0.00  0.00    +0.029 C 
ATOM      8  C   UNL     1      -2.185   2.993  25.448  0.00  0.00    +0.097 C 
ATOM      9  C   UNL     1      -1.676   5.137  24.717  0.00  0.00    +0.085 C 
ENDROOT
BRANCH   6  11
ATOM      1  O   UNL     1       1.293   1.814  24.544  0.00  0.00    -0.420 OA
ATOM      4  N   UNL     1      -0.665   1.066  23.762  0.00  0.00    -0.112 NA
ATOM      5  N   UNL     1       0.338   0.293  23.210  0.00  0.00    -0.107 NA
ATOM     11  C   UNL     1      -0.063   1.941  24.534  0.00  0.00    +0.222 A 
ATOM     14  C   UNL     1       1.463   0.764  23.693  0.00  0.00    +0.248 A 
BRANCH  14  16
ATOM     16  C   UNL     1       2.819   0.353  23.469  0.00  0.00    +0.038 A 
ATOM     20  C   UNL     1       3.219  -0.941  23.804  0.00  0.00    +0.013 A 
ATOM     21  C   UNL     1       3.737   1.246  22.917  0.00  0.00    +0.013 A 
ATOM     22  C   UNL     1       4.537  -1.341  23.586  0.00  0.00    +0.004 A 
ATOM     23  C   UNL     1       5.055   0.846  22.700  0.00  0.00    +0.004 A 
ATOM     24  C   UNL     1       5.455  -0.448  23.035  0.00  0.00    -0.050 A 
ATOM     25  C   UNL     1       6.865  -0.876  22.802  0.00  0.00    +0.044 C 
ENDBRANCH  14  16
ENDBRANCH   6  11
BRANCH   3  10
ATOM     10  C   UNL     1      -3.957   4.650  25.381  0.00  0.00    +0.123 C 
BRANCH  10  12
ATOM     12  C   UNL     1      -4.748   3.371  25.305  0.00  0.00    +0.008 A 
ATOM     13  C   UNL     1      -4.642   2.531  24.197  0.00  0.00    +0.121 A 
ATOM     15  C   UNL     1      -5.595   3.030  26.360  0.00  0.00    +0.008 A 
ATOM     17  C   UNL     1      -5.382   1.350  24.143  0.00  0.00    +0.046 A 
ATOM     18  C   UNL     1      -6.335   1.849  26.307  0.00  0.00    +0.001 A 
ATOM     19  C   UNL     1      -6.229   1.009  25.198  0.00  0.00    +0.004 A 
BRANCH  13   2
ATOM      2  O   UNL     1      -3.819   2.849  23.159  0.00  0.00    -0.506 OA
ATOM     26  H   UNL     1      -4.170   3.635  22.706  0.00  0.00    +0.292 HD
ENDBRANCH  13   2
ENDBRANCH  10  12
ENDBRANCH   3  10
TORSDOF 5
ENDMDL
