MODEL 1
REMARK VINA RESULT:      -4.4      0.000      0.000
REMARK  Name = 56774180
REMARK  8 active torsions:
REMARK  status: ('A' for Active; 'I' for Inactive)
REMARK    1  A    between atoms: N_3  and  C_7
REMARK    2  A    between atoms: C_5  and  C_10
REMARK    3  A    between atoms: C_5  and  C_11
REMARK    4  A    between atoms: C_6  and  C_9
REMARK    5  A    between atoms: C_9  and  C_12
REMARK    6  A    between atoms: C_13  and  C_14
REMARK    7  A    between atoms: C_20  and  C_21
REMARK    8  A    between atoms: C_21  and  C_22
REMARK                            x       y       z     vdW  Elec       q    Type
REMARK                         _______ _______ _______ _____ _____    ______ ____
ROOT
ATOM      5  C   UNL     1      -1.897   4.416  24.953  0.00  0.00    -0.013 C 
ATOM      6  C   UNL     1      -3.309   4.346  24.332  0.00  0.00    +0.004 C 
ATOM      7  C   UNL     1      -1.386   3.708  23.680  0.00  0.00    +0.079 C 
ATOM      8  C   UNL     1      -2.809   3.131  23.522  0.00  0.00    +0.027 C 
ATOM     10  C   UNL     1      -1.319   5.807  25.125  0.00  0.00    +0.013 C 
ATOM     11  C   UNL     1      -1.766   3.642  26.246  0.00  0.00    +0.013 C 
ENDROOT
BRANCH   7   3
ATOM      1  O   UNL     1      -1.429   0.970  22.751  0.00  0.00    -0.276 OA
ATOM      3  N   UNL     1      -0.355   2.684  23.891  0.00  0.00    -0.312 N 
ATOM     13  C   UNL     1      -0.473   1.392  23.400  0.00  0.00    +0.216 C 
ATOM     28  H   UNL     1       0.475   2.913  24.433  0.00  0.00    +0.149 HD
BRANCH  13  14
ATOM     14  C   UNL     1       0.688   0.510  23.744  0.00  0.00    +0.075 C 
ATOM     15  C   UNL     1       0.806  -0.642  22.744  0.00  0.00    +0.013 C 
ATOM     16  C   UNL     1       2.000   1.298  23.647  0.00  0.00    +0.013 C 
ATOM     17  C   UNL     1       1.892  -0.199  21.773  0.00  0.00    +0.001 C 
ATOM     18  C   UNL     1       2.880   0.523  22.671  0.00  0.00    +0.001 C 
ENDBRANCH  13  14
ENDBRANCH   7   3
BRANCH   6   9
ATOM      9  C   UNL     1      -4.479   4.051  25.280  0.00  0.00    +0.063 C 
BRANCH   9  12
ATOM      2  O   UNL     1      -5.923   0.816  25.732  0.00  0.00    -0.359 OA
ATOM      4  N   UNL     1      -5.875   2.184  25.970  0.00  0.00    -0.083 NA
ATOM     12  C   UNL     1      -4.829   2.622  25.262  0.00  0.00    +0.084 A 
ATOM     19  C   UNL     1      -4.185   1.585  24.566  0.00  0.00    +0.071 A 
ATOM     22  C   UNL     1      -4.912   0.471  24.895  0.00  0.00    +0.138 A 
BRANCH  22  21
ATOM     21  C   UNL     1      -4.811  -0.984  24.527  0.00  0.00    +0.080 C 
BRANCH  21  20
ATOM     20  C   UNL     1      -3.555  -1.590  25.151  0.00  0.00    -0.004 C 
ATOM     23  C   UNL     1      -2.697  -0.499  25.809  0.00  0.00    +0.004 C 
ATOM     24  C   UNL     1      -2.745  -2.361  24.101  0.00  0.00    +0.004 C 
ATOM     25  C   UNL     1      -1.410  -1.073  26.395  0.00  0.00    +0.000 C 
ATOM     26  C   UNL     1      -1.457  -2.931  24.690  0.00  0.00    +0.000 C 
ATOM     27  C   UNL     1      -0.611  -1.847  25.350  0.00  0.00    +0.000 C 
ENDBRANCH  21  20
ENDBRANCH  22  21
ENDBRANCH   9  12
ENDBRANCH   6   9
TORSDOF 6
ENDMDL
MODEL 2
REMARK VINA RESULT:      -3.7      1.559      5.290
REMARK  Name = 56774180
REMARK  8 active torsions:
REMARK  status: ('A' for Active; 'I' for Inactive)
REMARK    1  A    between atoms: N_3  and  C_7
REMARK    2  A    between atoms: C_5  and  C_10
REMARK    3  A    between atoms: C_5  and  C_11
REMARK    4  A    between atoms: C_6  and  C_9
REMARK    5  A    between atoms: C_9  and  C_12
REMARK    6  A    between atoms: C_13  and  C_14
REMARK    7  A    between atoms: C_20  and  C_21
REMARK    8  A    between atoms: C_21  and  C_22
REMARK                            x       y       z     vdW  Elec       q    Type
REMARK                         _______ _______ _______ _____ _____    ______ ____
ROOT
ATOM      5  C   UNL     1      -3.390   3.729  24.303  0.00  0.00    -0.013 C 
ATOM      6  C   UNL     1      -2.224   4.308  25.132  0.00  0.00    +0.004 C 
ATOM      7  C   UNL     1      -3.867   3.039  25.599  0.00  0.00    +0.079 C 
ATOM      8  C   UNL     1      -2.403   3.105  26.083  0.00  0.00    +0.027 C 
ATOM     10  C   UNL     1      -4.389   4.739  23.772  0.00  0.00    +0.013 C 
ATOM     11  C   UNL     1      -2.941   2.814  23.185  0.00  0.00    +0.013 C 
ENDROOT
BRANCH   7   3
ATOM      1  O   UNL     1      -2.315   0.601  25.518  0.00  0.00    -0.276 OA
ATOM      3  N   UNL     1      -4.374   1.670  25.442  0.00  0.00    -0.312 N 
ATOM     13  C   UNL     1      -3.540   0.562  25.416  0.00  0.00    +0.216 C 
ATOM     28  H   UNL     1      -5.373   1.516  25.327  0.00  0.00    +0.149 HD
BRANCH  13  14
ATOM     14  C   UNL     1      -4.268  -0.735  25.233  0.00  0.00    +0.075 C 
ATOM     15  C   UNL     1      -4.238  -1.169  23.767  0.00  0.00    +0.013 C 
ATOM     16  C   UNL     1      -3.573  -1.850  26.025  0.00  0.00    +0.013 C 
ATOM     17  C   UNL     1      -3.120  -2.199  23.693  0.00  0.00    +0.001 C 
ATOM     18  C   UNL     1      -3.252  -2.942  25.010  0.00  0.00    +0.001 C 
ENDBRANCH  13  14
ENDBRANCH   7   3
BRANCH   6   9
ATOM      9  C   UNL     1      -0.851   4.393  24.451  0.00  0.00    +0.063 C 
BRANCH   9  12
ATOM      2  O   UNL     1       0.918   1.337  24.986  0.00  0.00    -0.359 OA
ATOM      4  N   UNL     1       0.469   2.586  25.399  0.00  0.00    -0.083 NA
ATOM     12  C   UNL     1      -0.221   3.066  24.361  0.00  0.00    +0.084 A 
ATOM     19  C   UNL     1      -0.240   2.175  23.275  0.00  0.00    +0.071 A 
ATOM     22  C   UNL     1       0.490   1.104  23.719  0.00  0.00    +0.138 A 
BRANCH  22  21
ATOM     21  C   UNL     1       0.888  -0.211  23.107  0.00  0.00    +0.080 C 
BRANCH  21  20
ATOM     20  C   UNL     1       2.390  -0.218  22.827  0.00  0.00    -0.004 C 
ATOM     23  C   UNL     1       3.119  -1.153  23.802  0.00  0.00    +0.004 C 
ATOM     24  C   UNL     1       2.962   1.203  22.902  0.00  0.00    +0.004 C 
ATOM     25  C   UNL     1       4.628  -1.137  23.575  0.00  0.00    +0.000 C 
ATOM     26  C   UNL     1       4.472   1.216  22.677  0.00  0.00    +0.000 C 
ATOM     27  C   UNL     1       5.193   0.280  23.642  0.00  0.00    +0.000 C 
ENDBRANCH  21  20
ENDBRANCH  22  21
ENDBRANCH   9  12
ENDBRANCH   6   9
TORSDOF 6
ENDMDL
MODEL 3
REMARK VINA RESULT:      -3.3      1.911      6.741
REMARK  Name = 56774180
REMARK  8 active torsions:
REMARK  status: ('A' for Active; 'I' for Inactive)
REMARK    1  A    between atoms: N_3  and  C_7
REMARK    2  A    between atoms: C_5  and  C_10
REMARK    3  A    between atoms: C_5  and  C_11
REMARK    4  A    between atoms: C_6  and  C_9
REMARK    5  A    between atoms: C_9  and  C_12
REMARK    6  A    between atoms: C_13  and  C_14
REMARK    7  A    between atoms: C_20  and  C_21
REMARK    8  A    between atoms: C_21  and  C_22
REMARK                            x       y       z     vdW  Elec       q    Type
REMARK                         _______ _______ _______ _____ _____    ______ ____
ROOT
ATOM      5  C   UNL     1      -3.202  -2.341  25.054  0.00  0.00    -0.013 C 
ATOM      6  C   UNL     1      -1.897  -2.296  24.231  0.00  0.00    +0.004 C 
ATOM      7  C   UNL     1      -3.905  -1.717  23.830  0.00  0.00    +0.079 C 
ATOM      8  C   UNL     1      -2.531  -1.137  23.432  0.00  0.00    +0.027 C 
ATOM     10  C   UNL     1      -3.725  -3.725  25.390  0.00  0.00    +0.013 C 
ATOM     11  C   UNL     1      -3.159  -1.491  26.305  0.00  0.00    +0.013 C 
ENDROOT
BRANCH   7   3
ATOM      1  O   UNL     1      -3.496   1.142  23.973  0.00  0.00    -0.276 OA
ATOM      3  N   UNL     1      -4.912  -0.691  24.128  0.00  0.00    -0.312 N 
ATOM     13  C   UNL     1      -4.611   0.663  24.172  0.00  0.00    +0.216 C 
ATOM     28  H   UNL     1      -5.869  -0.972  24.331  0.00  0.00    +0.149 HD
BRANCH  13  14
ATOM     14  C   UNL     1      -5.786   1.530  24.508  0.00  0.00    +0.075 C 
ATOM     15  C   UNL     1      -6.211   1.324  25.963  0.00  0.00    +0.013 C 
ATOM     16  C   UNL     1      -5.408   3.010  24.376  0.00  0.00    +0.013 C 
ATOM     17  C   UNL     1      -5.589   2.494  26.714  0.00  0.00    +0.001 C 
ATOM     18  C   UNL     1      -5.721   3.641  25.729  0.00  0.00    +0.001 C 
ENDBRANCH  13  14
ENDBRANCH   7   3
BRANCH   6   9
ATOM      9  C   UNL     1      -0.607  -1.934  24.979  0.00  0.00    +0.063 C 
BRANCH   9  12
ATOM      2  O   UNL     1       1.074   0.792  23.399  0.00  0.00    -0.359 OA
ATOM      4  N   UNL     1       0.808  -0.563  23.556  0.00  0.00    -0.083 NA
ATOM     12  C   UNL     1      -0.090  -0.627  24.543  0.00  0.00    +0.084 A 
ATOM     19  C   UNL     1      -0.424   0.643  25.043  0.00  0.00    +0.071 A 
ATOM     22  C   UNL     1       0.335   1.500  24.290  0.00  0.00    +0.138 A 
BRANCH  22  21
ATOM     21  C   UNL     1       0.499   2.995  24.262  0.00  0.00    +0.080 C 
BRANCH  21  20
ATOM     20  C   UNL     1      -0.839   3.668  24.564  0.00  0.00    -0.004 C 
ATOM     23  C   UNL     1      -0.686   5.195  24.579  0.00  0.00    +0.004 C 
ATOM     24  C   UNL     1      -1.412   3.163  25.895  0.00  0.00    +0.004 C 
ATOM     25  C   UNL     1      -2.000   5.889  24.931  0.00  0.00    +0.000 C 
ATOM     26  C   UNL     1      -2.724   3.860  26.245  0.00  0.00    +0.000 C 
ATOM     27  C   UNL     1      -2.571   5.378  26.251  0.00  0.00    +0.000 C 
ENDBRANCH  21  20
ENDBRANCH  22  21
ENDBRANCH   9  12
ENDBRANCH   6   9
TORSDOF 6
ENDMDL
MODEL 4
REMARK VINA RESULT:      -3.3      1.404      4.594
REMARK  Name = 56774180
REMARK  8 active torsions:
REMARK  status: ('A' for Active; 'I' for Inactive)
REMARK    1  A    between atoms: N_3  and  C_7
REMARK    2  A    between atoms: C_5  and  C_10
REMARK    3  A    between atoms: C_5  and  C_11
REMARK    4  A    between atoms: C_6  and  C_9
REMARK    5  A    between atoms: C_9  and  C_12
REMARK    6  A    between atoms: C_13  and  C_14
REMARK    7  A    between atoms: C_20  and  C_21
REMARK    8  A    between atoms: C_21  and  C_22
REMARK                            x       y       z     vdW  Elec       q    Type
REMARK                         _______ _______ _______ _____ _____    ______ ____
ROOT
ATOM      5  C   UNL     1      -3.167  -1.436  24.399  0.00  0.00    -0.013 C 
ATOM      6  C   UNL     1      -3.844  -0.955  25.700  0.00  0.00    +0.004 C 
ATOM      7  C   UNL     1      -1.856  -0.837  24.951  0.00  0.00    +0.079 C 
ATOM      8  C   UNL     1      -2.734   0.113  25.793  0.00  0.00    +0.027 C 
ATOM     10  C   UNL     1      -3.092  -2.939  24.208  0.00  0.00    +0.013 C 
ATOM     11  C   UNL     1      -3.724  -0.787  23.151  0.00  0.00    +0.013 C 
ENDROOT
BRANCH   7   3
ATOM      1  O   UNL     1       0.933  -1.345  24.383  0.00  0.00    -0.276 OA
ATOM      3  N   UNL     1      -1.010  -0.143  23.972  0.00  0.00    -0.312 N 
ATOM     13  C   UNL     1       0.325  -0.466  23.774  0.00  0.00    +0.216 C 
ATOM     28  H   UNL     1      -1.401   0.619  23.422  0.00  0.00    +0.149 HD
BRANCH  13  14
ATOM     14  C   UNL     1       1.001   0.377  22.737  0.00  0.00    +0.075 C 
ATOM     15  C   UNL     1       2.107   1.225  23.366  0.00  0.00    +0.013 C 
ATOM     16  C   UNL     1       1.685  -0.514  21.693  0.00  0.00    +0.013 C 
ATOM     17  C   UNL     1       3.392   0.465  23.069  0.00  0.00    +0.001 C 
ATOM     18  C   UNL     1       3.149  -0.085  21.675  0.00  0.00    +0.001 C 
ENDBRANCH  13  14
ENDBRANCH   7   3
BRANCH   6   9
ATOM      9  C   UNL     1      -5.269  -0.396  25.585  0.00  0.00    +0.063 C 
BRANCH   9  12
ATOM      2  O   UNL     1      -5.794   3.094  26.131  0.00  0.00    -0.359 OA
ATOM      4  N   UNL     1      -6.043   1.755  26.409  0.00  0.00    -0.083 NA
ATOM     12  C   UNL     1      -5.262   1.075  25.565  0.00  0.00    +0.084 A 
ATOM     19  C   UNL     1      -4.506   1.923  24.738  0.00  0.00    +0.071 A 
ATOM     22  C   UNL     1      -4.877   3.180  25.134  0.00  0.00    +0.138 A 
BRANCH  22  21
ATOM     21  C   UNL     1      -4.486   4.567  24.700  0.00  0.00    +0.080 C 
BRANCH  21  20
ATOM     20  C   UNL     1      -3.017   4.581  24.277  0.00  0.00    -0.004 C 
ATOM     23  C   UNL     1      -2.541   3.164  23.928  0.00  0.00    +0.004 C 
ATOM     24  C   UNL     1      -2.142   5.196  25.377  0.00  0.00    +0.004 C 
ATOM     25  C   UNL     1      -1.061   3.144  23.553  0.00  0.00    +0.000 C 
ATOM     26  C   UNL     1      -0.663   5.173  25.000  0.00  0.00    +0.000 C 
ATOM     27  C   UNL     1      -0.194   3.765  24.645  0.00  0.00    +0.000 C 
ENDBRANCH  21  20
ENDBRANCH  22  21
ENDBRANCH   9  12
ENDBRANCH   6   9
TORSDOF 6
ENDMDL
MODEL 5
REMARK VINA RESULT:      -2.9      1.680      6.370
REMARK  Name = 56774180
REMARK  8 active torsions:
REMARK  status: ('A' for Active; 'I' for Inactive)
REMARK    1  A    between atoms: N_3  and  C_7
REMARK    2  A    between atoms: C_5  and  C_10
REMARK    3  A    between atoms: C_5  and  C_11
REMARK    4  A    between atoms: C_6  and  C_9
REMARK    5  A    between atoms: C_9  and  C_12
REMARK    6  A    between atoms: C_13  and  C_14
REMARK    7  A    between atoms: C_20  and  C_21
REMARK    8  A    between atoms: C_21  and  C_22
REMARK                            x       y       z     vdW  Elec       q    Type
REMARK                         _______ _______ _______ _____ _____    ______ ____
ROOT
ATOM      5  C   UNL     1      -3.193  -0.875  25.658  0.00  0.00    -0.013 C 
ATOM      6  C   UNL     1      -2.957  -1.863  24.496  0.00  0.00    +0.004 C 
ATOM      7  C   UNL     1      -4.030  -0.033  24.671  0.00  0.00    +0.079 C 
ATOM      8  C   UNL     1      -3.201  -0.676  23.539  0.00  0.00    +0.027 C 
ATOM     10  C   UNL     1      -4.012  -1.404  26.820  0.00  0.00    +0.013 C 
ATOM     11  C   UNL     1      -1.924  -0.234  26.175  0.00  0.00    +0.013 C 
ENDROOT
BRANCH   7   3
ATOM      1  O   UNL     1      -5.984   1.893  25.582  0.00  0.00    -0.276 OA
ATOM      3  N   UNL     1      -3.860   1.422  24.772  0.00  0.00    -0.312 N 
ATOM     13  C   UNL     1      -4.866   2.263  25.225  0.00  0.00    +0.216 C 
ATOM     28  H   UNL     1      -2.981   1.845  24.484  0.00  0.00    +0.149 HD
BRANCH  13  14
ATOM     14  C   UNL     1      -4.482   3.711  25.234  0.00  0.00    +0.075 C 
ATOM     15  C   UNL     1      -3.721   4.060  26.514  0.00  0.00    +0.013 C 
ATOM     16  C   UNL     1      -3.528   4.013  24.072  0.00  0.00    +0.013 C 
ATOM     17  C   UNL     1      -2.255   4.043  26.106  0.00  0.00    +0.001 C 
ATOM     18  C   UNL     1      -2.282   4.624  24.704  0.00  0.00    +0.001 C 
ENDBRANCH  13  14
ENDBRANCH   7   3
BRANCH   6   9
ATOM      9  C   UNL     1      -1.566  -2.502  24.389  0.00  0.00    +0.063 C 
BRANCH   9  12
ATOM      2  O   UNL     1       0.736   0.211  24.087  0.00  0.00    -0.359 OA
ATOM      4  N   UNL     1      -0.219  -0.519  24.785  0.00  0.00    -0.083 NA
ATOM     12  C   UNL     1      -0.560  -1.516  23.965  0.00  0.00    +0.084 A 
ATOM     19  C   UNL     1       0.139  -1.467  22.747  0.00  0.00    +0.071 A 
ATOM     22  C   UNL     1       0.941  -0.364  22.875  0.00  0.00    +0.138 A 
BRANCH  22  21
ATOM     21  C   UNL     1       1.951   0.300  21.979  0.00  0.00    +0.080 C 
BRANCH  21  20
ATOM     20  C   UNL     1       3.362  -0.110  22.398  0.00  0.00    -0.004 C 
ATOM     23  C   UNL     1       3.312  -1.247  23.429  0.00  0.00    +0.004 C 
ATOM     24  C   UNL     1       4.135   1.095  22.951  0.00  0.00    +0.004 C 
ATOM     25  C   UNL     1       4.709  -1.639  23.903  0.00  0.00    +0.000 C 
ATOM     26  C   UNL     1       5.530   0.699  23.426  0.00  0.00    +0.000 C 
ATOM     27  C   UNL     1       5.479  -0.436  24.443  0.00  0.00    +0.000 C 
ENDBRANCH  21  20
ENDBRANCH  22  21
ENDBRANCH   9  12
ENDBRANCH   6   9
TORSDOF 6
ENDMDL
MODEL 6
REMARK VINA RESULT:      -2.7      1.854      5.377
REMARK  Name = 56774180
REMARK  8 active torsions:
REMARK  status: ('A' for Active; 'I' for Inactive)
REMARK    1  A    between atoms: N_3  and  C_7
REMARK    2  A    between atoms: C_5  and  C_10
REMARK    3  A    between atoms: C_5  and  C_11
REMARK    4  A    between atoms: C_6  and  C_9
REMARK    5  A    between atoms: C_9  and  C_12
REMARK    6  A    between atoms: C_13  and  C_14
REMARK    7  A    between atoms: C_20  and  C_21
REMARK    8  A    between atoms: C_21  and  C_22
REMARK                            x       y       z     vdW  Elec       q    Type
REMARK                         _______ _______ _______ _____ _____    ______ ____
ROOT
ATOM      5  C   UNL     1      -0.995   3.934  24.698  0.00  0.00    -0.013 C 
ATOM      6  C   UNL     1       0.164   3.000  25.106  0.00  0.00    +0.004 C 
ATOM      7  C   UNL     1      -1.749   3.413  25.939  0.00  0.00    +0.079 C 
ATOM      8  C   UNL     1      -0.888   2.137  25.833  0.00  0.00    +0.027 C 
ATOM     10  C   UNL     1      -0.702   5.421  24.767  0.00  0.00    +0.013 C 
ATOM     11  C   UNL     1      -1.603   3.593  23.355  0.00  0.00    +0.013 C 
ENDROOT
BRANCH   7   3
ATOM      1  O   UNL     1      -3.918   5.217  26.577  0.00  0.00    -0.276 OA
ATOM      3  N   UNL     1      -3.186   3.172  25.757  0.00  0.00    -0.312 N 
ATOM     13  C   UNL     1      -4.151   4.109  26.096  0.00  0.00    +0.216 C 
ATOM     28  H   UNL     1      -3.501   2.278  25.385  0.00  0.00    +0.149 HD
BRANCH  13  14
ATOM     14  C   UNL     1      -5.553   3.649  25.839  0.00  0.00    +0.075 C 
ATOM     15  C   UNL     1      -5.701   3.141  24.404  0.00  0.00    +0.013 C 
ATOM     16  C   UNL     1      -5.898   2.464  26.750  0.00  0.00    +0.013 C 
ATOM     17  C   UNL     1      -5.606   1.626  24.519  0.00  0.00    +0.001 C 
ATOM     18  C   UNL     1      -6.334   1.337  25.820  0.00  0.00    +0.001 C 
ENDBRANCH  13  14
ENDBRANCH   7   3
BRANCH   6   9
ATOM      9  C   UNL     1       0.919   2.283  23.978  0.00  0.00    +0.063 C 
BRANCH   9  12
ATOM      2  O   UNL     1       0.572  -1.198  23.260  0.00  0.00    -0.359 OA
ATOM      4  N   UNL     1       0.978   0.090  22.932  0.00  0.00    -0.083 NA
ATOM     12  C   UNL     1       0.632   0.839  23.983  0.00  0.00    +0.084 A 
ATOM     19  C   UNL     1       0.010   0.087  24.993  0.00  0.00    +0.071 A 
ATOM     22  C   UNL     1      -0.003  -1.187  24.490  0.00  0.00    +0.138 A 
BRANCH  22  21
ATOM     21  C   UNL     1      -0.505  -2.507  25.009  0.00  0.00    +0.080 C 
BRANCH  21  20
ATOM     20  C   UNL     1      -2.031  -2.485  25.086  0.00  0.00    -0.004 C 
ATOM     23  C   UNL     1      -2.647  -2.954  23.760  0.00  0.00    +0.004 C 
ATOM     24  C   UNL     1      -2.535  -1.085  25.458  0.00  0.00    +0.004 C 
ATOM     25  C   UNL     1      -4.172  -2.891  23.795  0.00  0.00    +0.000 C 
ATOM     26  C   UNL     1      -4.060  -1.026  25.490  0.00  0.00    +0.000 C 
ATOM     27  C   UNL     1      -4.670  -1.499  24.174  0.00  0.00    +0.000 C 
ENDBRANCH  21  20
ENDBRANCH  22  21
ENDBRANCH   9  12
ENDBRANCH   6   9
TORSDOF 6
ENDMDL
MODEL 7
REMARK VINA RESULT:      -2.7      2.062      4.734
REMARK  Name = 56774180
REMARK  8 active torsions:
REMARK  status: ('A' for Active; 'I' for Inactive)
REMARK    1  A    between atoms: N_3  and  C_7
REMARK    2  A    between atoms: C_5  and  C_10
REMARK    3  A    between atoms: C_5  and  C_11
REMARK    4  A    between atoms: C_6  and  C_9
REMARK    5  A    between atoms: C_9  and  C_12
REMARK    6  A    between atoms: C_13  and  C_14
REMARK    7  A    between atoms: C_20  and  C_21
REMARK    8  A    between atoms: C_21  and  C_22
REMARK                            x       y       z     vdW  Elec       q    Type
REMARK                         _______ _______ _______ _____ _____    ______ ____
ROOT
ATOM      5  C   UNL     1      -0.478   0.477  23.664  0.00  0.00    -0.013 C 
ATOM      6  C   UNL     1      -1.149  -0.905  23.814  0.00  0.00    +0.004 C 
ATOM      7  C   UNL     1       0.699  -0.254  22.984  0.00  0.00    +0.079 C 
ATOM      8  C   UNL     1       0.268  -1.513  23.765  0.00  0.00    +0.027 C 
ATOM     10  C   UNL     1      -1.177   1.455  22.738  0.00  0.00    +0.013 C 
ATOM     11  C   UNL     1      -0.174   1.149  24.985  0.00  0.00    +0.013 C 
ENDROOT
BRANCH   7   3
ATOM      1  O   UNL     1       2.983   0.003  21.230  0.00  0.00    -0.276 OA
ATOM      3  N   UNL     1       2.039   0.229  23.339  0.00  0.00    -0.312 N 
ATOM     13  C   UNL     1       3.072   0.315  22.417  0.00  0.00    +0.216 C 
ATOM     28  H   UNL     1       2.237   0.498  24.301  0.00  0.00    +0.149 HD
BRANCH  13  14
ATOM     14  C   UNL     1       4.357   0.821  22.998  0.00  0.00    +0.075 C 
ATOM     15  C   UNL     1       4.510   0.366  24.450  0.00  0.00    +0.013 C 
ATOM     16  C   UNL     1       5.551   0.234  22.236  0.00  0.00    +0.013 C 
ATOM     17  C   UNL     1       5.434  -0.842  24.379  0.00  0.00    +0.001 C 
ATOM     18  C   UNL     1       6.415  -0.458  23.285  0.00  0.00    +0.001 C 
ENDBRANCH  13  14
ENDBRANCH   7   3
BRANCH   6   9
ATOM      9  C   UNL     1      -1.922  -1.174  25.112  0.00  0.00    +0.063 C 
BRANCH   9  12
ATOM      2  O   UNL     1      -5.309  -0.044  25.016  0.00  0.00    -0.359 OA
ATOM      4  N   UNL     1      -4.339  -1.034  24.902  0.00  0.00    -0.083 NA
ATOM     12  C   UNL     1      -3.182  -0.414  25.147  0.00  0.00    +0.084 A 
ATOM     19  C   UNL     1      -3.356   0.954  25.418  0.00  0.00    +0.071 A 
ATOM     22  C   UNL     1      -4.711   1.135  25.323  0.00  0.00    +0.138 A 
BRANCH  22  21
ATOM     21  C   UNL     1      -5.616   2.325  25.486  0.00  0.00    +0.080 C 
BRANCH  21  20
ATOM     20  C   UNL     1      -4.812   3.613  25.318  0.00  0.00    -0.004 C 
ATOM     23  C   UNL     1      -4.133   3.652  23.942  0.00  0.00    +0.004 C 
ATOM     24  C   UNL     1      -3.778   3.757  26.442  0.00  0.00    +0.004 C 
ATOM     25  C   UNL     1      -3.280   4.907  23.771  0.00  0.00    +0.000 C 
ATOM     26  C   UNL     1      -2.925   5.011  26.266  0.00  0.00    +0.000 C 
ATOM     27  C   UNL     1      -2.258   5.052  24.895  0.00  0.00    +0.000 C 
ENDBRANCH  21  20
ENDBRANCH  22  21
ENDBRANCH   9  12
ENDBRANCH   6   9
TORSDOF 6
ENDMDL
MODEL 8
REMARK VINA RESULT:      -1.7      1.328      2.031
REMARK  Name = 56774180
REMARK  8 active torsions:
REMARK  status: ('A' for Active; 'I' for Inactive)
REMARK    1  A    between atoms: N_3  and  C_7
REMARK    2  A    between atoms: C_5  and  C_10
REMARK    3  A    between atoms: C_5  and  C_11
REMARK    4  A    between atoms: C_6  and  C_9
REMARK    5  A    between atoms: C_9  and  C_12
REMARK    6  A    between atoms: C_13  and  C_14
REMARK    7  A    between atoms: C_20  and  C_21
REMARK    8  A    between atoms: C_21  and  C_22
REMARK                            x       y       z     vdW  Elec       q    Type
REMARK                         _______ _______ _______ _____ _____    ______ ____
ROOT
ATOM      5  C   UNL     1      -1.223   3.157  25.048  0.00  0.00    -0.013 C 
ATOM      6  C   UNL     1      -1.781   4.596  25.002  0.00  0.00    +0.004 C 
ATOM      7  C   UNL     1       0.135   3.754  24.619  0.00  0.00    +0.079 C 
ATOM      8  C   UNL     1      -0.661   4.917  23.991  0.00  0.00    +0.027 C 
ATOM     10  C   UNL     1      -1.174   2.510  26.419  0.00  0.00    +0.013 C 
ATOM     11  C   UNL     1      -1.883   2.220  24.061  0.00  0.00    +0.013 C 
ENDROOT
BRANCH   7   3
ATOM      1  O   UNL     1       1.046   1.024  24.907  0.00  0.00    -0.276 OA
ATOM      3  N   UNL     1       0.896   2.965  23.642  0.00  0.00    -0.312 N 
ATOM     13  C   UNL     1       1.287   1.655  23.879  0.00  0.00    +0.216 C 
ATOM     28  H   UNL     1       1.171   3.391  22.759  0.00  0.00    +0.149 HD
BRANCH  13  14
ATOM     14  C   UNL     1       2.066   1.046  22.753  0.00  0.00    +0.075 C 
ATOM     15  C   UNL     1       3.512   1.544  22.766  0.00  0.00    +0.013 C 
ATOM     16  C   UNL     1       2.135  -0.477  22.918  0.00  0.00    +0.013 C 
ATOM     17  C   UNL     1       4.298   0.426  23.438  0.00  0.00    +0.001 C 
ATOM     18  C   UNL     1       3.619  -0.828  22.919  0.00  0.00    +0.001 C 
ENDBRANCH  13  14
ENDBRANCH   7   3
BRANCH   6   9
ATOM      9  C   UNL     1      -3.207   4.779  24.465  0.00  0.00    +0.063 C 
BRANCH   9  12
ATOM      2  O   UNL     1      -5.429   2.356  25.860  0.00  0.00    -0.359 OA
ATOM      4  N   UNL     1      -4.771   3.581  25.887  0.00  0.00    -0.083 NA
ATOM     12  C   UNL     1      -4.043   3.606  24.768  0.00  0.00    +0.084 A 
ATOM     19  C   UNL     1      -4.197   2.437  24.004  0.00  0.00    +0.071 A 
ATOM     22  C   UNL     1      -5.078   1.685  24.734  0.00  0.00    +0.138 A 
BRANCH  22  21
ATOM     21  C   UNL     1      -5.700   0.329  24.540  0.00  0.00    +0.080 C 
BRANCH  21  20
ATOM     20  C   UNL     1      -4.713  -0.758  24.961  0.00  0.00    -0.004 C 
ATOM     23  C   UNL     1      -3.423  -0.134  25.513  0.00  0.00    +0.004 C 
ATOM     24  C   UNL     1      -4.406  -1.697  23.787  0.00  0.00    +0.004 C 
ATOM     25  C   UNL     1      -2.399  -1.201  25.892  0.00  0.00    +0.000 C 
ATOM     26  C   UNL     1      -3.380  -2.761  24.169  0.00  0.00    +0.000 C 
ATOM     27  C   UNL     1      -2.103  -2.138  24.725  0.00  0.00    +0.000 C 
ENDBRANCH  21  20
ENDBRANCH  22  21
ENDBRANCH   9  12
ENDBRANCH   6   9
TORSDOF 6
ENDMDL
MODEL 9
REMARK VINA RESULT:      -1.6      2.478      3.401
REMARK  Name = 56774180
REMARK  8 active torsions:
REMARK  status: ('A' for Active; 'I' for Inactive)
REMARK    1  A    between atoms: N_3  and  C_7
REMARK    2  A    between atoms: C_5  and  C_10
REMARK    3  A    between atoms: C_5  and  C_11
REMARK    4  A    between atoms: C_6  and  C_9
REMARK    5  A    between atoms: C_9  and  C_12
REMARK    6  A    between atoms: C_13  and  C_14
REMARK    7  A    between atoms: C_20  and  C_21
REMARK    8  A    between atoms: C_21  and  C_22
REMARK                            x       y       z     vdW  Elec       q    Type
REMARK                         _______ _______ _______ _____ _____    ______ ____
ROOT
ATOM      5  C   UNL     1      -1.863   4.206  25.080  0.00  0.00    -0.013 C 
ATOM      6  C   UNL     1      -2.460   3.696  23.752  0.00  0.00    +0.004 C 
ATOM      7  C   UNL     1      -0.732   3.176  24.879  0.00  0.00    +0.079 C 
ATOM      8  C   UNL     1      -1.727   2.365  24.022  0.00  0.00    +0.027 C 
ATOM     10  C   UNL     1      -1.361   5.638  25.074  0.00  0.00    +0.013 C 
ATOM     11  C   UNL     1      -2.765   3.984  26.274  0.00  0.00    +0.013 C 
ENDROOT
BRANCH   7   3
ATOM      1  O   UNL     1       1.400   3.958  26.669  0.00  0.00    -0.276 OA
ATOM      3  N   UNL     1      -0.288   2.472  26.089  0.00  0.00    -0.312 N 
ATOM     13  C   UNL     1       0.751   2.935  26.884  0.00  0.00    +0.216 C 
ATOM     28  H   UNL     1      -0.739   1.600  26.356  0.00  0.00    +0.149 HD
BRANCH  13  14
ATOM     14  C   UNL     1       1.046   2.055  28.060  0.00  0.00    +0.075 C 
ATOM     15  C   UNL     1       2.503   2.210  28.499  0.00  0.00    +0.013 C 
ATOM     16  C   UNL     1       0.190   2.472  29.262  0.00  0.00    +0.013 C 
ATOM     17  C   UNL     1       2.449   3.166  29.683  0.00  0.00    +0.001 C 
ATOM     18  C   UNL     1       1.172   2.757  30.394  0.00  0.00    +0.001 C 
ENDBRANCH  13  14
ENDBRANCH   7   3
BRANCH   6   9
ATOM      9  C   UNL     1      -3.988   3.585  23.665  0.00  0.00    +0.063 C 
BRANCH   9  12
ATOM      2  O   UNL     1      -5.716   0.761  25.005  0.00  0.00    -0.359 OA
ATOM      4  N   UNL     1      -5.579   2.126  24.781  0.00  0.00    -0.083 NA
ATOM     12  C   UNL     1      -4.448   2.251  24.083  0.00  0.00    +0.084 A 
ATOM     19  C   UNL     1      -3.832   1.011  23.839  0.00  0.00    +0.071 A 
ATOM     22  C   UNL     1      -4.669   0.108  24.439  0.00  0.00    +0.138 A 
BRANCH  22  21
ATOM     21  C   UNL     1      -4.653  -1.389  24.584  0.00  0.00    +0.080 C 
BRANCH  21  20
ATOM     20  C   UNL     1      -3.308  -1.840  25.152  0.00  0.00    -0.004 C 
ATOM     23  C   UNL     1      -2.613  -0.682  25.882  0.00  0.00    +0.004 C 
ATOM     24  C   UNL     1      -2.411  -2.400  24.040  0.00  0.00    +0.004 C 
ATOM     25  C   UNL     1      -1.242  -1.093  26.413  0.00  0.00    +0.000 C 
ATOM     26  C   UNL     1      -1.041  -2.808  24.574  0.00  0.00    +0.000 C 
ATOM     27  C   UNL     1      -0.356  -1.659  25.306  0.00  0.00    +0.000 C 
ENDBRANCH  21  20
ENDBRANCH  22  21
ENDBRANCH   9  12
ENDBRANCH   6   9
TORSDOF 6
ENDMDL
MODEL 10
REMARK VINA RESULT:      -1.3      1.761      5.135
REMARK  Name = 56774180
REMARK  8 active torsions:
REMARK  status: ('A' for Active; 'I' for Inactive)
REMARK    1  A    between atoms: N_3  and  C_7
REMARK    2  A    between atoms: C_5  and  C_10
REMARK    3  A    between atoms: C_5  and  C_11
REMARK    4  A    between atoms: C_6  and  C_9
REMARK    5  A    between atoms: C_9  and  C_12
REMARK    6  A    between atoms: C_13  and  C_14
REMARK    7  A    between atoms: C_20  and  C_21
REMARK    8  A    between atoms: C_21  and  C_22
REMARK                            x       y       z     vdW  Elec       q    Type
REMARK                         _______ _______ _______ _____ _____    ______ ____
ROOT
ATOM      5  C   UNL     1      -0.087  -0.389  23.181  0.00  0.00    -0.013 C 
ATOM      6  C   UNL     1      -0.506  -1.721  23.837  0.00  0.00    +0.004 C 
ATOM      7  C   UNL     1       0.672  -0.073  24.487  0.00  0.00    +0.079 C 
ATOM      8  C   UNL     1      -0.314  -1.022  25.200  0.00  0.00    +0.027 C 
ATOM     10  C   UNL     1       0.832  -0.503  21.980  0.00  0.00    +0.013 C 
ATOM     11  C   UNL     1      -1.254   0.516  22.850  0.00  0.00    +0.013 C 
ENDROOT
BRANCH   7   3
ATOM      1  O   UNL     1      -1.417   1.108  26.102  0.00  0.00    -0.276 OA
ATOM      3  N   UNL     1       0.589   1.318  24.951  0.00  0.00    -0.312 N 
ATOM     13  C   UNL     1      -0.462   1.787  25.727  0.00  0.00    +0.216 C 
ATOM     28  H   UNL     1       1.315   1.980  24.685  0.00  0.00    +0.149 HD
BRANCH  13  14
ATOM     14  C   UNL     1      -0.351   3.240  26.075  0.00  0.00    +0.075 C 
ATOM     15  C   UNL     1       0.362   4.009  24.962  0.00  0.00    +0.013 C 
ATOM     16  C   UNL     1      -1.747   3.863  26.201  0.00  0.00    +0.013 C 
ATOM     17  C   UNL     1      -0.760   4.655  24.161  0.00  0.00    +0.001 C 
ATOM     18  C   UNL     1      -1.766   5.039  25.230  0.00  0.00    +0.001 C 
ENDBRANCH  13  14
ENDBRANCH   7   3
BRANCH   6   9
ATOM      9  C   UNL     1      -1.930  -2.222  23.565  0.00  0.00    +0.063 C 
BRANCH   9  12
ATOM      2  O   UNL     1      -3.934  -1.127  26.310  0.00  0.00    -0.359 OA
ATOM      4  N   UNL     1      -2.922  -1.904  25.760  0.00  0.00    -0.083 NA
ATOM     12  C   UNL     1      -2.900  -1.579  24.465  0.00  0.00    +0.084 A 
ATOM     19  C   UNL     1      -3.868  -0.612  24.142  0.00  0.00    +0.071 A 
ATOM     22  C   UNL     1      -4.490  -0.362  25.336  0.00  0.00    +0.138 A 
BRANCH  22  21
ATOM     21  C   UNL     1      -5.611   0.549  25.755  0.00  0.00    +0.080 C 
BRANCH  21  20
ATOM     20  C   UNL     1      -5.548   1.849  24.955  0.00  0.00    -0.004 C 
ATOM     23  C   UNL     1      -4.247   1.922  24.143  0.00  0.00    +0.004 C 
ATOM     24  C   UNL     1      -5.681   3.064  25.883  0.00  0.00    +0.004 C 
ATOM     25  C   UNL     1      -4.136   3.237  23.376  0.00  0.00    +0.000 C 
ATOM     26  C   UNL     1      -5.568   4.377  25.113  0.00  0.00    +0.000 C 
ATOM     27  C   UNL     1      -4.279   4.443  24.300  0.00  0.00    +0.000 C 
ENDBRANCH  21  20
ENDBRANCH  22  21
ENDBRANCH   9  12
ENDBRANCH   6   9
TORSDOF 6
ENDMDL
