MODEL 1
REMARK VINA RESULT:       0.2      0.000      0.000
REMARK  Name = 45361573
REMARK  8 active torsions:
REMARK  status: ('A' for Active; 'I' for Inactive)
REMARK    1  A    between atoms: O_1  and  C_10
REMARK    2  A    between atoms: N_4  and  C_14
REMARK    3  A    between atoms: C_7  and  C_17
REMARK    4  A    between atoms: C_9  and  C_19
REMARK    5  A    between atoms: C_12  and  C_18
REMARK    6  A    between atoms: C_18  and  C_20
REMARK    7  A    between atoms: C_18  and  C_21
REMARK    8  A    between atoms: C_22  and  C_27
REMARK                            x       y       z     vdW  Elec       q    Type
REMARK                         _______ _______ _______ _____ _____    ______ ____
ROOT
ATOM      7  C   UNL     1      -2.856  -1.096  24.863  0.00  0.00    -0.027 C 
ATOM      8  C   UNL     1      -2.409   0.091  23.947  0.00  0.00    +0.028 C 
ATOM      9  C   UNL     1      -0.859   0.322  24.047  0.00  0.00    +0.012 C 
ATOM     10  C   UNL     1      -3.289   1.351  24.189  0.00  0.00    +0.122 C 
ATOM     11  C   UNL     1      -4.364  -1.370  24.657  0.00  0.00    +0.007 C 
ATOM     12  C   UNL     1      -4.803   1.049  24.083  0.00  0.00    +0.029 C 
ATOM     13  C   UNL     1      -2.084  -2.371  24.448  0.00  0.00    +0.009 C 
ATOM     14  C   UNL     1      -0.096  -0.987  23.700  0.00  0.00    +0.076 C 
ATOM     15  C   UNL     1      -5.232  -0.149  24.931  0.00  0.00    +0.007 C 
ATOM     16  C   UNL     1      -0.573  -2.199  24.500  0.00  0.00    +0.023 C 
ATOM     17  C   UNL     1      -2.602  -0.815  26.366  0.00  0.00    +0.011 C 
ATOM     19  C   UNL     1      -0.347   1.459  23.147  0.00  0.00    +0.010 C 
ENDROOT
BRANCH  14   4
ATOM      3  O   UNL     1       1.835  -0.219  21.718  0.00  0.00    -0.270 OA
ATOM      4  N   UNL     1       1.332  -0.843  23.894  0.00  0.00    -0.308 N 
ATOM     22  C   UNL     1       2.184  -0.466  22.869  0.00  0.00    +0.244 C 
ATOM     32  H   UNL     1       1.705  -1.140  24.789  0.00  0.00    +0.149 HD
BRANCH  22  27
ATOM      6  N   UNL     1       6.334  -0.243  23.894  0.00  0.00    -0.263 NA
ATOM     27  C   UNL     1       3.624  -0.390  23.223  0.00  0.00    +0.040 A 
ATOM     28  C   UNL     1       4.257  -1.477  23.817  0.00  0.00    +0.033 A 
ATOM     29  C   UNL     1       4.347   0.771  22.964  0.00  0.00    +0.033 A 
ATOM     30  C   UNL     1       5.601  -1.353  24.131  0.00  0.00    +0.111 A 
ATOM     31  C   UNL     1       5.686   0.793  23.315  0.00  0.00    +0.111 A 
ENDBRANCH  22  27
ENDBRANCH  14   4
BRANCH  10   1
ATOM      1  O   UNL     1      -2.999   2.333  23.193  0.00  0.00    -0.391 OA
ATOM     33  H   UNL     1      -2.033   2.420  23.126  0.00  0.00    +0.210 HD
ENDBRANCH  10   1
BRANCH  12  18
ATOM     18  C   UNL     1      -5.654   2.270  24.452  0.00  0.00    +0.078 C 
ATOM     20  C   UNL     1      -5.461   3.395  23.452  0.00  0.00    +0.017 C 
BRANCH  18  21
ATOM      2  O   UNL     1      -5.939   2.417  26.812  0.00  0.00    -0.275 OA
ATOM      5  N   UNL     1      -4.122   3.512  25.898  0.00  0.00    -0.301 N 
ATOM     21  C   UNL     1      -5.261   2.731  25.833  0.00  0.00    +0.219 C 
ATOM     23  C   UNL     1      -3.614   4.041  27.155  0.00  0.00    +0.108 C 
ATOM     24  C   UNL     1      -3.275   3.916  24.780  0.00  0.00    +0.108 C 
ATOM     25  C   UNL     1      -2.216   4.540  26.822  0.00  0.00    +0.020 C 
ATOM     26  C   UNL     1      -2.350   4.973  25.366  0.00  0.00    +0.020 C 
ENDBRANCH  18  21
ENDBRANCH  12  18
TORSDOF 5
ENDMDL
