MODEL 1
REMARK VINA RESULT:       5.2      0.000      0.000
REMARK  Name = 11941298
REMARK  4 active torsions:
REMARK  status: ('A' for Active; 'I' for Inactive)
REMARK    1  A    between atoms: N_5  and  C_11
REMARK    2  A    between atoms: N_6  and  C_12
REMARK    3  A    between atoms: C_15  and  C_16
REMARK    4  A    between atoms: C_23  and  C_26
REMARK                            x       y       z     vdW  Elec       q    Type
REMARK                         _______ _______ _______ _____ _____    ______ ____
ROOT
ATOM      2  O   UNL     1      -2.052  -1.314  26.095  0.00  0.00    -0.370 OA
ATOM      3  O   UNL     1      -3.140  -1.146  23.176  0.00  0.00    -0.370 OA
ATOM      9  C   UNL     1      -1.961  -0.633  23.819  0.00  0.00    +0.171 C 
ATOM     10  C   UNL     1      -2.356  -0.214  25.221  0.00  0.00    +0.171 C 
ATOM     11  C   UNL     1      -0.956  -1.742  24.035  0.00  0.00    +0.130 C 
ATOM     12  C   UNL     1      -3.850  -0.010  25.138  0.00  0.00    +0.130 C 
ATOM     13  C   UNL     1      -1.432  -2.362  25.336  0.00  0.00    +0.185 C 
ATOM     14  C   UNL     1      -4.262  -0.994  24.059  0.00  0.00    +0.185 C 
ENDROOT
BRANCH  12   6
ATOM      6  N   UNL     1      -4.142   1.344  24.718  0.00  0.00    -0.306 N 
ATOM      7  N   UNL     1      -2.292   2.216  25.868  0.00  0.00    -0.214 NA
ATOM      8  N   UNL     1      -3.760   3.656  24.611  0.00  0.00    -0.223 NA
ATOM     22  C   UNL     1      -3.375   2.438  25.077  0.00  0.00    +0.216 A 
ATOM     23  C   UNL     1      -1.567   3.305  26.199  0.00  0.00    +0.076 A 
ATOM     24  C   UNL     1      -2.989   4.701  24.980  0.00  0.00    +0.116 A 
ATOM     25  C   UNL     1      -1.870   4.584  25.780  0.00  0.00    +0.048 A 
ATOM     33  H   UNL     1      -4.915   1.514  24.085  0.00  0.00    +0.149 HD
BRANCH  23  26
ATOM      1  F   UNL     1       0.399   2.726  30.571  0.00  0.00    -0.205 F 
ATOM     26  C   UNL     1      -0.422   3.047  27.039  0.00  0.00    +0.003 A 
ATOM     27  C   UNL     1      -0.566   3.010  28.428  0.00  0.00    +0.048 A 
ATOM     28  C   UNL     1       0.834   2.834  26.466  0.00  0.00    +0.010 A 
ATOM     29  C   UNL     1       0.541   2.761  29.240  0.00  0.00    +0.124 A 
ATOM     30  C   UNL     1       1.940   2.585  27.279  0.00  0.00    +0.003 A 
ATOM     31  C   UNL     1       1.793   2.549  28.665  0.00  0.00    +0.038 A 
ENDBRANCH  23  26
ENDBRANCH  12   6
BRANCH  11   5
ATOM      4  O   UNL     1       0.682  -0.550  21.954  0.00  0.00    -0.276 OA
ATOM      5  N   UNL     1       0.381  -1.217  24.164  0.00  0.00    -0.307 N 
ATOM     16  C   UNL     1       1.087  -0.664  23.107  0.00  0.00    +0.216 C 
ATOM     32  H   UNL     1       0.793  -1.198  25.094  0.00  0.00    +0.149 HD
BRANCH  16  15
ATOM     15  C   UNL     1       2.443  -0.172  23.522  0.00  0.00    +0.075 C 
ATOM     17  C   UNL     1       3.393  -1.357  23.703  0.00  0.00    +0.013 C 
ATOM     18  C   UNL     1       2.976   0.821  22.486  0.00  0.00    +0.013 C 
ATOM     19  C   UNL     1       4.811  -0.898  24.033  0.00  0.00    +0.001 C 
ATOM     20  C   UNL     1       4.395   1.275  22.819  0.00  0.00    +0.001 C 
ATOM     21  C   UNL     1       5.339   0.089  22.996  0.00  0.00    +0.000 C 
ENDBRANCH  16  15
ENDBRANCH  11   5
TORSDOF 4
ENDMDL
MODEL 2
REMARK VINA RESULT:       5.8      1.806      2.474
REMARK  Name = 11941298
REMARK  4 active torsions:
REMARK  status: ('A' for Active; 'I' for Inactive)
REMARK    1  A    between atoms: N_5  and  C_11
REMARK    2  A    between atoms: N_6  and  C_12
REMARK    3  A    between atoms: C_15  and  C_16
REMARK    4  A    between atoms: C_23  and  C_26
REMARK                            x       y       z     vdW  Elec       q    Type
REMARK                         _______ _______ _______ _____ _____    ______ ____
ROOT
ATOM      2  O   UNL     1      -1.282  -1.202  26.561  0.00  0.00    -0.370 OA
ATOM      3  O   UNL     1      -2.926  -3.005  24.615  0.00  0.00    -0.370 OA
ATOM      9  C   UNL     1      -2.039  -1.892  24.414  0.00  0.00    +0.171 C 
ATOM     10  C   UNL     1      -2.269  -0.919  25.554  0.00  0.00    +0.171 C 
ATOM     11  C   UNL     1      -0.601  -2.327  24.586  0.00  0.00    +0.130 C 
ATOM     12  C   UNL     1      -3.649  -1.264  26.062  0.00  0.00    +0.130 C 
ATOM     13  C   UNL     1      -0.414  -2.243  26.090  0.00  0.00    +0.185 C 
ATOM     14  C   UNL     1      -3.753  -2.748  25.760  0.00  0.00    +0.185 C 
ENDROOT
BRANCH  12   6
ATOM      6  N   UNL     1      -4.648  -0.530  25.316  0.00  0.00    -0.306 N 
ATOM      7  N   UNL     1      -3.302   1.387  25.186  0.00  0.00    -0.214 NA
ATOM      8  N   UNL     1      -5.497   1.345  24.191  0.00  0.00    -0.223 NA
ATOM     22  C   UNL     1      -4.477   0.772  24.885  0.00  0.00    +0.216 A 
ATOM     23  C   UNL     1      -3.169   2.657  24.751  0.00  0.00    +0.076 A 
ATOM     24  C   UNL     1      -5.295   2.617  23.785  0.00  0.00    +0.116 A 
ATOM     25  C   UNL     1      -4.141   3.329  24.039  0.00  0.00    +0.048 A 
ATOM     33  H   UNL     1      -5.506  -0.996  25.040  0.00  0.00    +0.149 HD
BRANCH  23  26
ATOM      1  F   UNL     1       1.135   2.581  26.939  0.00  0.00    -0.205 F 
ATOM     26  C   UNL     1      -1.914   3.290  25.081  0.00  0.00    +0.003 A 
ATOM     27  C   UNL     1      -0.975   2.617  25.867  0.00  0.00    +0.048 A 
ATOM     28  C   UNL     1      -1.635   4.577  24.615  0.00  0.00    +0.010 A 
ATOM     29  C   UNL     1       0.237   3.229  26.185  0.00  0.00    +0.124 A 
ATOM     30  C   UNL     1      -0.422   5.188  24.935  0.00  0.00    +0.003 A 
ATOM     31  C   UNL     1       0.513   4.514  25.720  0.00  0.00    +0.038 A 
ENDBRANCH  23  26
ENDBRANCH  12   6
BRANCH  11   5
ATOM      4  O   UNL     1      -1.246   0.206  23.321  0.00  0.00    -0.276 OA
ATOM      5  N   UNL     1       0.300  -1.437  23.896  0.00  0.00    -0.307 N 
ATOM     16  C   UNL     1      -0.103  -0.242  23.321  0.00  0.00    +0.216 C 
ATOM     32  H   UNL     1       1.288  -1.677  23.892  0.00  0.00    +0.149 HD
BRANCH  16  15
ATOM     15  C   UNL     1       1.038   0.500  22.691  0.00  0.00    +0.075 C 
ATOM     17  C   UNL     1       1.775   1.321  23.751  0.00  0.00    +0.013 C 
ATOM     18  C   UNL     1       1.979  -0.485  21.991  0.00  0.00    +0.013 C 
ATOM     19  C   UNL     1       3.002   2.020  23.172  0.00  0.00    +0.001 C 
ATOM     20  C   UNL     1       3.205   0.218  21.416  0.00  0.00    +0.001 C 
ATOM     21  C   UNL     1       3.937   1.033  22.478  0.00  0.00    +0.000 C 
ENDBRANCH  16  15
ENDBRANCH  11   5
TORSDOF 4
ENDMDL
MODEL 3
REMARK VINA RESULT:       6.4      2.358      6.054
REMARK  Name = 11941298
REMARK  4 active torsions:
REMARK  status: ('A' for Active; 'I' for Inactive)
REMARK    1  A    between atoms: N_5  and  C_11
REMARK    2  A    between atoms: N_6  and  C_12
REMARK    3  A    between atoms: C_15  and  C_16
REMARK    4  A    between atoms: C_23  and  C_26
REMARK                            x       y       z     vdW  Elec       q    Type
REMARK                         _______ _______ _______ _____ _____    ______ ____
ROOT
ATOM      2  O   UNL     1      -3.322  -1.909  24.039  0.00  0.00    -0.370 OA
ATOM      3  O   UNL     1      -0.993  -1.360  26.041  0.00  0.00    -0.370 OA
ATOM      9  C   UNL     1      -1.722  -0.526  25.124  0.00  0.00    +0.171 C 
ATOM     10  C   UNL     1      -2.005  -1.354  23.887  0.00  0.00    +0.171 C 
ATOM     11  C   UNL     1      -3.093  -0.209  25.678  0.00  0.00    +0.130 C 
ATOM     12  C   UNL     1      -0.967  -2.451  23.930  0.00  0.00    +0.130 C 
ATOM     13  C   UNL     1      -3.900  -1.424  25.260  0.00  0.00    +0.185 C 
ATOM     14  C   UNL     1      -0.731  -2.627  25.419  0.00  0.00    +0.185 C 
ENDROOT
BRANCH  12   6
ATOM      6  N   UNL     1       0.247  -2.009  23.280  0.00  0.00    -0.306 N 
ATOM      7  N   UNL     1      -0.008   0.191  24.057  0.00  0.00    -0.214 NA
ATOM      8  N   UNL     1       1.877  -0.428  22.688  0.00  0.00    -0.223 NA
ATOM     22  C   UNL     1       0.719  -0.710  23.344  0.00  0.00    +0.216 A 
ATOM     23  C   UNL     1       0.481   1.448  24.097  0.00  0.00    +0.076 A 
ATOM     24  C   UNL     1       2.308   0.848  22.771  0.00  0.00    +0.116 A 
ATOM     25  C   UNL     1       1.645   1.838  23.468  0.00  0.00    +0.048 A 
ATOM     33  H   UNL     1       0.825  -2.683  22.791  0.00  0.00    +0.149 HD
BRANCH  23  26
ATOM      1  F   UNL     1      -1.555   5.797  24.601  0.00  0.00    -0.205 F 
ATOM     26  C   UNL     1      -0.306   2.387  24.859  0.00  0.00    +0.003 A 
ATOM     27  C   UNL     1      -0.556   3.665  24.353  0.00  0.00    +0.048 A 
ATOM     28  C   UNL     1      -0.819   2.023  26.106  0.00  0.00    +0.010 A 
ATOM     29  C   UNL     1      -1.317   4.573  25.090  0.00  0.00    +0.124 A 
ATOM     30  C   UNL     1      -1.579   2.932  26.842  0.00  0.00    +0.003 A 
ATOM     31  C   UNL     1      -1.828   4.206  26.334  0.00  0.00    +0.038 A 
ENDBRANCH  23  26
ENDBRANCH  12   6
BRANCH  11   5
ATOM      4  O   UNL     1      -5.754   0.898  26.031  0.00  0.00    -0.276 OA
ATOM      5  N   UNL     1      -3.625   0.998  25.095  0.00  0.00    -0.307 N 
ATOM     16  C   UNL     1      -4.915   1.449  25.323  0.00  0.00    +0.216 C 
ATOM     32  H   UNL     1      -2.994   1.573  24.541  0.00  0.00    +0.149 HD
BRANCH  16  15
ATOM     15  C   UNL     1      -5.202   2.741  24.616  0.00  0.00    +0.075 C 
ATOM     17  C   UNL     1      -5.397   3.862  25.639  0.00  0.00    +0.013 C 
ATOM     18  C   UNL     1      -4.068   3.063  23.640  0.00  0.00    +0.013 C 
ATOM     19  C   UNL     1      -5.598   5.215  24.961  0.00  0.00    +0.001 C 
ATOM     20  C   UNL     1      -4.273   4.418  22.966  0.00  0.00    +0.001 C 
ATOM     21  C   UNL     1      -4.464   5.533  23.991  0.00  0.00    +0.000 C 
ENDBRANCH  16  15
ENDBRANCH  11   5
TORSDOF 4
ENDMDL
MODEL 4
REMARK VINA RESULT:       6.6      2.929      4.466
REMARK  Name = 11941298
REMARK  4 active torsions:
REMARK  status: ('A' for Active; 'I' for Inactive)
REMARK    1  A    between atoms: N_5  and  C_11
REMARK    2  A    between atoms: N_6  and  C_12
REMARK    3  A    between atoms: C_15  and  C_16
REMARK    4  A    between atoms: C_23  and  C_26
REMARK                            x       y       z     vdW  Elec       q    Type
REMARK                         _______ _______ _______ _____ _____    ______ ____
ROOT
ATOM      2  O   UNL     1      -1.618  -1.596  25.654  0.00  0.00    -0.370 OA
ATOM      3  O   UNL     1      -2.617   0.361  23.439  0.00  0.00    -0.370 OA
ATOM      9  C   UNL     1      -2.212   0.544  24.806  0.00  0.00    +0.171 C 
ATOM     10  C   UNL     1      -2.704  -0.657  25.588  0.00  0.00    +0.171 C 
ATOM     11  C   UNL     1      -0.707   0.468  24.922  0.00  0.00    +0.130 C 
ATOM     12  C   UNL     1      -3.827  -1.213  24.744  0.00  0.00    +0.130 C 
ATOM     13  C   UNL     1      -0.464  -1.027  25.020  0.00  0.00    +0.185 C 
ATOM     14  C   UNL     1      -3.404  -0.836  23.336  0.00  0.00    +0.185 C 
ENDROOT
BRANCH  12   6
ATOM      6  N   UNL     1      -5.072  -0.560  25.084  0.00  0.00    -0.306 N 
ATOM      7  N   UNL     1      -4.094   1.573  25.031  0.00  0.00    -0.214 NA
ATOM      8  N   UNL     1      -6.433   1.296  25.544  0.00  0.00    -0.223 NA
ATOM     22  C   UNL     1      -5.204   0.810  25.224  0.00  0.00    +0.216 A 
ATOM     23  C   UNL     1      -4.258   2.904  25.175  0.00  0.00    +0.076 A 
ATOM     24  C   UNL     1      -6.525   2.636  25.672  0.00  0.00    +0.116 A 
ATOM     25  C   UNL     1      -5.461   3.498  25.498  0.00  0.00    +0.048 A 
ATOM     33  H   UNL     1      -5.916  -1.113  25.177  0.00  0.00    +0.149 HD
BRANCH  23  26
ATOM      1  F   UNL     1      -0.171   3.799  22.764  0.00  0.00    -0.205 F 
ATOM     26  C   UNL     1      -3.069   3.694  24.966  0.00  0.00    +0.003 A 
ATOM     27  C   UNL     1      -2.175   3.359  23.946  0.00  0.00    +0.048 A 
ATOM     28  C   UNL     1      -2.807   4.797  25.782  0.00  0.00    +0.010 A 
ATOM     29  C   UNL     1      -1.026   4.123  23.743  0.00  0.00    +0.124 A 
ATOM     30  C   UNL     1      -1.657   5.561  25.579  0.00  0.00    +0.003 A 
ATOM     31  C   UNL     1      -0.767   5.223  24.560  0.00  0.00    +0.038 A 
ENDBRANCH  23  26
ENDBRANCH  12   6
BRANCH  11   5
ATOM      4  O   UNL     1       1.065   2.766  25.047  0.00  0.00    -0.276 OA
ATOM      5  N   UNL     1      -0.239   1.152  26.103  0.00  0.00    -0.307 N 
ATOM     16  C   UNL     1       0.610   2.247  26.063  0.00  0.00    +0.216 C 
ATOM     32  H   UNL     1      -0.606   0.848  27.001  0.00  0.00    +0.149 HD
BRANCH  16  15
ATOM     15  C   UNL     1       0.919   2.780  27.431  0.00  0.00    +0.075 C 
ATOM     17  C   UNL     1       0.118   2.010  28.483  0.00  0.00    +0.013 C 
ATOM     18  C   UNL     1       2.424   2.693  27.697  0.00  0.00    +0.013 C 
ATOM     19  C   UNL     1       0.473   2.456  29.899  0.00  0.00    +0.001 C 
ATOM     20  C   UNL     1       2.773   3.138  29.115  0.00  0.00    +0.001 C 
ATOM     21  C   UNL     1       1.973   2.365  30.160  0.00  0.00    +0.000 C 
ENDBRANCH  16  15
ENDBRANCH  11   5
TORSDOF 4
ENDMDL
MODEL 5
REMARK VINA RESULT:       7.1      2.553      5.697
REMARK  Name = 11941298
REMARK  4 active torsions:
REMARK  status: ('A' for Active; 'I' for Inactive)
REMARK    1  A    between atoms: N_5  and  C_11
REMARK    2  A    between atoms: N_6  and  C_12
REMARK    3  A    between atoms: C_15  and  C_16
REMARK    4  A    between atoms: C_23  and  C_26
REMARK                            x       y       z     vdW  Elec       q    Type
REMARK                         _______ _______ _______ _____ _____    ______ ____
ROOT
ATOM      2  O   UNL     1      -3.245   3.327  24.009  0.00  0.00    -0.370 OA
ATOM      3  O   UNL     1      -5.600   2.525  25.892  0.00  0.00    -0.370 OA
ATOM      9  C   UNL     1      -4.172   2.542  26.054  0.00  0.00    +0.171 C 
ATOM     10  C   UNL     1      -3.562   2.124  24.730  0.00  0.00    +0.171 C 
ATOM     11  C   UNL     1      -3.683   3.958  26.254  0.00  0.00    +0.130 C 
ATOM     12  C   UNL     1      -4.671   1.374  24.032  0.00  0.00    +0.130 C 
ATOM     13  C   UNL     1      -3.557   4.463  24.829  0.00  0.00    +0.185 C 
ATOM     14  C   UNL     1      -5.920   2.041  24.578  0.00  0.00    +0.185 C 
ENDROOT
BRANCH  12   6
ATOM      6  N   UNL     1      -4.642  -0.021  24.414  0.00  0.00    -0.306 N 
ATOM      7  N   UNL     1      -2.315  -0.160  24.142  0.00  0.00    -0.214 NA
ATOM      8  N   UNL     1      -3.596  -2.076  24.847  0.00  0.00    -0.223 NA
ATOM     22  C   UNL     1      -3.484  -0.775  24.469  0.00  0.00    +0.216 A 
ATOM     23  C   UNL     1      -1.205  -0.924  24.206  0.00  0.00    +0.076 A 
ATOM     24  C   UNL     1      -2.446  -2.781  24.890  0.00  0.00    +0.116 A 
ATOM     25  C   UNL     1      -1.210  -2.253  24.577  0.00  0.00    +0.048 A 
ATOM     33  H   UNL     1      -5.499  -0.475  24.712  0.00  0.00    +0.149 HD
BRANCH  23  26
ATOM      1  F   UNL     1       3.451  -1.060  22.936  0.00  0.00    -0.205 F 
ATOM     26  C   UNL     1       0.022  -0.252  23.856  0.00  0.00    +0.003 A 
ATOM     27  C   UNL     1       1.168  -0.995  23.559  0.00  0.00    +0.048 A 
ATOM     28  C   UNL     1       0.070   1.143  23.812  0.00  0.00    +0.010 A 
ATOM     29  C   UNL     1       2.355  -0.345  23.220  0.00  0.00    +0.124 A 
ATOM     30  C   UNL     1       1.258   1.792  23.473  0.00  0.00    +0.003 A 
ATOM     31  C   UNL     1       2.400   1.048  23.177  0.00  0.00    +0.038 A 
ENDBRANCH  23  26
ENDBRANCH  12   6
BRANCH  11   5
ATOM      4  O   UNL     1      -1.570   1.971  26.104  0.00  0.00    -0.276 OA
ATOM      5  N   UNL     1      -2.409   3.979  26.931  0.00  0.00    -0.307 N 
ATOM     16  C   UNL     1      -1.459   2.979  26.796  0.00  0.00    +0.216 C 
ATOM     32  H   UNL     1      -2.181   4.803  27.481  0.00  0.00    +0.149 HD
BRANCH  16  15
ATOM     15  C   UNL     1      -0.216   3.262  27.588  0.00  0.00    +0.075 C 
ATOM     17  C   UNL     1      -0.409   2.812  29.038  0.00  0.00    +0.013 C 
ATOM     18  C   UNL     1       0.984   2.568  26.940  0.00  0.00    +0.013 C 
ATOM     19  C   UNL     1       0.865   2.994  29.859  0.00  0.00    +0.001 C 
ATOM     20  C   UNL     1       2.255   2.751  27.766  0.00  0.00    +0.001 C 
ATOM     21  C   UNL     1       2.058   2.298  29.210  0.00  0.00    +0.000 C 
ENDBRANCH  16  15
ENDBRANCH  11   5
TORSDOF 4
ENDMDL
MODEL 6
REMARK VINA RESULT:       7.3      2.618      5.819
REMARK  Name = 11941298
REMARK  4 active torsions:
REMARK  status: ('A' for Active; 'I' for Inactive)
REMARK    1  A    between atoms: N_5  and  C_11
REMARK    2  A    between atoms: N_6  and  C_12
REMARK    3  A    between atoms: C_15  and  C_16
REMARK    4  A    between atoms: C_23  and  C_26
REMARK                            x       y       z     vdW  Elec       q    Type
REMARK                         _______ _______ _______ _____ _____    ______ ____
ROOT
ATOM      2  O   UNL     1       1.807   0.918  23.407  0.00  0.00    -0.370 OA
ATOM      3  O   UNL     1      -1.299   1.156  23.234  0.00  0.00    -0.370 OA
ATOM      9  C   UNL     1      -0.373   1.133  24.333  0.00  0.00    +0.171 C 
ATOM     10  C   UNL     1       0.729   0.155  23.974  0.00  0.00    +0.171 C 
ATOM     11  C   UNL     1       0.338   2.462  24.449  0.00  0.00    +0.130 C 
ATOM     12  C   UNL     1       0.107  -0.734  22.924  0.00  0.00    +0.130 C 
ATOM     13  C   UNL     1       1.472   2.312  23.451  0.00  0.00    +0.185 C 
ATOM     14  C   UNL     1      -0.890   0.192  22.252  0.00  0.00    +0.185 C 
ENDROOT
BRANCH  12   6
ATOM      6  N   UNL     1      -0.583  -1.838  23.555  0.00  0.00    -0.306 N 
ATOM      7  N   UNL     1      -2.341  -0.465  24.285  0.00  0.00    -0.214 NA
ATOM      8  N   UNL     1      -2.330  -2.826  24.770  0.00  0.00    -0.223 NA
ATOM     22  C   UNL     1      -1.787  -1.706  24.223  0.00  0.00    +0.216 A 
ATOM     23  C   UNL     1      -3.514  -0.372  24.945  0.00  0.00    +0.076 A 
ATOM     24  C   UNL     1      -3.505  -2.660  25.415  0.00  0.00    +0.116 A 
ATOM     25  C   UNL     1      -4.149  -1.446  25.535  0.00  0.00    +0.048 A 
ATOM     33  H   UNL     1      -0.207  -2.776  23.469  0.00  0.00    +0.149 HD
BRANCH  23  26
ATOM      1  F   UNL     1      -3.126   4.403  24.342  0.00  0.00    -0.205 F 
ATOM     26  C   UNL     1      -4.083   0.952  24.999  0.00  0.00    +0.003 A 
ATOM     27  C   UNL     1      -3.315   2.062  24.637  0.00  0.00    +0.048 A 
ATOM     28  C   UNL     1      -5.406   1.131  25.413  0.00  0.00    +0.010 A 
ATOM     29  C   UNL     1      -3.866   3.342  24.689  0.00  0.00    +0.124 A 
ATOM     30  C   UNL     1      -5.956   2.412  25.465  0.00  0.00    +0.003 A 
ATOM     31  C   UNL     1      -5.186   3.517  25.104  0.00  0.00    +0.038 A 
ENDBRANCH  23  26
ENDBRANCH  12   6
BRANCH  11   5
ATOM      4  O   UNL     1      -1.195   3.074  26.838  0.00  0.00    -0.276 OA
ATOM      5  N   UNL     1       0.842   2.670  25.785  0.00  0.00    -0.307 N 
ATOM     16  C   UNL     1       0.027   2.959  26.869  0.00  0.00    +0.216 C 
ATOM     32  H   UNL     1       1.837   2.533  25.941  0.00  0.00    +0.149 HD
BRANCH  16  15
ATOM     15  C   UNL     1       0.804   3.102  28.144  0.00  0.00    +0.075 C 
ATOM     17  C   UNL     1       0.216   2.184  29.218  0.00  0.00    +0.013 C 
ATOM     18  C   UNL     1       2.282   2.795  27.891  0.00  0.00    +0.013 C 
ATOM     19  C   UNL     1       1.035   2.226  30.505  0.00  0.00    +0.001 C 
ATOM     20  C   UNL     1       3.095   2.836  29.183  0.00  0.00    +0.001 C 
ATOM     21  C   UNL     1       2.506   1.917  30.248  0.00  0.00    +0.000 C 
ENDBRANCH  16  15
ENDBRANCH  11   5
TORSDOF 4
ENDMDL
MODEL 7
REMARK VINA RESULT:       7.5      3.418      5.725
REMARK  Name = 11941298
REMARK  4 active torsions:
REMARK  status: ('A' for Active; 'I' for Inactive)
REMARK    1  A    between atoms: N_5  and  C_11
REMARK    2  A    between atoms: N_6  and  C_12
REMARK    3  A    between atoms: C_15  and  C_16
REMARK    4  A    between atoms: C_23  and  C_26
REMARK                            x       y       z     vdW  Elec       q    Type
REMARK                         _______ _______ _______ _____ _____    ______ ____
ROOT
ATOM      2  O   UNL     1      -4.638   2.851  27.322  0.00  0.00    -0.370 OA
ATOM      3  O   UNL     1      -5.690   4.305  24.770  0.00  0.00    -0.370 OA
ATOM      9  C   UNL     1      -4.879   3.137  24.974  0.00  0.00    +0.171 C 
ATOM     10  C   UNL     1      -3.986   3.409  26.169  0.00  0.00    +0.171 C 
ATOM     11  C   UNL     1      -5.737   1.971  25.413  0.00  0.00    +0.130 C 
ATOM     12  C   UNL     1      -3.947   4.915  26.266  0.00  0.00    +0.130 C 
ATOM     13  C   UNL     1      -5.845   2.194  26.910  0.00  0.00    +0.185 C 
ATOM     14  C   UNL     1      -5.300   5.320  25.709  0.00  0.00    +0.185 C 
ENDROOT
BRANCH  12   6
ATOM      6  N   UNL     1      -2.886   5.438  25.432  0.00  0.00    -0.306 N 
ATOM      7  N   UNL     1      -1.797   3.362  25.328  0.00  0.00    -0.214 NA
ATOM      8  N   UNL     1      -0.900   5.289  24.192  0.00  0.00    -0.223 NA
ATOM     22  C   UNL     1      -1.830   4.674  24.970  0.00  0.00    +0.216 A 
ATOM     23  C   UNL     1      -0.753   2.646  24.860  0.00  0.00    +0.076 A 
ATOM     24  C   UNL     1       0.116   4.514  23.759  0.00  0.00    +0.116 A 
ATOM     25  C   UNL     1       0.243   3.174  24.064  0.00  0.00    +0.048 A 
ATOM     33  H   UNL     1      -2.929   6.400  25.116  0.00  0.00    +0.149 HD
BRANCH  23  26
ATOM      1  F   UNL     1      -0.215  -2.026  23.767  0.00  0.00    -0.205 F 
ATOM     26  C   UNL     1      -0.738   1.257  25.251  0.00  0.00    +0.003 A 
ATOM     27  C   UNL     1      -0.479   0.265  24.302  0.00  0.00    +0.048 A 
ATOM     28  C   UNL     1      -0.983   0.900  26.579  0.00  0.00    +0.010 A 
ATOM     29  C   UNL     1      -0.464  -1.077  24.680  0.00  0.00    +0.124 A 
ATOM     30  C   UNL     1      -0.968  -0.444  26.955  0.00  0.00    +0.003 A 
ATOM     31  C   UNL     1      -0.709  -1.432  26.006  0.00  0.00    +0.038 A 
ENDBRANCH  23  26
ENDBRANCH  12   6
BRANCH  11   5
ATOM      4  O   UNL     1      -3.711   1.451  23.398  0.00  0.00    -0.276 OA
ATOM      5  N   UNL     1      -5.099   0.712  25.115  0.00  0.00    -0.307 N 
ATOM     16  C   UNL     1      -4.137   0.561  24.129  0.00  0.00    +0.216 C 
ATOM     32  H   UNL     1      -5.327  -0.083  25.706  0.00  0.00    +0.149 HD
BRANCH  16  15
ATOM     15  C   UNL     1      -3.621  -0.846  24.047  0.00  0.00    +0.075 C 
ATOM     17  C   UNL     1      -3.659  -1.496  25.431  0.00  0.00    +0.013 C 
ATOM     18  C   UNL     1      -4.442  -1.643  23.030  0.00  0.00    +0.013 C 
ATOM     19  C   UNL     1      -3.231  -2.961  25.378  0.00  0.00    +0.001 C 
ATOM     20  C   UNL     1      -4.012  -3.108  22.983  0.00  0.00    +0.001 C 
ATOM     21  C   UNL     1      -4.054  -3.751  24.365  0.00  0.00    +0.000 C 
ENDBRANCH  16  15
ENDBRANCH  11   5
TORSDOF 4
ENDMDL
MODEL 8
REMARK VINA RESULT:       7.5      3.364      5.908
REMARK  Name = 11941298
REMARK  4 active torsions:
REMARK  status: ('A' for Active; 'I' for Inactive)
REMARK    1  A    between atoms: N_5  and  C_11
REMARK    2  A    between atoms: N_6  and  C_12
REMARK    3  A    between atoms: C_15  and  C_16
REMARK    4  A    between atoms: C_23  and  C_26
REMARK                            x       y       z     vdW  Elec       q    Type
REMARK                         _______ _______ _______ _____ _____    ______ ____
ROOT
ATOM      2  O   UNL     1      -1.250   3.335  23.480  0.00  0.00    -0.370 OA
ATOM      3  O   UNL     1      -2.433   6.029  24.519  0.00  0.00    -0.370 OA
ATOM      9  C   UNL     1      -1.823   4.904  25.173  0.00  0.00    +0.171 C 
ATOM     10  C   UNL     1      -2.272   3.656  24.438  0.00  0.00    +0.171 C 
ATOM     11  C   UNL     1      -0.324   4.929  24.974  0.00  0.00    +0.130 C 
ATOM     12  C   UNL     1      -3.538   4.079  23.732  0.00  0.00    +0.130 C 
ATOM     13  C   UNL     1      -0.165   4.265  23.618  0.00  0.00    +0.185 C 
ATOM     14  C   UNL     1      -3.300   5.556  23.477  0.00  0.00    +0.185 C 
ENDROOT
BRANCH  12   6
ATOM      6  N   UNL     1      -4.677   3.899  24.606  0.00  0.00    -0.306 N 
ATOM      7  N   UNL     1      -4.251   1.606  24.869  0.00  0.00    -0.214 NA
ATOM      8  N   UNL     1      -6.120   2.653  25.974  0.00  0.00    -0.223 NA
ATOM     22  C   UNL     1      -5.026   2.683  25.166  0.00  0.00    +0.216 A 
ATOM     23  C   UNL     1      -4.620   0.437  25.432  0.00  0.00    +0.076 A 
ATOM     24  C   UNL     1      -6.432   1.451  26.503  0.00  0.00    +0.116 A 
ATOM     25  C   UNL     1      -5.712   0.298  26.265  0.00  0.00    +0.048 A 
ATOM     33  H   UNL     1      -5.229   4.704  24.877  0.00  0.00    +0.149 HD
BRANCH  23  26
ATOM      1  F   UNL     1      -0.336  -1.788  25.506  0.00  0.00    -0.205 F 
ATOM     26  C   UNL     1      -3.784  -0.693  25.104  0.00  0.00    +0.003 A 
ATOM     27  C   UNL     1      -2.436  -0.696  25.470  0.00  0.00    +0.048 A 
ATOM     28  C   UNL     1      -4.320  -1.786  24.419  0.00  0.00    +0.010 A 
ATOM     29  C   UNL     1      -1.628  -1.788  25.153  0.00  0.00    +0.124 A 
ATOM     30  C   UNL     1      -3.510  -2.877  24.103  0.00  0.00    +0.003 A 
ATOM     31  C   UNL     1      -2.165  -2.878  24.469  0.00  0.00    +0.038 A 
ENDBRANCH  23  26
ENDBRANCH  12   6
BRANCH  11   5
ATOM      4  O   UNL     1      -1.121   2.382  26.119  0.00  0.00    -0.276 OA
ATOM      5  N   UNL     1       0.352   4.181  26.005  0.00  0.00    -0.307 N 
ATOM     16  C   UNL     1      -0.107   2.967  26.490  0.00  0.00    +0.216 C 
ATOM     32  H   UNL     1       1.243   4.540  26.341  0.00  0.00    +0.149 HD
BRANCH  16  15
ATOM     15  C   UNL     1       0.798   2.392  27.540  0.00  0.00    +0.075 C 
ATOM     17  C   UNL     1       2.149   3.109  27.511  0.00  0.00    +0.013 C 
ATOM     18  C   UNL     1       0.135   2.501  28.915  0.00  0.00    +0.013 C 
ATOM     19  C   UNL     1       3.070   2.621  28.626  0.00  0.00    +0.001 C 
ATOM     20  C   UNL     1       1.061   2.013  30.027  0.00  0.00    +0.001 C 
ATOM     21  C   UNL     1       2.406   2.733  29.995  0.00  0.00    +0.000 C 
ENDBRANCH  16  15
ENDBRANCH  11   5
TORSDOF 4
ENDMDL
MODEL 9
REMARK VINA RESULT:       7.6      2.893      4.793
REMARK  Name = 11941298
REMARK  4 active torsions:
REMARK  status: ('A' for Active; 'I' for Inactive)
REMARK    1  A    between atoms: N_5  and  C_11
REMARK    2  A    between atoms: N_6  and  C_12
REMARK    3  A    between atoms: C_15  and  C_16
REMARK    4  A    between atoms: C_23  and  C_26
REMARK                            x       y       z     vdW  Elec       q    Type
REMARK                         _______ _______ _______ _____ _____    ______ ____
ROOT
ATOM      2  O   UNL     1      -1.542   4.621  24.618  0.00  0.00    -0.370 OA
ATOM      3  O   UNL     1      -2.961   3.563  27.187  0.00  0.00    -0.370 OA
ATOM      9  C   UNL     1      -2.389   2.913  26.040  0.00  0.00    +0.171 C 
ATOM     10  C   UNL     1      -2.689   3.781  24.834  0.00  0.00    +0.171 C 
ATOM     11  C   UNL     1      -0.880   2.918  26.131  0.00  0.00    +0.130 C 
ATOM     12  C   UNL     1      -3.874   4.613  25.262  0.00  0.00    +0.130 C 
ATOM     13  C   UNL     1      -0.525   4.284  25.573  0.00  0.00    +0.185 C 
ATOM     14  C   UNL     1      -3.671   4.736  26.761  0.00  0.00    +0.185 C 
ENDROOT
BRANCH  12   6
ATOM      6  N   UNL     1      -5.104   3.905  24.980  0.00  0.00    -0.306 N 
ATOM      7  N   UNL     1      -4.042   1.814  25.045  0.00  0.00    -0.214 NA
ATOM      8  N   UNL     1      -6.406   1.989  24.608  0.00  0.00    -0.223 NA
ATOM     22  C   UNL     1      -5.186   2.529  24.875  0.00  0.00    +0.216 A 
ATOM     23  C   UNL     1      -4.159   0.474  24.935  0.00  0.00    +0.076 A 
ATOM     24  C   UNL     1      -6.450   0.644  24.512  0.00  0.00    +0.116 A 
ATOM     25  C   UNL     1      -5.348  -0.173  24.667  0.00  0.00    +0.048 A 
ATOM     33  H   UNL     1      -5.972   4.424  24.904  0.00  0.00    +0.149 HD
BRANCH  23  26
ATOM      1  F   UNL     1      -1.038  -2.923  23.507  0.00  0.00    -0.205 F 
ATOM     26  C   UNL     1      -2.933  -0.265  25.120  0.00  0.00    +0.003 A 
ATOM     27  C   UNL     1      -2.569  -1.258  24.206  0.00  0.00    +0.048 A 
ATOM     28  C   UNL     1      -2.107   0.008  26.213  0.00  0.00    +0.010 A 
ATOM     29  C   UNL     1      -1.384  -1.972  24.385  0.00  0.00    +0.124 A 
ATOM     30  C   UNL     1      -0.923  -0.707  26.390  0.00  0.00    +0.003 A 
ATOM     31  C   UNL     1      -0.562  -1.697  25.477  0.00  0.00    +0.038 A 
ENDBRANCH  23  26
ENDBRANCH  12   6
BRANCH  11   5
ATOM      4  O   UNL     1       0.971   3.189  23.909  0.00  0.00    -0.276 OA
ATOM      5  N   UNL     1      -0.305   1.862  25.335  0.00  0.00    -0.307 N 
ATOM     16  C   UNL     1       0.574   2.090  24.288  0.00  0.00    +0.216 C 
ATOM     32  H   UNL     1      -0.513   0.903  25.602  0.00  0.00    +0.149 HD
BRANCH  16  15
ATOM     15  C   UNL     1       1.039   0.817  23.645  0.00  0.00    +0.075 C 
ATOM     17  C   UNL     1       0.140   0.476  22.454  0.00  0.00    +0.013 C 
ATOM     18  C   UNL     1       2.503   0.951  23.221  0.00  0.00    +0.013 C 
ATOM     19  C   UNL     1       0.633  -0.762  21.711  0.00  0.00    +0.001 C 
ATOM     20  C   UNL     1       2.991  -0.289  22.476  0.00  0.00    +0.001 C 
ATOM     21  C   UNL     1       2.092  -0.622  21.289  0.00  0.00    +0.000 C 
ENDBRANCH  16  15
ENDBRANCH  11   5
TORSDOF 4
ENDMDL
MODEL 10
REMARK VINA RESULT:       7.8      3.258      5.530
REMARK  Name = 11941298
REMARK  4 active torsions:
REMARK  status: ('A' for Active; 'I' for Inactive)
REMARK    1  A    between atoms: N_5  and  C_11
REMARK    2  A    between atoms: N_6  and  C_12
REMARK    3  A    between atoms: C_15  and  C_16
REMARK    4  A    between atoms: C_23  and  C_26
REMARK                            x       y       z     vdW  Elec       q    Type
REMARK                         _______ _______ _______ _____ _____    ______ ____
ROOT
ATOM      2  O   UNL     1      -1.759   3.614  23.044  0.00  0.00    -0.370 OA
ATOM      3  O   UNL     1      -1.658   5.610  25.440  0.00  0.00    -0.370 OA
ATOM      9  C   UNL     1      -1.633   4.176  25.351  0.00  0.00    +0.171 C 
ATOM     10  C   UNL     1      -2.564   3.777  24.223  0.00  0.00    +0.171 C 
ATOM     11  C   UNL     1      -0.273   3.701  24.892  0.00  0.00    +0.130 C 
ATOM     12  C   UNL     1      -3.487   4.962  24.068  0.00  0.00    +0.130 C 
ATOM     13  C   UNL     1      -0.380   3.823  23.383  0.00  0.00    +0.185 C 
ATOM     14  C   UNL     1      -2.610   6.125  24.496  0.00  0.00    +0.185 C 
ENDROOT
BRANCH  12   6
ATOM      6  N   UNL     1      -4.616   4.832  24.963  0.00  0.00    -0.306 N 
ATOM      7  N   UNL     1      -4.536   2.487  24.898  0.00  0.00    -0.214 NA
ATOM      8  N   UNL     1      -6.195   3.634  26.218  0.00  0.00    -0.223 NA
ATOM     22  C   UNL     1      -5.131   3.615  25.372  0.00  0.00    +0.216 A 
ATOM     23  C   UNL     1      -5.064   1.318  25.316  0.00  0.00    +0.076 A 
ATOM     24  C   UNL     1      -6.671   2.429  26.597  0.00  0.00    +0.116 A 
ATOM     25  C   UNL     1      -6.141   1.227  26.173  0.00  0.00    +0.048 A 
ATOM     33  H   UNL     1      -5.033   5.664  25.364  0.00  0.00    +0.149 HD
BRANCH  23  26
ATOM      1  F   UNL     1      -3.601  -3.251  25.862  0.00  0.00    -0.205 F 
ATOM     26  C   UNL     1      -4.417   0.135  24.802  0.00  0.00    +0.003 A 
ATOM     27  C   UNL     1      -4.318  -1.011  25.596  0.00  0.00    +0.048 A 
ATOM     28  C   UNL     1      -3.888   0.131  23.509  0.00  0.00    +0.010 A 
ATOM     29  C   UNL     1      -3.694  -2.154  25.098  0.00  0.00    +0.124 A 
ATOM     30  C   UNL     1      -3.263  -1.014  23.013  0.00  0.00    +0.003 A 
ATOM     31  C   UNL     1      -3.166  -2.155  23.807  0.00  0.00    +0.038 A 
ENDBRANCH  23  26
ENDBRANCH  12   6
BRANCH  11   5
ATOM      4  O   UNL     1      -0.617   1.306  23.286  0.00  0.00    -0.276 OA
ATOM      5  N   UNL     1      -0.034   2.336  25.291  0.00  0.00    -0.307 N 
ATOM     16  C   UNL     1      -0.228   1.252  24.450  0.00  0.00    +0.216 C 
ATOM     32  H   UNL     1       0.355   2.177  26.217  0.00  0.00    +0.149 HD
BRANCH  16  15
ATOM     15  C   UNL     1       0.119  -0.051  25.109  0.00  0.00    +0.075 C 
ATOM     17  C   UNL     1      -0.934  -0.397  26.164  0.00  0.00    +0.013 C 
ATOM     18  C   UNL     1       0.238  -1.153  24.053  0.00  0.00    +0.013 C 
ATOM     19  C   UNL     1      -0.672  -1.762  26.794  0.00  0.00    +0.001 C 
ATOM     20  C   UNL     1       0.497  -2.517  24.689  0.00  0.00    +0.001 C 
ATOM     21  C   UNL     1      -0.556  -2.858  25.739  0.00  0.00    +0.000 C 
ENDBRANCH  16  15
ENDBRANCH  11   5
TORSDOF 4
ENDMDL
