MODEL 1
REMARK VINA RESULT:       3.2      0.000      0.000
REMARK  Name = 51137785
REMARK  5 active torsions:
REMARK  status: ('A' for Active; 'I' for Inactive)
REMARK    1  A    between atoms: O_3  and  C_25
REMARK    2  A    between atoms: O_3  and  C_26
REMARK    3  A    between atoms: C_7  and  C_11
REMARK    4  A    between atoms: C_12  and  C_13
REMARK    5  A    between atoms: C_14  and  C_17
REMARK                            x       y       z     vdW  Elec       q    Type
REMARK                         _______ _______ _______ _____ _____    ______ ____
ROOT
ATOM      2  O   UNL     1      -4.514   2.876  26.788  0.00  0.00    -0.270 OA
ATOM      4  N   UNL     1      -3.983   1.636  24.898  0.00  0.00    -0.297 N 
ATOM      7  C   UNL     1      -3.210  -0.055  23.414  0.00  0.00    +0.095 C 
ATOM      8  C   UNL     1      -4.409  -0.582  24.217  0.00  0.00    +0.033 C 
ATOM      9  C   UNL     1      -3.353   1.463  23.587  0.00  0.00    +0.121 C 
ATOM     10  C   UNL     1      -4.506   0.374  25.398  0.00  0.00    +0.109 C 
ATOM     12  C   UNL     1      -4.037   2.794  25.657  0.00  0.00    +0.247 C 
ENDROOT
BRANCH  12  13
ATOM     13  C   UNL     1      -3.468   4.018  25.073  0.00  0.00    +0.037 A 
ATOM     15  C   UNL     1      -4.163   4.707  24.079  0.00  0.00    +0.013 A 
ATOM     16  C   UNL     1      -2.231   4.490  25.514  0.00  0.00    +0.013 A 
ATOM     18  C   UNL     1      -3.622   5.866  23.524  0.00  0.00    +0.001 A 
ATOM     19  C   UNL     1      -1.690   5.651  24.959  0.00  0.00    +0.001 A 
ATOM     22  C   UNL     1      -2.385   6.339  23.965  0.00  0.00    +0.000 A 
ENDBRANCH  12  13
BRANCH   7  11
ATOM      1  O   UNL     1      -0.756  -0.137  23.388  0.00  0.00    -0.420 OA
ATOM      5  N   UNL     1      -1.702  -1.667  24.717  0.00  0.00    -0.112 NA
ATOM      6  N   UNL     1      -0.331  -1.823  24.796  0.00  0.00    -0.107 NA
ATOM     11  C   UNL     1      -1.905  -0.672  23.885  0.00  0.00    +0.222 A 
ATOM     14  C   UNL     1       0.181  -0.909  24.004  0.00  0.00    +0.248 A 
BRANCH  14  17
ATOM     17  C   UNL     1       1.547  -0.605  23.694  0.00  0.00    +0.039 A 
ATOM     20  C   UNL     1       1.874   0.617  23.107  0.00  0.00    +0.017 A 
ATOM     21  C   UNL     1       2.550  -1.531  23.978  0.00  0.00    +0.017 A 
ATOM     23  C   UNL     1       3.203   0.915  22.805  0.00  0.00    +0.046 A 
ATOM     24  C   UNL     1       3.879  -1.235  23.677  0.00  0.00    +0.046 A 
ATOM     25  C   UNL     1       4.206  -0.012  23.090  0.00  0.00    +0.120 A 
BRANCH  25   3
ATOM      3  O   UNL     1       5.503   0.277  22.798  0.00  0.00    -0.495 OA
ATOM     26  C   UNL     1       6.504  -0.357  23.593  0.00  0.00    +0.277 C 
ENDBRANCH  25   3
ENDBRANCH  14  17
ENDBRANCH   7  11
TORSDOF 4
ENDMDL
MODEL 2
REMARK VINA RESULT:       3.6      2.006      2.516
REMARK  Name = 51137785
REMARK  5 active torsions:
REMARK  status: ('A' for Active; 'I' for Inactive)
REMARK    1  A    between atoms: O_3  and  C_25
REMARK    2  A    between atoms: O_3  and  C_26
REMARK    3  A    between atoms: C_7  and  C_11
REMARK    4  A    between atoms: C_12  and  C_13
REMARK    5  A    between atoms: C_14  and  C_17
REMARK                            x       y       z     vdW  Elec       q    Type
REMARK                         _______ _______ _______ _____ _____    ______ ____
ROOT
ATOM      2  O   UNL     1      -0.346   2.150  27.515  0.00  0.00    -0.270 OA
ATOM      4  N   UNL     1      -1.179   1.095  25.621  0.00  0.00    -0.297 N 
ATOM      7  C   UNL     1      -1.441  -0.280  23.696  0.00  0.00    +0.095 C 
ATOM      8  C   UNL     1      -1.388  -1.159  24.956  0.00  0.00    +0.033 C 
ATOM      9  C   UNL     1      -1.777   1.097  24.284  0.00  0.00    +0.121 C 
ATOM     10  C   UNL     1      -0.778  -0.248  26.012  0.00  0.00    +0.109 C 
ATOM     12  C   UNL     1      -0.919   2.191  26.427  0.00  0.00    +0.247 C 
ENDROOT
BRANCH  12  13
ATOM     13  C   UNL     1      -1.348   3.511  25.940  0.00  0.00    +0.037 A 
ATOM     15  C   UNL     1      -2.623   3.988  26.246  0.00  0.00    +0.013 A 
ATOM     16  C   UNL     1      -0.480   4.286  25.170  0.00  0.00    +0.013 A 
ATOM     18  C   UNL     1      -3.030   5.239  25.782  0.00  0.00    +0.001 A 
ATOM     19  C   UNL     1      -0.887   5.537  24.706  0.00  0.00    +0.001 A 
ATOM     22  C   UNL     1      -2.162   6.014  25.012  0.00  0.00    +0.000 A 
ENDBRANCH  12  13
BRANCH   7  11
ATOM      1  O   UNL     1       1.010  -0.250  23.573  0.00  0.00    -0.420 OA
ATOM      5  N   UNL     1       0.005  -0.573  21.601  0.00  0.00    -0.112 NA
ATOM      6  N   UNL     1       1.371  -0.579  21.389  0.00  0.00    -0.107 NA
ATOM     11  C   UNL     1      -0.159  -0.379  22.889  0.00  0.00    +0.222 A 
ATOM     14  C   UNL     1       1.918  -0.386  22.568  0.00  0.00    +0.248 A 
BRANCH  14  17
ATOM     17  C   UNL     1       3.297  -0.300  22.951  0.00  0.00    +0.039 A 
ATOM     20  C   UNL     1       4.020   0.866  22.696  0.00  0.00    +0.017 A 
ATOM     21  C   UNL     1       3.916  -1.380  23.579  0.00  0.00    +0.017 A 
ATOM     23  C   UNL     1       5.361   0.952  23.069  0.00  0.00    +0.046 A 
ATOM     24  C   UNL     1       5.257  -1.295  23.952  0.00  0.00    +0.046 A 
ATOM     25  C   UNL     1       5.980  -0.130  23.697  0.00  0.00    +0.120 A 
BRANCH  25   3
ATOM      3  O   UNL     1       7.288  -0.046  24.063  0.00  0.00    -0.495 OA
ATOM     26  C   UNL     1       8.261  -0.334  23.061  0.00  0.00    +0.277 C 
ENDBRANCH  25   3
ENDBRANCH  14  17
ENDBRANCH   7  11
TORSDOF 4
ENDMDL
MODEL 3
REMARK VINA RESULT:       3.7      2.047      3.581
REMARK  Name = 51137785
REMARK  5 active torsions:
REMARK  status: ('A' for Active; 'I' for Inactive)
REMARK    1  A    between atoms: O_3  and  C_25
REMARK    2  A    between atoms: O_3  and  C_26
REMARK    3  A    between atoms: C_7  and  C_11
REMARK    4  A    between atoms: C_12  and  C_13
REMARK    5  A    between atoms: C_14  and  C_17
REMARK                            x       y       z     vdW  Elec       q    Type
REMARK                         _______ _______ _______ _____ _____    ______ ____
ROOT
ATOM      2  O   UNL     1      -4.009   4.561  23.301  0.00  0.00    -0.270 OA
ATOM      4  N   UNL     1      -2.352   3.686  24.672  0.00  0.00    -0.297 N 
ATOM      7  C   UNL     1      -0.328   2.754  25.506  0.00  0.00    +0.095 C 
ATOM      8  C   UNL     1      -0.072   4.188  25.017  0.00  0.00    +0.033 C 
ATOM      9  C   UNL     1      -1.853   2.741  25.674  0.00  0.00    +0.121 C 
ATOM     10  C   UNL     1      -1.269   4.488  24.125  0.00  0.00    +0.109 C 
ATOM     12  C   UNL     1      -3.649   3.801  24.198  0.00  0.00    +0.247 C 
ENDROOT
BRANCH  12  13
ATOM     13  C   UNL     1      -4.674   2.936  24.803  0.00  0.00    +0.037 A 
ATOM     15  C   UNL     1      -5.502   3.434  25.809  0.00  0.00    +0.013 A 
ATOM     16  C   UNL     1      -4.816   1.617  24.371  0.00  0.00    +0.013 A 
ATOM     18  C   UNL     1      -6.472   2.613  26.384  0.00  0.00    +0.001 A 
ATOM     19  C   UNL     1      -5.787   0.796  24.946  0.00  0.00    +0.001 A 
ATOM     22  C   UNL     1      -6.615   1.294  25.952  0.00  0.00    +0.000 A 
ENDBRANCH  12  13
BRANCH   7  11
ATOM      1  O   UNL     1       1.611   1.574  24.570  0.00  0.00    -0.420 OA
ATOM      5  N   UNL     1      -0.347   0.939  23.696  0.00  0.00    -0.112 NA
ATOM      6  N   UNL     1       0.651   0.203  23.086  0.00  0.00    -0.107 NA
ATOM     11  C   UNL     1       0.259   1.725  24.555  0.00  0.00    +0.222 A 
ATOM     14  C   UNL     1       1.777   0.606  23.627  0.00  0.00    +0.248 A 
BRANCH  14  17
ATOM     17  C   UNL     1       3.129   0.194  23.382  0.00  0.00    +0.039 A 
ATOM     20  C   UNL     1       4.026   1.070  22.772  0.00  0.00    +0.017 A 
ATOM     21  C   UNL     1       3.546  -1.084  23.753  0.00  0.00    +0.017 A 
ATOM     23  C   UNL     1       5.341   0.670  22.534  0.00  0.00    +0.046 A 
ATOM     24  C   UNL     1       4.860  -1.485  23.515  0.00  0.00    +0.046 A 
ATOM     25  C   UNL     1       5.758  -0.608  22.906  0.00  0.00    +0.120 A 
BRANCH  25   3
ATOM      3  O   UNL     1       7.041  -0.999  22.676  0.00  0.00    -0.495 OA
ATOM     26  C   UNL     1       8.076  -0.158  23.183  0.00  0.00    +0.277 C 
ENDBRANCH  25   3
ENDBRANCH  14  17
ENDBRANCH   7  11
TORSDOF 4
ENDMDL
MODEL 4
REMARK VINA RESULT:       4.7      1.100      1.680
REMARK  Name = 51137785
REMARK  5 active torsions:
REMARK  status: ('A' for Active; 'I' for Inactive)
REMARK    1  A    between atoms: O_3  and  C_25
REMARK    2  A    between atoms: O_3  and  C_26
REMARK    3  A    between atoms: C_7  and  C_11
REMARK    4  A    between atoms: C_12  and  C_13
REMARK    5  A    between atoms: C_14  and  C_17
REMARK                            x       y       z     vdW  Elec       q    Type
REMARK                         _______ _______ _______ _____ _____    ______ ____
ROOT
ATOM      2  O   UNL     1      -5.679   0.684  26.666  0.00  0.00    -0.270 OA
ATOM      4  N   UNL     1      -4.443   0.226  24.753  0.00  0.00    -0.297 N 
ATOM      7  C   UNL     1      -2.902  -0.693  23.190  0.00  0.00    +0.095 C 
ATOM      8  C   UNL     1      -3.975  -1.738  23.533  0.00  0.00    +0.033 C 
ATOM      9  C   UNL     1      -3.574   0.612  23.640  0.00  0.00    +0.121 C 
ATOM     10  C   UNL     1      -4.592  -1.219  24.825  0.00  0.00    +0.109 C 
ATOM     12  C   UNL     1      -5.014   1.060  25.702  0.00  0.00    +0.247 C 
ENDROOT
BRANCH  12  13
ATOM     13  C   UNL     1      -4.795   2.507  25.554  0.00  0.00    +0.037 A 
ATOM     15  C   UNL     1      -3.504   3.005  25.383  0.00  0.00    +0.013 A 
ATOM     16  C   UNL     1      -5.882   3.382  25.587  0.00  0.00    +0.013 A 
ATOM     18  C   UNL     1      -3.298   4.378  25.246  0.00  0.00    +0.001 A 
ATOM     19  C   UNL     1      -5.676   4.755  25.449  0.00  0.00    +0.001 A 
ATOM     22  C   UNL     1      -4.384   5.253  25.278  0.00  0.00    +0.000 A 
ENDBRANCH  12  13
BRANCH   7  11
ATOM      1  O   UNL     1      -0.456  -0.499  23.257  0.00  0.00    -0.420 OA
ATOM      5  N   UNL     1      -1.312  -1.766  24.889  0.00  0.00    -0.112 NA
ATOM      6  N   UNL     1       0.062  -1.741  25.044  0.00  0.00    -0.107 NA
ATOM     11  C   UNL     1      -1.569  -1.027  23.835  0.00  0.00    +0.222 A 
ATOM     14  C   UNL     1       0.520  -0.990  24.069  0.00  0.00    +0.248 A 
BRANCH  14  17
ATOM     17  C   UNL     1       1.863  -0.614  23.735  0.00  0.00    +0.039 A 
ATOM     20  C   UNL     1       2.112   0.615  23.125  0.00  0.00    +0.017 A 
ATOM     21  C   UNL     1       2.919  -1.478  24.019  0.00  0.00    +0.017 A 
ATOM     23  C   UNL     1       3.418   0.982  22.800  0.00  0.00    +0.046 A 
ATOM     24  C   UNL     1       4.226  -1.113  23.693  0.00  0.00    +0.046 A 
ATOM     25  C   UNL     1       4.475   0.117  23.084  0.00  0.00    +0.120 A 
BRANCH  25   3
ATOM      3  O   UNL     1       5.750   0.474  22.769  0.00  0.00    -0.495 OA
ATOM     26  C   UNL     1       6.799  -0.338  23.293  0.00  0.00    +0.277 C 
ENDBRANCH  25   3
ENDBRANCH  14  17
ENDBRANCH   7  11
TORSDOF 4
ENDMDL
MODEL 5
REMARK VINA RESULT:       5.6      2.196      8.350
REMARK  Name = 51137785
REMARK  5 active torsions:
REMARK  status: ('A' for Active; 'I' for Inactive)
REMARK    1  A    between atoms: O_3  and  C_25
REMARK    2  A    between atoms: O_3  and  C_26
REMARK    3  A    between atoms: C_7  and  C_11
REMARK    4  A    between atoms: C_12  and  C_13
REMARK    5  A    between atoms: C_14  and  C_17
REMARK                            x       y       z     vdW  Elec       q    Type
REMARK                         _______ _______ _______ _____ _____    ______ ____
ROOT
ATOM      2  O   UNL     1       2.481   0.088  21.059  0.00  0.00    -0.270 OA
ATOM      4  N   UNL     1       1.332  -0.577  22.964  0.00  0.00    -0.297 N 
ATOM      7  C   UNL     1      -0.225  -0.743  24.756  0.00  0.00    +0.095 C 
ATOM      8  C   UNL     1      -0.927  -1.073  23.430  0.00  0.00    +0.033 C 
ATOM      9  C   UNL     1       1.254  -0.921  24.386  0.00  0.00    +0.121 C 
ATOM     10  C   UNL     1       0.006  -0.502  22.370  0.00  0.00    +0.109 C 
ATOM     12  C   UNL     1       2.469  -0.268  22.236  0.00  0.00    +0.247 C 
ENDROOT
BRANCH  12  13
ATOM     13  C   UNL     1       3.765  -0.358  22.927  0.00  0.00    +0.037 A 
ATOM     15  C   UNL     1       4.172  -1.565  23.494  0.00  0.00    +0.013 A 
ATOM     16  C   UNL     1       4.586   0.767  23.016  0.00  0.00    +0.013 A 
ATOM     18  C   UNL     1       5.400  -1.648  24.152  0.00  0.00    +0.001 A 
ATOM     19  C   UNL     1       5.814   0.683  23.673  0.00  0.00    +0.001 A 
ATOM     22  C   UNL     1       6.221  -0.524  24.240  0.00  0.00    +0.000 A 
ENDBRANCH  12  13
BRANCH   7  11
ATOM      1  O   UNL     1      -1.932   0.987  25.100  0.00  0.00    -0.420 OA
ATOM      5  N   UNL     1       0.085   1.528  25.902  0.00  0.00    -0.112 NA
ATOM      6  N   UNL     1      -0.773   2.581  26.160  0.00  0.00    -0.107 NA
ATOM     11  C   UNL     1      -0.634   0.621  25.283  0.00  0.00    +0.222 A 
ATOM     14  C   UNL     1      -1.939   2.221  25.675  0.00  0.00    +0.248 A 
BRANCH  14  17
ATOM     17  C   UNL     1      -3.194   2.914  25.657  0.00  0.00    +0.039 A 
ATOM     20  C   UNL     1      -4.354   2.247  25.265  0.00  0.00    +0.017 A 
ATOM     21  C   UNL     1      -3.256   4.256  26.030  0.00  0.00    +0.017 A 
ATOM     23  C   UNL     1      -5.576   2.920  25.247  0.00  0.00    +0.046 A 
ATOM     24  C   UNL     1      -4.477   4.931  26.013  0.00  0.00    +0.046 A 
ATOM     25  C   UNL     1      -5.637   4.262  25.622  0.00  0.00    +0.120 A 
BRANCH  25   3
ATOM      3  O   UNL     1      -6.828   4.920  25.607  0.00  0.00    -0.495 OA
ATOM     26  C   UNL     1      -6.877   6.158  24.900  0.00  0.00    +0.277 C 
ENDBRANCH  25   3
ENDBRANCH  14  17
ENDBRANCH   7  11
TORSDOF 4
ENDMDL
MODEL 6
REMARK VINA RESULT:       6.1      2.035      3.147
REMARK  Name = 51137785
REMARK  5 active torsions:
REMARK  status: ('A' for Active; 'I' for Inactive)
REMARK    1  A    between atoms: O_3  and  C_25
REMARK    2  A    between atoms: O_3  and  C_26
REMARK    3  A    between atoms: C_7  and  C_11
REMARK    4  A    between atoms: C_12  and  C_13
REMARK    5  A    between atoms: C_14  and  C_17
REMARK                            x       y       z     vdW  Elec       q    Type
REMARK                         _______ _______ _______ _____ _____    ______ ____
ROOT
ATOM      2  O   UNL     1      -3.726  -0.784  26.779  0.00  0.00    -0.270 OA
ATOM      4  N   UNL     1      -2.762  -0.531  24.681  0.00  0.00    -0.297 N 
ATOM      7  C   UNL     1      -1.221  -0.380  22.874  0.00  0.00    +0.095 C 
ATOM      8  C   UNL     1      -1.267  -1.825  23.394  0.00  0.00    +0.033 C 
ATOM      9  C   UNL     1      -2.526   0.201  23.435  0.00  0.00    +0.121 C 
ATOM     10  C   UNL     1      -1.897  -1.697  24.774  0.00  0.00    +0.109 C 
ATOM     12  C   UNL     1      -3.613  -0.177  25.715  0.00  0.00    +0.247 C 
ENDROOT
BRANCH  12  13
ATOM     13  C   UNL     1      -4.438   1.028  25.535  0.00  0.00    +0.037 A 
ATOM     15  C   UNL     1      -3.843   2.290  25.545  0.00  0.00    +0.013 A 
ATOM     16  C   UNL     1      -5.817   0.908  25.356  0.00  0.00    +0.013 A 
ATOM     18  C   UNL     1      -4.626   3.432  25.376  0.00  0.00    +0.001 A 
ATOM     19  C   UNL     1      -6.599   2.051  25.187  0.00  0.00    +0.001 A 
ATOM     22  C   UNL     1      -6.004   3.312  25.196  0.00  0.00    +0.000 A 
ENDBRANCH  12  13
BRANCH   7  11
ATOM      1  O   UNL     1       1.228  -0.339  23.032  0.00  0.00    -0.420 OA
ATOM      5  N   UNL     1       0.234   1.492  23.845  0.00  0.00    -0.112 NA
ATOM      6  N   UNL     1       1.600   1.646  23.995  0.00  0.00    -0.107 NA
ATOM     11  C   UNL     1       0.064   0.321  23.279  0.00  0.00    +0.222 A 
ATOM     14  C   UNL     1       2.140   0.553  23.507  0.00  0.00    +0.248 A 
BRANCH  14  17
ATOM     17  C   UNL     1       3.516   0.162  23.400  0.00  0.00    +0.039 A 
ATOM     20  C   UNL     1       4.467   1.077  22.948  0.00  0.00    +0.017 A 
ATOM     21  C   UNL     1       3.902  -1.131  23.747  0.00  0.00    +0.017 A 
ATOM     23  C   UNL     1       5.806   0.698  22.844  0.00  0.00    +0.046 A 
ATOM     24  C   UNL     1       5.240  -1.512  23.642  0.00  0.00    +0.046 A 
ATOM     25  C   UNL     1       6.192  -0.597  23.191  0.00  0.00    +0.120 A 
BRANCH  25   3
ATOM      3  O   UNL     1       7.498  -0.967  23.092  0.00  0.00    -0.495 OA
ATOM     26  C   UNL     1       8.476   0.062  23.227  0.00  0.00    +0.277 C 
ENDBRANCH  25   3
ENDBRANCH  14  17
ENDBRANCH   7  11
TORSDOF 4
ENDMDL
