MODEL 1
REMARK VINA RESULT:      -3.8      0.000      0.000
REMARK  Name = 40777017
REMARK  10 active torsions:
REMARK  status: ('A' for Active; 'I' for Inactive)
REMARK    1  A    between atoms: O_2  and  C_30
REMARK    2  A    between atoms: N_5  and  C_15
REMARK    3  A    between atoms: C_9  and  C_16
REMARK    4  A    between atoms: C_10  and  C_15
REMARK    5  A    between atoms: C_18  and  C_19
REMARK    6  A    between atoms: C_24  and  C_27
REMARK    7  A    between atoms: C_25  and  C_26
REMARK    8  A    between atoms: C_26  and  C_28
REMARK    9  A    between atoms: C_28  and  C_29
REMARK   10  A    between atoms: C_29  and  C_30
REMARK                            x       y       z     vdW  Elec       q    Type
REMARK                         _______ _______ _______ _____ _____    ______ ____
ROOT
ATOM      4  N   UNL     1      -1.743  -2.048  23.832  0.00  0.00    -0.297 NA
ATOM      8  C   UNL     1      -3.599  -1.761  25.636  0.00  0.00    +0.002 C 
ATOM      9  C   UNL     1      -3.829  -0.774  24.459  0.00  0.00    +0.055 C 
ATOM     10  C   UNL     1      -1.126  -1.908  25.179  0.00  0.00    +0.074 C 
ATOM     11  C   UNL     1      -2.193  -1.530  26.229  0.00  0.00    +0.024 C 
ATOM     12  C   UNL     1      -3.611  -3.183  25.036  0.00  0.00    +0.019 C 
ATOM     13  C   UNL     1      -2.582  -0.862  23.531  0.00  0.00    +0.094 C 
ATOM     14  C   UNL     1      -2.620  -3.243  23.858  0.00  0.00    +0.085 C 
ENDROOT
BRANCH   9  16
ATOM      6  N   UNL     1      -5.350   0.852  25.471  0.00  0.00    -0.237 NA
ATOM      7  N   UNL     1      -4.924   3.222  25.405  0.00  0.00    -0.237 NA
ATOM     16  C   UNL     1      -4.202   0.664  24.788  0.00  0.00    +0.050 A 
ATOM     17  C   UNL     1      -3.373   1.691  24.384  0.00  0.00    +0.047 A 
ATOM     19  C   UNL     1      -3.789   2.962  24.724  0.00  0.00    +0.048 A 
ATOM     24  C   UNL     1      -5.646   2.137  25.741  0.00  0.00    +0.127 A 
ATOM     27  C   UNL     1      -6.908   2.386  26.498  0.00  0.00    +0.088 C 
BRANCH  19  18
ATOM     18  C   UNL     1      -2.948   4.153  24.323  0.00  0.00    +0.038 C 
ATOM     20  C   UNL     1      -2.483   4.982  25.533  0.00  0.00    +0.010 C 
ATOM     21  C   UNL     1      -1.665   3.797  23.544  0.00  0.00    +0.010 C 
ATOM     22  C   UNL     1      -1.091   5.468  25.158  0.00  0.00    +0.001 C 
ATOM     23  C   UNL     1      -0.507   4.285  24.407  0.00  0.00    +0.001 C 
ENDBRANCH  19  18
ENDBRANCH   9  16
BRANCH  10  15
ATOM     15  C   UNL     1       0.048  -0.927  25.181  0.00  0.00    +0.123 C 
BRANCH  15   5
ATOM      1  O   UNL     1       0.946   1.289  23.592  0.00  0.00    -0.276 OA
ATOM      5  N   UNL     1       0.777  -0.999  23.953  0.00  0.00    -0.314 N 
ATOM     25  C   UNL     1       1.175   0.133  23.242  0.00  0.00    +0.213 C 
ATOM     31  H   UNL     1       1.004  -1.918  23.584  0.00  0.00    +0.149 HD
BRANCH  25  26
ATOM     26  C   UNL     1       1.907  -0.223  21.960  0.00  0.00    +0.096 C 
BRANCH  26  28
ATOM     28  C   UNL     1       3.306   0.382  21.862  0.00  0.00    +0.020 C 
BRANCH  28  29
ATOM     29  C   UNL     1       3.929   0.637  23.235  0.00  0.00    +0.121 C 
BRANCH  29  30
ATOM      3  O   UNL     1       6.253  -0.088  23.158  0.00  0.00    -0.251 OA
ATOM     30  C   UNL     1       5.096  -0.286  23.503  0.00  0.00    +0.305 C 
BRANCH  30   2
ATOM      2  O   UNL     1       4.706  -1.392  24.192  0.00  0.00    -0.481 OA
ATOM     32  H   UNL     1       4.242  -2.036  23.616  0.00  0.00    +0.295 HD
ENDBRANCH  30   2
ENDBRANCH  29  30
ENDBRANCH  28  29
ENDBRANCH  26  28
ENDBRANCH  25  26
ENDBRANCH  15   5
ENDBRANCH  10  15
TORSDOF 9
ENDMDL
MODEL 2
REMARK VINA RESULT:      -3.4      2.527      5.731
REMARK  Name = 40777017
REMARK  10 active torsions:
REMARK  status: ('A' for Active; 'I' for Inactive)
REMARK    1  A    between atoms: O_2  and  C_30
REMARK    2  A    between atoms: N_5  and  C_15
REMARK    3  A    between atoms: C_9  and  C_16
REMARK    4  A    between atoms: C_10  and  C_15
REMARK    5  A    between atoms: C_18  and  C_19
REMARK    6  A    between atoms: C_24  and  C_27
REMARK    7  A    between atoms: C_25  and  C_26
REMARK    8  A    between atoms: C_26  and  C_28
REMARK    9  A    between atoms: C_28  and  C_29
REMARK   10  A    between atoms: C_29  and  C_30
REMARK                            x       y       z     vdW  Elec       q    Type
REMARK                         _______ _______ _______ _____ _____    ______ ____
ROOT
ATOM      4  N   UNL     1      -3.384  -1.974  26.042  0.00  0.00    -0.297 NA
ATOM      8  C   UNL     1      -2.522  -1.746  23.595  0.00  0.00    +0.002 C 
ATOM      9  C   UNL     1      -1.362  -1.520  24.603  0.00  0.00    +0.055 C 
ATOM     10  C   UNL     1      -4.266  -1.055  25.275  0.00  0.00    +0.074 C 
ATOM     11  C   UNL     1      -3.658  -0.745  23.891  0.00  0.00    +0.024 C 
ATOM     12  C   UNL     1      -3.080  -3.160  23.868  0.00  0.00    +0.019 C 
ATOM     13  C   UNL     1      -1.988  -1.470  26.027  0.00  0.00    +0.094 C 
ATOM     14  C   UNL     1      -3.407  -3.294  25.366  0.00  0.00    +0.085 C 
ENDROOT
BRANCH   9  16
ATOM      6  N   UNL     1       0.632  -0.599  23.526  0.00  0.00    -0.237 NA
ATOM      7  N   UNL     1       1.338   1.680  23.868  0.00  0.00    -0.237 NA
ATOM     16  C   UNL     1      -0.408  -0.361  24.353  0.00  0.00    +0.050 A 
ATOM     17  C   UNL     1      -0.637   0.853  24.967  0.00  0.00    +0.047 A 
ATOM     19  C   UNL     1       0.278   1.847  24.684  0.00  0.00    +0.048 A 
ATOM     24  C   UNL     1       1.453   0.450  23.331  0.00  0.00    +0.127 A 
ATOM     27  C   UNL     1       2.613   0.228  22.419  0.00  0.00    +0.088 C 
BRANCH  19  18
ATOM     18  C   UNL     1       0.112   3.213  25.313  0.00  0.00    +0.038 C 
ATOM     20  C   UNL     1      -0.269   4.292  24.285  0.00  0.00    +0.010 C 
ATOM     21  C   UNL     1      -0.967   3.285  26.412  0.00  0.00    +0.010 C 
ATOM     22  C   UNL     1      -1.209   5.226  25.033  0.00  0.00    +0.001 C 
ATOM     23  C   UNL     1      -2.010   4.276  25.907  0.00  0.00    +0.001 C 
ENDBRANCH  19  18
ENDBRANCH   9  16
BRANCH  10  15
ATOM     15  C   UNL     1      -4.592   0.222  26.054  0.00  0.00    +0.123 C 
BRANCH  15   5
ATOM      1  O   UNL     1      -5.910   2.713  26.598  0.00  0.00    -0.276 OA
ATOM      5  N   UNL     1      -4.688   1.345  25.174  0.00  0.00    -0.314 N 
ATOM     25  C   UNL     1      -5.351   2.522  25.521  0.00  0.00    +0.213 C 
ATOM     31  H   UNL     1      -4.260   1.274  24.255  0.00  0.00    +0.149 HD
BRANCH  25  26
ATOM     26  C   UNL     1      -5.330   3.544  24.398  0.00  0.00    +0.096 C 
BRANCH  26  28
ATOM     28  C   UNL     1      -3.942   3.776  23.803  0.00  0.00    +0.020 C 
BRANCH  28  29
ATOM     29  C   UNL     1      -3.867   3.381  22.328  0.00  0.00    +0.121 C 
BRANCH  29  30
ATOM      3  O   UNL     1      -2.248   1.666  22.935  0.00  0.00    -0.251 OA
ATOM     30  C   UNL     1      -2.793   2.347  22.077  0.00  0.00    +0.305 C 
BRANCH  30   2
ATOM      2  O   UNL     1      -2.493   2.253  20.754  0.00  0.00    -0.481 OA
ATOM     32  H   UNL     1      -3.068   2.831  20.208  0.00  0.00    +0.295 HD
ENDBRANCH  30   2
ENDBRANCH  29  30
ENDBRANCH  28  29
ENDBRANCH  26  28
ENDBRANCH  25  26
ENDBRANCH  15   5
ENDBRANCH  10  15
TORSDOF 9
ENDMDL
MODEL 3
REMARK VINA RESULT:      -2.7      2.482      3.115
REMARK  Name = 40777017
REMARK  10 active torsions:
REMARK  status: ('A' for Active; 'I' for Inactive)
REMARK    1  A    between atoms: O_2  and  C_30
REMARK    2  A    between atoms: N_5  and  C_15
REMARK    3  A    between atoms: C_9  and  C_16
REMARK    4  A    between atoms: C_10  and  C_15
REMARK    5  A    between atoms: C_18  and  C_19
REMARK    6  A    between atoms: C_24  and  C_27
REMARK    7  A    between atoms: C_25  and  C_26
REMARK    8  A    between atoms: C_26  and  C_28
REMARK    9  A    between atoms: C_28  and  C_29
REMARK   10  A    between atoms: C_29  and  C_30
REMARK                            x       y       z     vdW  Elec       q    Type
REMARK                         _______ _______ _______ _____ _____    ______ ____
ROOT
ATOM      4  N   UNL     1      -1.946  -2.198  23.670  0.00  0.00    -0.297 NA
ATOM      8  C   UNL     1      -3.976  -1.871  25.270  0.00  0.00    +0.002 C 
ATOM      9  C   UNL     1      -3.957  -0.762  24.183  0.00  0.00    +0.055 C 
ATOM     10  C   UNL     1      -1.492  -2.251  25.085  0.00  0.00    +0.074 C 
ATOM     11  C   UNL     1      -2.639  -1.854  26.040  0.00  0.00    +0.024 C 
ATOM     12  C   UNL     1      -4.054  -3.222  24.526  0.00  0.00    +0.019 C 
ATOM     13  C   UNL     1      -2.619  -0.903  23.400  0.00  0.00    +0.094 C 
ATOM     14  C   UNL     1      -2.936  -3.284  23.470  0.00  0.00    +0.085 C 
ENDROOT
BRANCH   9  16
ATOM      6  N   UNL     1      -5.267   0.873  25.446  0.00  0.00    -0.237 NA
ATOM      7  N   UNL     1      -4.749   3.226  25.423  0.00  0.00    -0.237 NA
ATOM     16  C   UNL     1      -4.223   0.673  24.615  0.00  0.00    +0.050 A 
ATOM     17  C   UNL     1      -3.407   1.685  24.151  0.00  0.00    +0.047 A 
ATOM     19  C   UNL     1      -3.721   2.954  24.594  0.00  0.00    +0.048 A 
ATOM     24  C   UNL     1      -5.470   2.155  25.804  0.00  0.00    +0.127 A 
ATOM     27  C   UNL     1      -6.614   2.416  26.725  0.00  0.00    +0.088 C 
BRANCH  19  18
ATOM     18  C   UNL     1      -2.886   4.130  24.138  0.00  0.00    +0.038 C 
ATOM     20  C   UNL     1      -2.424   5.015  25.309  0.00  0.00    +0.010 C 
ATOM     21  C   UNL     1      -1.602   3.745  23.375  0.00  0.00    +0.010 C 
ATOM     22  C   UNL     1      -1.035   5.490  24.911  0.00  0.00    +0.001 C 
ATOM     23  C   UNL     1      -0.445   4.277  24.214  0.00  0.00    +0.001 C 
ENDBRANCH  19  18
ENDBRANCH   9  16
BRANCH  10  15
ATOM     15  C   UNL     1      -0.235  -1.412  25.324  0.00  0.00    +0.123 C 
BRANCH  15   5
ATOM      1  O   UNL     1       0.276   1.274  24.449  0.00  0.00    -0.276 OA
ATOM      5  N   UNL     1      -0.551  -0.210  26.033  0.00  0.00    -0.314 N 
ATOM     25  C   UNL     1      -0.266   1.060  25.530  0.00  0.00    +0.213 C 
ATOM     31  H   UNL     1      -0.996  -0.291  26.942  0.00  0.00    +0.149 HD
BRANCH  25  26
ATOM     26  C   UNL     1      -0.677   2.162  26.492  0.00  0.00    +0.096 C 
BRANCH  26  28
ATOM     28  C   UNL     1       0.496   2.805  27.228  0.00  0.00    +0.020 C 
BRANCH  28  29
ATOM     29  C   UNL     1       0.590   2.350  28.686  0.00  0.00    +0.121 C 
BRANCH  29  30
ATOM      3  O   UNL     1       2.916   3.069  28.734  0.00  0.00    -0.251 OA
ATOM     30  C   UNL     1       2.012   2.386  29.195  0.00  0.00    +0.305 C 
BRANCH  30   2
ATOM      2  O   UNL     1       2.181   1.551  30.256  0.00  0.00    -0.481 OA
ATOM     32  H   UNL     1       2.201   2.040  31.106  0.00  0.00    +0.295 HD
ENDBRANCH  30   2
ENDBRANCH  29  30
ENDBRANCH  28  29
ENDBRANCH  26  28
ENDBRANCH  25  26
ENDBRANCH  15   5
ENDBRANCH  10  15
TORSDOF 9
ENDMDL
MODEL 4
REMARK VINA RESULT:      -2.5      2.840      6.395
REMARK  Name = 40777017
REMARK  10 active torsions:
REMARK  status: ('A' for Active; 'I' for Inactive)
REMARK    1  A    between atoms: O_2  and  C_30
REMARK    2  A    between atoms: N_5  and  C_15
REMARK    3  A    between atoms: C_9  and  C_16
REMARK    4  A    between atoms: C_10  and  C_15
REMARK    5  A    between atoms: C_18  and  C_19
REMARK    6  A    between atoms: C_24  and  C_27
REMARK    7  A    between atoms: C_25  and  C_26
REMARK    8  A    between atoms: C_26  and  C_28
REMARK    9  A    between atoms: C_28  and  C_29
REMARK   10  A    between atoms: C_29  and  C_30
REMARK                            x       y       z     vdW  Elec       q    Type
REMARK                         _______ _______ _______ _____ _____    ______ ____
ROOT
ATOM      4  N   UNL     1      -3.270  -1.712  26.177  0.00  0.00    -0.297 NA
ATOM      8  C   UNL     1      -2.424  -1.944  23.725  0.00  0.00    +0.002 C 
ATOM      9  C   UNL     1      -1.245  -1.599  24.676  0.00  0.00    +0.055 C 
ATOM     10  C   UNL     1      -4.121  -0.901  25.266  0.00  0.00    +0.074 C 
ATOM     11  C   UNL     1      -3.513  -0.859  23.848  0.00  0.00    +0.024 C 
ATOM     12  C   UNL     1      -3.038  -3.265  24.237  0.00  0.00    +0.019 C 
ATOM     13  C   UNL     1      -1.854  -1.279  26.071  0.00  0.00    +0.094 C 
ATOM     14  C   UNL     1      -3.355  -3.126  25.737  0.00  0.00    +0.085 C 
ENDROOT
BRANCH   9  16
ATOM      6  N   UNL     1      -0.644   0.744  24.309  0.00  0.00    -0.237 NA
ATOM      7  N   UNL     1       1.505   1.395  23.435  0.00  0.00    -0.237 NA
ATOM     16  C   UNL     1      -0.246  -0.543  24.227  0.00  0.00    +0.050 A 
ATOM     17  C   UNL     1       0.996  -0.934  23.766  0.00  0.00    +0.047 A 
ATOM     19  C   UNL     1       1.837   0.089  23.380  0.00  0.00    +0.048 A 
ATOM     24  C   UNL     1       0.268   1.648  23.901  0.00  0.00    +0.127 A 
ATOM     27  C   UNL     1      -0.135   3.082  23.979  0.00  0.00    +0.088 C 
BRANCH  19  18
ATOM     18  C   UNL     1       3.218  -0.239  22.857  0.00  0.00    +0.038 C 
ATOM     20  C   UNL     1       4.169   0.970  22.903  0.00  0.00    +0.010 C 
ATOM     21  C   UNL     1       3.941  -1.366  23.625  0.00  0.00    +0.010 C 
ATOM     22  C   UNL     1       5.531   0.380  23.236  0.00  0.00    +0.001 C 
ATOM     23  C   UNL     1       5.192  -0.729  24.218  0.00  0.00    +0.001 C 
ENDBRANCH  19  18
ENDBRANCH   9  16
BRANCH  10  15
ATOM     15  C   UNL     1      -4.385   0.503  25.815  0.00  0.00    +0.123 C 
BRANCH  15   5
ATOM      1  O   UNL     1      -6.167   2.392  24.590  0.00  0.00    -0.276 OA
ATOM      5  N   UNL     1      -4.037   1.501  24.851  0.00  0.00    -0.314 N 
ATOM     25  C   UNL     1      -4.972   2.382  24.305  0.00  0.00    +0.213 C 
ATOM     31  H   UNL     1      -3.069   1.561  24.550  0.00  0.00    +0.149 HD
BRANCH  25  26
ATOM     26  C   UNL     1      -4.348   3.319  23.286  0.00  0.00    +0.096 C 
BRANCH  26  28
ATOM     28  C   UNL     1      -3.803   4.612  23.892  0.00  0.00    +0.020 C 
BRANCH  28  29
ATOM     29  C   UNL     1      -3.715   4.549  25.418  0.00  0.00    +0.121 C 
BRANCH  29  30
ATOM      3  O   UNL     1      -1.887   3.459  26.602  0.00  0.00    -0.251 OA
ATOM     30  C   UNL     1      -2.291   4.370  25.892  0.00  0.00    +0.305 C 
BRANCH  30   2
ATOM      2  O   UNL     1      -1.485   5.361  25.426  0.00  0.00    -0.481 OA
ATOM     32  H   UNL     1      -0.843   5.029  24.764  0.00  0.00    +0.295 HD
ENDBRANCH  30   2
ENDBRANCH  29  30
ENDBRANCH  28  29
ENDBRANCH  26  28
ENDBRANCH  25  26
ENDBRANCH  15   5
ENDBRANCH  10  15
TORSDOF 9
ENDMDL
MODEL 5
REMARK VINA RESULT:      -1.8      2.577      6.822
REMARK  Name = 40777017
REMARK  10 active torsions:
REMARK  status: ('A' for Active; 'I' for Inactive)
REMARK    1  A    between atoms: O_2  and  C_30
REMARK    2  A    between atoms: N_5  and  C_15
REMARK    3  A    between atoms: C_9  and  C_16
REMARK    4  A    between atoms: C_10  and  C_15
REMARK    5  A    between atoms: C_18  and  C_19
REMARK    6  A    between atoms: C_24  and  C_27
REMARK    7  A    between atoms: C_25  and  C_26
REMARK    8  A    between atoms: C_26  and  C_28
REMARK    9  A    between atoms: C_28  and  C_29
REMARK   10  A    between atoms: C_29  and  C_30
REMARK                            x       y       z     vdW  Elec       q    Type
REMARK                         _______ _______ _______ _____ _____    ______ ____
ROOT
ATOM      4  N   UNL     1      -3.283   4.168  24.159  0.00  0.00    -0.297 NA
ATOM      8  C   UNL     1      -1.039   4.022  25.472  0.00  0.00    +0.002 C 
ATOM      9  C   UNL     1      -0.953   3.200  24.157  0.00  0.00    +0.055 C 
ATOM     10  C   UNL     1      -3.546   3.804  25.577  0.00  0.00    +0.074 C 
ATOM     11  C   UNL     1      -2.224   3.510  26.317  0.00  0.00    +0.024 C 
ATOM     12  C   UNL     1      -1.363   5.476  25.069  0.00  0.00    +0.019 C 
ATOM     13  C   UNL     1      -2.380   3.168  23.536  0.00  0.00    +0.094 C 
ATOM     14  C   UNL     1      -2.597   5.482  24.148  0.00  0.00    +0.085 C 
ENDROOT
BRANCH   9  16
ATOM      6  N   UNL     1      -0.928   0.901  24.991  0.00  0.00    -0.237 NA
ATOM      7  N   UNL     1       0.777  -0.678  24.354  0.00  0.00    -0.237 NA
ATOM     16  C   UNL     1      -0.318   1.818  24.213  0.00  0.00    +0.050 A 
ATOM     17  C   UNL     1       0.828   1.566  23.485  0.00  0.00    +0.047 A 
ATOM     19  C   UNL     1       1.335   0.288  23.596  0.00  0.00    +0.048 A 
ATOM     24  C   UNL     1      -0.335  -0.309  25.016  0.00  0.00    +0.127 A 
ATOM     27  C   UNL     1      -0.983  -1.352  25.863  0.00  0.00    +0.088 C 
BRANCH  19  18
ATOM     18  C   UNL     1       2.591  -0.083  22.837  0.00  0.00    +0.038 C 
ATOM     20  C   UNL     1       3.581   1.089  22.727  0.00  0.00    +0.010 C 
ATOM     21  C   UNL     1       3.390  -1.248  23.456  0.00  0.00    +0.010 C 
ATOM     22  C   UNL     1       4.956   0.443  22.813  0.00  0.00    +0.001 C 
ATOM     23  C   UNL     1       4.750  -0.668  23.828  0.00  0.00    +0.001 C 
ENDBRANCH  19  18
ENDBRANCH   9  16
BRANCH  10  15
ATOM     15  C   UNL     1      -4.541   2.648  25.706  0.00  0.00    +0.123 C 
BRANCH  15   5
ATOM      1  O   UNL     1      -4.271  -0.183  26.098  0.00  0.00    -0.276 OA
ATOM      5  N   UNL     1      -4.315   1.665  24.692  0.00  0.00    -0.314 N 
ATOM     25  C   UNL     1      -4.196   0.304  24.972  0.00  0.00    +0.213 C 
ATOM     31  H   UNL     1      -4.232   1.979  23.729  0.00  0.00    +0.149 HD
BRANCH  25  26
ATOM     26  C   UNL     1      -3.931  -0.517  23.722  0.00  0.00    +0.096 C 
BRANCH  26  28
ATOM     28  C   UNL     1      -4.924  -1.660  23.515  0.00  0.00    +0.020 C 
BRANCH  28  29
ATOM     29  C   UNL     1      -4.233  -3.019  23.399  0.00  0.00    +0.121 C 
BRANCH  29  30
ATOM      3  O   UNL     1      -1.877  -3.232  23.978  0.00  0.00    -0.251 OA
ATOM     30  C   UNL     1      -3.045  -3.127  24.327  0.00  0.00    +0.305 C 
BRANCH  30   2
ATOM      2  O   UNL     1      -3.429  -3.091  25.631  0.00  0.00    -0.481 OA
ATOM     32  H   UNL     1      -2.695  -3.333  26.235  0.00  0.00    +0.295 HD
ENDBRANCH  30   2
ENDBRANCH  29  30
ENDBRANCH  28  29
ENDBRANCH  26  28
ENDBRANCH  25  26
ENDBRANCH  15   5
ENDBRANCH  10  15
TORSDOF 9
ENDMDL
MODEL 6
REMARK VINA RESULT:      -1.1      2.709      5.762
REMARK  Name = 40777017
REMARK  10 active torsions:
REMARK  status: ('A' for Active; 'I' for Inactive)
REMARK    1  A    between atoms: O_2  and  C_30
REMARK    2  A    between atoms: N_5  and  C_15
REMARK    3  A    between atoms: C_9  and  C_16
REMARK    4  A    between atoms: C_10  and  C_15
REMARK    5  A    between atoms: C_18  and  C_19
REMARK    6  A    between atoms: C_24  and  C_27
REMARK    7  A    between atoms: C_25  and  C_26
REMARK    8  A    between atoms: C_26  and  C_28
REMARK    9  A    between atoms: C_28  and  C_29
REMARK   10  A    between atoms: C_29  and  C_30
REMARK                            x       y       z     vdW  Elec       q    Type
REMARK                         _______ _______ _______ _____ _____    ______ ____
ROOT
ATOM      4  N   UNL     1      -4.536   3.036  26.034  0.00  0.00    -0.297 NA
ATOM      8  C   UNL     1      -4.517   1.658  23.824  0.00  0.00    +0.002 C 
ATOM      9  C   UNL     1      -3.826   0.864  24.965  0.00  0.00    +0.055 C 
ATOM     10  C   UNL     1      -4.026   3.874  24.917  0.00  0.00    +0.074 C 
ATOM     11  C   UNL     1      -3.811   3.019  23.649  0.00  0.00    +0.024 C 
ATOM     12  C   UNL     1      -5.958   1.951  24.294  0.00  0.00    +0.019 C 
ATOM     13  C   UNL     1      -3.696   1.822  26.184  0.00  0.00    +0.094 C 
ATOM     14  C   UNL     1      -5.912   2.606  25.686  0.00  0.00    +0.085 C 
ENDROOT
BRANCH   9  16
ATOM      6  N   UNL     1      -2.366  -1.089  25.170  0.00  0.00    -0.237 NA
ATOM      7  N   UNL     1      -0.196  -1.184  24.128  0.00  0.00    -0.237 NA
ATOM     16  C   UNL     1      -2.520   0.148  24.653  0.00  0.00    +0.050 A 
ATOM     17  C   UNL     1      -1.568   0.777  23.875  0.00  0.00    +0.047 A 
ATOM     19  C   UNL     1      -0.415   0.056  23.644  0.00  0.00    +0.048 A 
ATOM     24  C   UNL     1      -1.198  -1.688  24.872  0.00  0.00    +0.127 A 
ATOM     27  C   UNL     1      -0.992  -3.059  25.424  0.00  0.00    +0.088 C 
BRANCH  19  18
ATOM     18  C   UNL     1       0.687   0.663  22.804  0.00  0.00    +0.038 C 
ATOM     20  C   UNL     1       1.810   1.276  23.659  0.00  0.00    +0.010 C 
ATOM     21  C   UNL     1       1.385  -0.329  21.851  0.00  0.00    +0.010 C 
ATOM     22  C   UNL     1       3.086   1.007  22.876  0.00  0.00    +0.001 C 
ATOM     23  C   UNL     1       2.843  -0.375  22.293  0.00  0.00    +0.001 C 
ENDBRANCH  19  18
ENDBRANCH   9  16
BRANCH  10  15
ATOM     15  C   UNL     1      -2.764   4.650  25.301  0.00  0.00    +0.123 C 
BRANCH  15   5
ATOM      1  O   UNL     1      -0.182   4.029  24.211  0.00  0.00    -0.276 OA
ATOM      5  N   UNL     1      -1.784   3.779  25.873  0.00  0.00    -0.314 N 
ATOM     25  C   UNL     1      -0.549   3.533  25.273  0.00  0.00    +0.213 C 
ATOM     31  H   UNL     1      -2.006   3.317  26.751  0.00  0.00    +0.149 HD
BRANCH  25  26
ATOM     26  C   UNL     1       0.290   2.550  26.071  0.00  0.00    +0.096 C 
BRANCH  26  28
ATOM     28  C   UNL     1       0.181   2.735  27.583  0.00  0.00    +0.020 C 
BRANCH  28  29
ATOM     29  C   UNL     1       1.545   2.697  28.275  0.00  0.00    +0.121 C 
BRANCH  29  30
ATOM      3  O   UNL     1       0.666   2.894  30.537  0.00  0.00    -0.251 OA
ATOM     30  C   UNL     1       1.422   2.353  29.742  0.00  0.00    +0.305 C 
BRANCH  30   2
ATOM      2  O   UNL     1       2.267   1.346  30.088  0.00  0.00    -0.481 OA
ATOM     32  H   UNL     1       3.068   1.682  30.543  0.00  0.00    +0.295 HD
ENDBRANCH  30   2
ENDBRANCH  29  30
ENDBRANCH  28  29
ENDBRANCH  26  28
ENDBRANCH  25  26
ENDBRANCH  15   5
ENDBRANCH  10  15
TORSDOF 9
ENDMDL
MODEL 7
REMARK VINA RESULT:      -0.5      2.669      7.612
REMARK  Name = 40777017
REMARK  10 active torsions:
REMARK  status: ('A' for Active; 'I' for Inactive)
REMARK    1  A    between atoms: O_2  and  C_30
REMARK    2  A    between atoms: N_5  and  C_15
REMARK    3  A    between atoms: C_9  and  C_16
REMARK    4  A    between atoms: C_10  and  C_15
REMARK    5  A    between atoms: C_18  and  C_19
REMARK    6  A    between atoms: C_24  and  C_27
REMARK    7  A    between atoms: C_25  and  C_26
REMARK    8  A    between atoms: C_26  and  C_28
REMARK    9  A    between atoms: C_28  and  C_29
REMARK   10  A    between atoms: C_29  and  C_30
REMARK                            x       y       z     vdW  Elec       q    Type
REMARK                         _______ _______ _______ _____ _____    ______ ____
ROOT
ATOM      4  N   UNL     1      -1.561   4.913  23.893  0.00  0.00    -0.297 NA
ATOM      8  C   UNL     1      -1.013   3.327  25.885  0.00  0.00    +0.002 C 
ATOM      9  C   UNL     1      -0.098   3.010  24.671  0.00  0.00    +0.055 C 
ATOM     10  C   UNL     1      -2.812   4.303  24.417  0.00  0.00    +0.074 C 
ATOM     11  C   UNL     1      -2.490   3.207  25.455  0.00  0.00    +0.024 C 
ATOM     12  C   UNL     1      -0.767   4.805  26.256  0.00  0.00    +0.019 C 
ATOM     13  C   UNL     1      -0.616   3.850  23.468  0.00  0.00    +0.094 C 
ATOM     14  C   UNL     1      -0.932   5.676  24.998  0.00  0.00    +0.085 C 
ENDROOT
BRANCH   9  16
ATOM      6  N   UNL     1       1.047   1.301  23.347  0.00  0.00    -0.237 NA
ATOM      7  N   UNL     1       0.571  -1.048  23.596  0.00  0.00    -0.237 NA
ATOM     16  C   UNL     1       0.127   1.551  24.301  0.00  0.00    +0.050 A 
ATOM     17  C   UNL     1      -0.602   0.568  24.940  0.00  0.00    +0.047 A 
ATOM     19  C   UNL     1      -0.335  -0.726  24.542  0.00  0.00    +0.048 A 
ATOM     24  C   UNL     1       1.216  -0.001  23.047  0.00  0.00    +0.127 A 
ATOM     27  C   UNL     1       2.228  -0.318  21.998  0.00  0.00    +0.088 C 
BRANCH  19  18
ATOM     18  C   UNL     1      -1.085  -1.872  25.182  0.00  0.00    +0.038 C 
ATOM     20  C   UNL     1      -2.236  -1.393  26.084  0.00  0.00    +0.010 C 
ATOM     21  C   UNL     1      -1.723  -2.858  24.182  0.00  0.00    +0.010 C 
ATOM     22  C   UNL     1      -3.330  -2.436  25.904  0.00  0.00    +0.001 C 
ATOM     23  C   UNL     1      -3.225  -2.790  24.431  0.00  0.00    +0.001 C 
ENDBRANCH  19  18
ENDBRANCH   9  16
BRANCH  10  15
ATOM     15  C   UNL     1      -3.717   3.780  23.299  0.00  0.00    +0.123 C 
BRANCH  15   5
ATOM      1  O   UNL     1      -2.647   1.220  22.561  0.00  0.00    -0.276 OA
ATOM      5  N   UNL     1      -4.259   2.500  23.637  0.00  0.00    -0.314 N 
ATOM     25  C   UNL     1      -3.672   1.301  23.234  0.00  0.00    +0.213 C 
ATOM     31  H   UNL     1      -5.112   2.471  24.188  0.00  0.00    +0.149 HD
BRANCH  25  26
ATOM     26  C   UNL     1      -4.462   0.091  23.702  0.00  0.00    +0.096 C 
BRANCH  26  28
ATOM     28  C   UNL     1      -5.149   0.289  25.052  0.00  0.00    +0.020 C 
BRANCH  28  29
ATOM     29  C   UNL     1      -6.289   1.307  24.982  0.00  0.00    +0.121 C 
BRANCH  29  30
ATOM      3  O   UNL     1      -5.733   3.426  26.046  0.00  0.00    -0.251 OA
ATOM     30  C   UNL     1      -6.220   2.306  26.114  0.00  0.00    +0.305 C 
BRANCH  30   2
ATOM      2  O   UNL     1      -6.777   1.808  27.250  0.00  0.00    -0.481 OA
ATOM     32  H   UNL     1      -7.756   1.866  27.233  0.00  0.00    +0.295 HD
ENDBRANCH  30   2
ENDBRANCH  29  30
ENDBRANCH  28  29
ENDBRANCH  26  28
ENDBRANCH  25  26
ENDBRANCH  15   5
ENDBRANCH  10  15
TORSDOF 9
ENDMDL
MODEL 8
REMARK VINA RESULT:       0.0      2.631      7.346
REMARK  Name = 40777017
REMARK  10 active torsions:
REMARK  status: ('A' for Active; 'I' for Inactive)
REMARK    1  A    between atoms: O_2  and  C_30
REMARK    2  A    between atoms: N_5  and  C_15
REMARK    3  A    between atoms: C_9  and  C_16
REMARK    4  A    between atoms: C_10  and  C_15
REMARK    5  A    between atoms: C_18  and  C_19
REMARK    6  A    between atoms: C_24  and  C_27
REMARK    7  A    between atoms: C_25  and  C_26
REMARK    8  A    between atoms: C_26  and  C_28
REMARK    9  A    between atoms: C_28  and  C_29
REMARK   10  A    between atoms: C_29  and  C_30
REMARK                            x       y       z     vdW  Elec       q    Type
REMARK                         _______ _______ _______ _____ _____    ______ ____
ROOT
ATOM      4  N   UNL     1      -2.036   4.708  24.003  0.00  0.00    -0.297 NA
ATOM      8  C   UNL     1      -1.410   3.226  26.051  0.00  0.00    +0.002 C 
ATOM      9  C   UNL     1      -0.389   3.020  24.899  0.00  0.00    +0.055 C 
ATOM     10  C   UNL     1      -3.227   3.945  24.462  0.00  0.00    +0.074 C 
ATOM     11  C   UNL     1      -2.830   2.910  25.536  0.00  0.00    +0.024 C 
ATOM     12  C   UNL     1      -1.381   4.727  26.410  0.00  0.00    +0.019 C 
ATOM     13  C   UNL     1      -0.937   3.774  23.653  0.00  0.00    +0.094 C 
ATOM     14  C   UNL     1      -1.581   5.557  25.130  0.00  0.00    +0.085 C 
ENDROOT
BRANCH   9  16
ATOM      6  N   UNL     1      -0.775   0.606  24.967  0.00  0.00    -0.237 NA
ATOM      7  N   UNL     1       0.774  -0.969  24.005  0.00  0.00    -0.237 NA
ATOM     16  C   UNL     1       0.046   1.600  24.569  0.00  0.00    +0.050 A 
ATOM     17  C   UNL     1       1.232   1.391  23.893  0.00  0.00    +0.047 A 
ATOM     19  C   UNL     1       1.547   0.073  23.636  0.00  0.00    +0.048 A 
ATOM     24  C   UNL     1      -0.355  -0.636  24.657  0.00  0.00    +0.127 A 
ATOM     27  C   UNL     1      -1.238  -1.763  25.078  0.00  0.00    +0.088 C 
BRANCH  19  18
ATOM     18  C   UNL     1       2.829  -0.257  22.903  0.00  0.00    +0.038 C 
ATOM     20  C   UNL     1       3.758   0.961  22.762  0.00  0.00    +0.010 C 
ATOM     21  C   UNL     1       3.682  -1.356  23.570  0.00  0.00    +0.010 C 
ATOM     22  C   UNL     1       5.164   0.393  22.883  0.00  0.00    +0.001 C 
ATOM     23  C   UNL     1       5.005  -0.692  23.934  0.00  0.00    +0.001 C 
ENDBRANCH  19  18
ENDBRANCH   9  16
BRANCH  10  15
ATOM     15  C   UNL     1      -3.986   3.298  23.301  0.00  0.00    +0.123 C 
BRANCH  15   5
ATOM      1  O   UNL     1      -2.358   1.135  22.345  0.00  0.00    -0.276 OA
ATOM      5  N   UNL     1      -4.195   1.904  23.541  0.00  0.00    -0.314 N 
ATOM     25  C   UNL     1      -3.350   0.915  23.036  0.00  0.00    +0.213 C 
ATOM     31  H   UNL     1      -4.998   1.628  24.099  0.00  0.00    +0.149 HD
BRANCH  25  26
ATOM     26  C   UNL     1      -3.812  -0.481  23.414  0.00  0.00    +0.096 C 
BRANCH  26  28
ATOM     28  C   UNL     1      -5.044  -0.498  24.317  0.00  0.00    +0.020 C 
BRANCH  28  29
ATOM     29  C   UNL     1      -4.919   0.473  25.492  0.00  0.00    +0.121 C 
BRANCH  29  30
ATOM      3  O   UNL     1      -6.833   1.700  24.620  0.00  0.00    -0.251 OA
ATOM     30  C   UNL     1      -6.078   1.442  25.547  0.00  0.00    +0.305 C 
BRANCH  30   2
ATOM      2  O   UNL     1      -6.192   2.011  26.777  0.00  0.00    -0.481 OA
ATOM     32  H   UNL     1      -5.946   1.387  27.492  0.00  0.00    +0.295 HD
ENDBRANCH  30   2
ENDBRANCH  29  30
ENDBRANCH  28  29
ENDBRANCH  26  28
ENDBRANCH  25  26
ENDBRANCH  15   5
ENDBRANCH  10  15
TORSDOF 9
ENDMDL
