MODEL 1
REMARK VINA RESULT:      -5.1      0.000      0.000
REMARK  Name = 51137061
REMARK  6 active torsions:
REMARK  status: ('A' for Active; 'I' for Inactive)
REMARK    1  A    between atoms: N_2  and  C_9
REMARK    2  A    between atoms: N_4  and  C_18
REMARK    3  A    between atoms: N_4  and  C_23
REMARK    4  A    between atoms: N_4  and  C_24
REMARK    5  A    between atoms: C_5  and  C_10
REMARK    6  A    between atoms: C_9  and  C_11
REMARK                            x       y       z     vdW  Elec       q    Type
REMARK                         _______ _______ _______ _____ _____    ______ ____
ROOT
ATOM      2  N   UNL     1      -3.806 -10.703  11.782  0.00  0.00    -0.297 NA
ATOM      5  C   UNL     1      -5.526 -10.343  10.229  0.00  0.00    +0.090 C 
ATOM      6  C   UNL     1      -4.170 -10.354   9.502  0.00  0.00    +0.029 C 
ATOM      7  C   UNL     1      -5.170 -10.174  11.713  0.00  0.00    +0.097 C 
ATOM      8  C   UNL     1      -3.132 -10.164  10.601  0.00  0.00    +0.085 C 
ENDROOT
BRANCH   5  10
ATOM      1  O   UNL     1      -7.788  -9.437  10.166  0.00  0.00    -0.439 OA
ATOM      3  N   UNL     1      -6.274  -8.277   8.941  0.00  0.00    -0.213 NA
ATOM     10  C   UNL     1      -6.503  -9.301   9.735  0.00  0.00    +0.201 A 
ATOM     12  C   UNL     1      -8.436  -8.387   9.581  0.00  0.00    +0.155 A 
ATOM     13  C   UNL     1      -7.506  -7.680   8.832  0.00  0.00    +0.110 A 
ATOM     19  C   UNL     1      -9.780  -8.055   9.693  0.00  0.00    +0.048 A 
ATOM     20  C   UNL     1      -7.927  -6.544   8.127  0.00  0.00    +0.031 A 
ATOM     21  C   UNL     1     -10.184  -6.918   8.982  0.00  0.00    +0.004 A 
ATOM     22  C   UNL     1      -9.278  -6.177   8.214  0.00  0.00    +0.002 A 
ENDBRANCH   5  10
BRANCH   2   9
ATOM      9  C   UNL     1      -3.132 -10.336  13.019  0.00  0.00    +0.119 C 
BRANCH   9  11
ATOM     11  C   UNL     1      -4.062 -10.393  14.202  0.00  0.00    -0.033 A 
ATOM     14  C   UNL     1      -5.443 -10.396  14.005  0.00  0.00    +0.007 A 
ATOM     15  C   UNL     1      -3.542 -10.443  15.495  0.00  0.00    +0.007 A 
ATOM     16  C   UNL     1      -6.303 -10.448  15.101  0.00  0.00    +0.023 A 
ATOM     17  C   UNL     1      -4.403 -10.496  16.591  0.00  0.00    +0.023 A 
ATOM     18  C   UNL     1      -5.784 -10.498  16.394  0.00  0.00    +0.029 A 
BRANCH  18   4
ATOM      4  N   UNL     1      -6.654 -10.552  17.502  0.00  0.00    -0.336 N 
ATOM     23  C   UNL     1      -8.072 -10.781  17.312  0.00  0.00    +0.129 C 
ATOM     24  C   UNL     1      -6.140 -10.386  18.848  0.00  0.00    +0.129 C 
ENDBRANCH  18   4
ENDBRANCH   9  11
ENDBRANCH   2   9
TORSDOF 4
ENDMDL
MODEL 2
REMARK VINA RESULT:      -1.7      3.579      5.698
REMARK  Name = 51137061
REMARK  6 active torsions:
REMARK  status: ('A' for Active; 'I' for Inactive)
REMARK    1  A    between atoms: N_2  and  C_9
REMARK    2  A    between atoms: N_4  and  C_18
REMARK    3  A    between atoms: N_4  and  C_23
REMARK    4  A    between atoms: N_4  and  C_24
REMARK    5  A    between atoms: C_5  and  C_10
REMARK    6  A    between atoms: C_9  and  C_11
REMARK                            x       y       z     vdW  Elec       q    Type
REMARK                         _______ _______ _______ _____ _____    ______ ____
ROOT
ATOM      2  N   UNL     1      -2.888 -10.239  10.637  0.00  0.00    -0.297 NA
ATOM      5  C   UNL     1      -4.980 -10.093   9.586  0.00  0.00    +0.090 C 
ATOM      6  C   UNL     1      -4.116  -8.886   9.182  0.00  0.00    +0.029 C 
ATOM      7  C   UNL     1      -4.272 -10.684  10.814  0.00  0.00    +0.097 C 
ATOM      8  C   UNL     1      -2.992  -8.844  10.210  0.00  0.00    +0.085 C 
ENDROOT
BRANCH   5  10
ATOM      1  O   UNL     1      -6.960  -8.753   9.109  0.00  0.00    -0.439 OA
ATOM      3  N   UNL     1      -7.263 -10.357  10.683  0.00  0.00    -0.213 NA
ATOM     10  C   UNL     1      -6.435  -9.775   9.842  0.00  0.00    +0.201 A 
ATOM     12  C   UNL     1      -8.255  -8.686   9.534  0.00  0.00    +0.155 A 
ATOM     13  C   UNL     1      -8.438  -9.668  10.497  0.00  0.00    +0.110 A 
ATOM     19  C   UNL     1      -9.241  -7.808   9.103  0.00  0.00    +0.048 A 
ATOM     20  C   UNL     1      -9.698  -9.805  11.095  0.00  0.00    +0.031 A 
ATOM     21  C   UNL     1     -10.494  -7.958   9.710  0.00  0.00    +0.004 A 
ATOM     22  C   UNL     1     -10.719  -8.936  10.687  0.00  0.00    +0.002 A 
ENDBRANCH   5  10
BRANCH   2   9
ATOM      9  C   UNL     1      -2.098 -10.389  11.850  0.00  0.00    +0.119 C 
BRANCH   9  11
ATOM     11  C   UNL     1      -0.951  -9.415  11.895  0.00  0.00    -0.033 A 
ATOM     14  C   UNL     1      -0.009  -9.397  10.865  0.00  0.00    +0.007 A 
ATOM     15  C   UNL     1      -0.830  -8.529  12.965  0.00  0.00    +0.007 A 
ATOM     16  C   UNL     1       1.054  -8.495  10.908  0.00  0.00    +0.023 A 
ATOM     17  C   UNL     1       0.233  -7.626  13.008  0.00  0.00    +0.023 A 
ATOM     18  C   UNL     1       1.175  -7.609  11.979  0.00  0.00    +0.029 A 
BRANCH  18   4
ATOM      4  N   UNL     1       2.249  -6.696  12.021  0.00  0.00    -0.336 N 
ATOM     23  C   UNL     1       3.617  -7.169  11.961  0.00  0.00    +0.129 C 
ATOM     24  C   UNL     1       1.997  -5.272  12.118  0.00  0.00    +0.129 C 
ENDBRANCH  18   4
ENDBRANCH   9  11
ENDBRANCH   2   9
TORSDOF 4
ENDMDL
MODEL 3
REMARK VINA RESULT:      -1.4     14.433     17.747
REMARK  Name = 51137061
REMARK  6 active torsions:
REMARK  status: ('A' for Active; 'I' for Inactive)
REMARK    1  A    between atoms: N_2  and  C_9
REMARK    2  A    between atoms: N_4  and  C_18
REMARK    3  A    between atoms: N_4  and  C_23
REMARK    4  A    between atoms: N_4  and  C_24
REMARK    5  A    between atoms: C_5  and  C_10
REMARK    6  A    between atoms: C_9  and  C_11
REMARK                            x       y       z     vdW  Elec       q    Type
REMARK                         _______ _______ _______ _____ _____    ______ ____
ROOT
ATOM      2  N   UNL     1       0.462   2.698  25.103  0.00  0.00    -0.297 NA
ATOM      5  C   UNL     1       0.128   0.380  24.962  0.00  0.00    +0.090 C 
ATOM      6  C   UNL     1       0.888   0.867  23.716  0.00  0.00    +0.029 C 
ATOM      7  C   UNL     1      -0.447   1.657  25.590  0.00  0.00    +0.097 C 
ATOM      8  C   UNL     1       0.680   2.376  23.692  0.00  0.00    +0.085 C 
ENDROOT
BRANCH   5  10
ATOM      1  O   UNL     1      -2.171  -0.202  24.398  0.00  0.00    -0.439 OA
ATOM      3  N   UNL     1      -0.798  -1.979  24.707  0.00  0.00    -0.213 NA
ATOM     10  C   UNL     1      -0.926  -0.669  24.693  0.00  0.00    +0.201 A 
ATOM     12  C   UNL     1      -2.904  -1.338  24.206  0.00  0.00    +0.155 A 
ATOM     13  C   UNL     1      -2.060  -2.423  24.396  0.00  0.00    +0.110 A 
ATOM     19  C   UNL     1      -4.250  -1.430  23.879  0.00  0.00    +0.048 A 
ATOM     20  C   UNL     1      -2.579  -3.718  24.254  0.00  0.00    +0.031 A 
ATOM     21  C   UNL     1      -4.753  -2.729  23.740  0.00  0.00    +0.004 A 
ATOM     22  C   UNL     1      -3.935  -3.851  23.924  0.00  0.00    +0.002 A 
ENDBRANCH   5  10
BRANCH   2   9
ATOM      9  C   UNL     1      -0.077   4.036  25.288  0.00  0.00    +0.119 C 
BRANCH   9  11
ATOM     11  C   UNL     1      -1.581   4.031  25.350  0.00  0.00    -0.033 A 
ATOM     14  C   UNL     1      -2.327   3.856  24.184  0.00  0.00    +0.007 A 
ATOM     15  C   UNL     1      -2.229   4.199  26.573  0.00  0.00    +0.007 A 
ATOM     16  C   UNL     1      -3.721   3.852  24.242  0.00  0.00    +0.023 A 
ATOM     17  C   UNL     1      -3.623   4.195  26.631  0.00  0.00    +0.023 A 
ATOM     18  C   UNL     1      -4.369   4.020  25.465  0.00  0.00    +0.029 A 
BRANCH  18   4
ATOM      4  N   UNL     1      -5.778   4.015  25.524  0.00  0.00    -0.336 N 
ATOM     23  C   UNL     1      -6.522   5.255  25.433  0.00  0.00    +0.129 C 
ATOM     24  C   UNL     1      -6.501   2.767  25.669  0.00  0.00    +0.129 C 
ENDBRANCH  18   4
ENDBRANCH   9  11
ENDBRANCH   2   9
TORSDOF 4
ENDMDL
