MODEL 1
REMARK VINA RESULT:      16.6      0.000      0.000
REMARK  Name = 7155625
REMARK  5 active torsions:
REMARK  status: ('A' for Active; 'I' for Inactive)
REMARK    1  A    between atoms: N_7  and  C_22
REMARK    2  A    between atoms: N_8  and  C_20
REMARK    3  A    between atoms: C_23  and  C_26
REMARK    4  A    between atoms: C_29  and  C_32
REMARK    5  A    between atoms: C_32  and  C_35
REMARK                            x       y       z     vdW  Elec       q    Type
REMARK                         _______ _______ _______ _____ _____    ______ ____
ROOT
ATOM      1  O   UNL     1       0.532   2.098  26.424  0.00  0.00    -0.266 OA
ATOM      2  O   UNL     1      -4.281   2.007  22.983  0.00  0.00    -0.252 OA
ATOM      5  N   UNL     1      -4.109   3.319  24.882  0.00  0.00    -0.284 N 
ATOM      6  N   UNL     1      -0.994   3.659  25.589  0.00  0.00    -0.310 N 
ATOM      7  N   UNL     1      -4.607   1.018  25.056  0.00  0.00    -0.269 N 
ATOM     10  C   UNL     1      -3.066   4.403  26.891  0.00  0.00    +0.027 C 
ATOM     11  C   UNL     1      -2.640   5.321  24.654  0.00  0.00    +0.054 C 
ATOM     12  C   UNL     1      -2.932   5.699  26.104  0.00  0.00    +0.018 C 
ATOM     13  C   UNL     1      -4.209   3.531  26.335  0.00  0.00    +0.114 C 
ATOM     14  C   UNL     1      -1.720   3.668  26.865  0.00  0.00    +0.130 C 
ATOM     15  C   UNL     1      -3.828   4.523  24.091  0.00  0.00    +0.119 C 
ATOM     16  C   UNL     1      -1.367   4.503  24.539  0.00  0.00    +0.027 A 
ATOM     17  C   UNL     1      -0.620   4.566  23.424  0.00  0.00    +0.024 A 
ATOM     18  C   UNL     1       0.154   2.842  25.518  0.00  0.00    +0.273 A 
ATOM     19  C   UNL     1      -4.324   2.093  24.213  0.00  0.00    +0.306 C 
ATOM     20  C   UNL     1       0.944   2.922  24.249  0.00  0.00    +0.099 A 
ATOM     21  C   UNL     1       0.557   3.757  23.279  0.00  0.00    +0.030 A 
ATOM     36  H   UNL     1      -5.052   1.212  25.947  0.00  0.00    +0.156 HD
ENDROOT
BRANCH   7  22
ATOM     22  C   UNL     1      -4.389  -0.356  24.797  0.00  0.00    +0.035 A 
ATOM     24  C   UNL     1      -4.957  -0.948  23.671  0.00  0.00    +0.024 A 
ATOM     25  C   UNL     1      -3.606  -1.109  25.668  0.00  0.00    +0.024 A 
ATOM     27  C   UNL     1      -4.740  -2.301  23.414  0.00  0.00    +0.013 A 
ATOM     28  C   UNL     1      -3.389  -2.463  25.411  0.00  0.00    +0.013 A 
ATOM     29  C   UNL     1      -3.956  -3.058  24.284  0.00  0.00    +0.017 A 
BRANCH  29  32
ATOM      4  O   UNL     1      -4.251  -5.358  24.724  0.00  0.00    -0.292 OA
ATOM     32  C   UNL     1      -3.731  -4.471  24.018  0.00  0.00    +0.160 C 
ATOM     35  C   UNL     1      -2.843  -4.902  22.856  0.00  0.00    +0.091 C 
ENDBRANCH  29  32
ENDBRANCH   7  22
BRANCH  20   8
ATOM      3  O   UNL     1       1.102   0.428  22.871  0.00  0.00    -0.270 OA
ATOM      8  N   UNL     1       2.051   2.135  24.134  0.00  0.00    -0.277 N 
ATOM     23  C   UNL     1       2.064   0.928  23.447  0.00  0.00    +0.248 C 
ATOM     37  H   UNL     1       2.938   2.581  24.355  0.00  0.00    +0.155 HD
BRANCH  23  26
ATOM      9  N   UNL     1       5.802  -1.091  23.344  0.00  0.00    -0.263 NA
ATOM     26  C   UNL     1       3.371   0.222  23.411  0.00  0.00    +0.040 A 
ATOM     30  C   UNL     1       4.499   0.926  23.061  0.00  0.00    +0.033 A 
ATOM     31  C   UNL     1       3.415  -1.115  23.728  0.00  0.00    +0.033 A 
ATOM     33  C   UNL     1       5.693   0.222  23.043  0.00  0.00    +0.111 A 
ATOM     34  C   UNL     1       4.657  -1.727  23.680  0.00  0.00    +0.111 A 
ENDBRANCH  23  26
ENDBRANCH  20   8
TORSDOF 4
ENDMDL
