MODEL 1
REMARK VINA RESULT:       3.0      0.000      0.000
REMARK  Name = 7050095
REMARK  13 active torsions:
REMARK  status: ('A' for Active; 'I' for Inactive)
REMARK    1  A    between atoms: O_4  and  C_14
REMARK    2  A    between atoms: O_5  and  C_15
REMARK    3  A    between atoms: O_9  and  C_33
REMARK    4  A    between atoms: O_9  and  C_34
REMARK    5  A    between atoms: N_10  and  C_16
REMARK    6  A    between atoms: N_11  and  C_20
REMARK    7  A    between atoms: N_12  and  C_28
REMARK    8  A    between atoms: C_18  and  C_21
REMARK    9  A    between atoms: C_20  and  C_22
REMARK   10  A    between atoms: C_20  and  C_27
REMARK   11  A    between atoms: C_22  and  C_23
REMARK   12  A    between atoms: C_23  and  C_25
REMARK   13  A    between atoms: C_23  and  C_26
REMARK                            x       y       z     vdW  Elec       q    Type
REMARK                         _______ _______ _______ _____ _____    ______ ____
ROOT
ATOM     14  C   UNL     1      -2.674  -2.405  24.671  0.00  0.00    +0.167 C 
ATOM     15  C   UNL     1      -4.144  -2.046  24.418  0.00  0.00    +0.149 C 
ATOM     16  C   UNL     1      -1.734  -1.633  23.726  0.00  0.00    +0.129 C 
ATOM     17  C   UNL     1      -4.398  -0.533  24.535  0.00  0.00    +0.074 C 
ATOM     18  C   UNL     1      -3.288   0.303  23.964  0.00  0.00    +0.015 C 
ATOM     19  C   UNL     1      -2.093  -0.179  23.590  0.00  0.00    +0.006 C 
ENDROOT
BRANCH  16  10
ATOM      7  O   UNL     1       0.518  -0.316  22.544  0.00  0.00    -0.252 OA
ATOM     10  N   UNL     1      -0.357  -1.736  24.146  0.00  0.00    -0.290 N 
ATOM     12  N   UNL     1       1.906  -1.346  24.134  0.00  0.00    -0.269 N 
ATOM     24  C   UNL     1       0.689  -1.055  23.511  0.00  0.00    +0.304 C 
ATOM     35  H   UNL     1      -0.126  -2.370  24.904  0.00  0.00    +0.151 HD
ATOM     39  H   UNL     1       1.874  -1.981  24.926  0.00  0.00    +0.156 HD
BRANCH  12  28
ATOM     28  C   UNL     1       3.191  -0.862  23.795  0.00  0.00    +0.035 A 
ATOM     29  C   UNL     1       3.326   0.352  23.123  0.00  0.00    +0.027 A 
ATOM     30  C   UNL     1       4.325  -1.600  24.135  0.00  0.00    +0.027 A 
ATOM     31  C   UNL     1       4.593   0.829  22.790  0.00  0.00    +0.048 A 
ATOM     32  C   UNL     1       5.593  -1.124  23.801  0.00  0.00    +0.048 A 
ATOM     33  C   UNL     1       5.727   0.090  23.129  0.00  0.00    +0.130 A 
BRANCH  33   9
ATOM      9  O   UNL     1       6.965   0.557  22.806  0.00  0.00    -0.406 OA
BRANCH   9  34
ATOM      1  F   UNL     1       9.213   0.379  22.707  0.00  0.00    -0.133 F 
ATOM      2  F   UNL     1       8.167  -0.678  24.308  0.00  0.00    -0.133 F 
ATOM      3  F   UNL     1       8.020  -1.386  22.220  0.00  0.00    -0.133 F 
ATOM     34  C   UNL     1       8.083  -0.297  23.017  0.00  0.00    +0.575 C 
ENDBRANCH   9  34
ENDBRANCH  33   9
ENDBRANCH  12  28
ENDBRANCH  16  10
BRANCH  18  21
ATOM      6  O   UNL     1      -3.283   2.279  22.709  0.00  0.00    -0.271 OA
ATOM     11  N   UNL     1      -4.032   2.346  24.916  0.00  0.00    -0.300 N 
ATOM     21  C   UNL     1      -3.528   1.738  23.781  0.00  0.00    +0.241 C 
ATOM     36  H   UNL     1      -4.259   1.777  25.727  0.00  0.00    +0.150 HD
BRANCH  11  20
ATOM     20  C   UNL     1      -4.343   3.751  24.980  0.00  0.00    +0.159 C 
BRANCH  20  27
ATOM      8  O   UNL     1      -6.315   4.916  25.795  0.00  0.00    -0.274 OA
ATOM     13  N   UNL     1      -6.046   2.702  26.339  0.00  0.00    -0.328 N 
ATOM     27  C   UNL     1      -5.653   3.882  25.746  0.00  0.00    +0.231 C 
ATOM     40  H   UNL     1      -5.499   1.849  26.272  0.00  0.00    +0.145 HD
ATOM     41  H   UNL     1      -6.908   2.648  26.870  0.00  0.00    +0.145 HD
ENDBRANCH  20  27
BRANCH  20  22
ATOM     22  C   UNL     1      -3.240   4.561  25.672  0.00  0.00    +0.034 C 
BRANCH  22  23
ATOM     23  C   UNL     1      -1.821   4.336  25.106  0.00  0.00    -0.015 C 
ATOM     25  C   UNL     1      -1.041   5.643  24.952  0.00  0.00    +0.007 C 
ATOM     26  C   UNL     1      -1.049   3.379  26.018  0.00  0.00    +0.007 C 
ENDBRANCH  22  23
ENDBRANCH  20  22
ENDBRANCH  11  20
ENDBRANCH  18  21
BRANCH  14   4
ATOM      4  O   UNL     1      -2.352  -2.096  26.028  0.00  0.00    -0.387 OA
ATOM     37  H   UNL     1      -2.885  -2.678  26.595  0.00  0.00    +0.210 HD
ENDBRANCH  14   4
BRANCH  15   5
ATOM      5  O   UNL     1      -4.550  -2.513  23.134  0.00  0.00    -0.389 OA
ATOM     38  H   UNL     1      -4.949  -1.764  22.661  0.00  0.00    +0.210 HD
ENDBRANCH  15   5
TORSDOF 11
ENDMDL
MODEL 2
REMARK VINA RESULT:       4.6      2.111      4.906
REMARK  Name = 7050095
REMARK  13 active torsions:
REMARK  status: ('A' for Active; 'I' for Inactive)
REMARK    1  A    between atoms: O_4  and  C_14
REMARK    2  A    between atoms: O_5  and  C_15
REMARK    3  A    between atoms: O_9  and  C_33
REMARK    4  A    between atoms: O_9  and  C_34
REMARK    5  A    between atoms: N_10  and  C_16
REMARK    6  A    between atoms: N_11  and  C_20
REMARK    7  A    between atoms: N_12  and  C_28
REMARK    8  A    between atoms: C_18  and  C_21
REMARK    9  A    between atoms: C_20  and  C_22
REMARK   10  A    between atoms: C_20  and  C_27
REMARK   11  A    between atoms: C_22  and  C_23
REMARK   12  A    between atoms: C_23  and  C_25
REMARK   13  A    between atoms: C_23  and  C_26
REMARK                            x       y       z     vdW  Elec       q    Type
REMARK                         _______ _______ _______ _____ _____    ______ ____
ROOT
ATOM     14  C   UNL     1      -3.756   4.351  24.258  0.00  0.00    +0.167 C 
ATOM     15  C   UNL     1      -5.169   4.109  24.802  0.00  0.00    +0.149 C 
ATOM     16  C   UNL     1      -2.701   3.561  25.056  0.00  0.00    +0.129 C 
ATOM     17  C   UNL     1      -5.530   2.614  24.828  0.00  0.00    +0.074 C 
ATOM     18  C   UNL     1      -4.385   1.730  25.233  0.00  0.00    +0.015 C 
ATOM     19  C   UNL     1      -3.113   2.144  25.347  0.00  0.00    +0.006 C 
ENDROOT
BRANCH  16  10
ATOM      7  O   UNL     1      -0.888   1.351  24.872  0.00  0.00    -0.252 OA
ATOM     10  N   UNL     1      -1.425   3.546  24.382  0.00  0.00    -0.290 N 
ATOM     12  N   UNL     1       0.568   2.700  23.618  0.00  0.00    -0.269 N 
ATOM     24  C   UNL     1      -0.596   2.418  24.339  0.00  0.00    +0.304 C 
ATOM     35  H   UNL     1      -1.087   4.407  23.963  0.00  0.00    +0.151 HD
ATOM     39  H   UNL     1       0.656   3.639  23.240  0.00  0.00    +0.156 HD
BRANCH  12  28
ATOM     28  C   UNL     1       1.653   1.832  23.348  0.00  0.00    +0.035 A 
ATOM     29  C   UNL     1       2.898   2.358  23.005  0.00  0.00    +0.027 A 
ATOM     30  C   UNL     1       1.476   0.451  23.426  0.00  0.00    +0.027 A 
ATOM     31  C   UNL     1       3.967   1.503  22.739  0.00  0.00    +0.048 A 
ATOM     32  C   UNL     1       2.545  -0.405  23.160  0.00  0.00    +0.048 A 
ATOM     33  C   UNL     1       3.790   0.121  22.817  0.00  0.00    +0.130 A 
BRANCH  33   9
ATOM      9  O   UNL     1       4.834  -0.714  22.559  0.00  0.00    -0.406 OA
BRANCH   9  34
ATOM      1  F   UNL     1       5.550  -0.043  24.593  0.00  0.00    -0.133 F 
ATOM      2  F   UNL     1       5.919  -2.115  24.005  0.00  0.00    -0.133 F 
ATOM      3  F   UNL     1       7.051  -0.468  23.063  0.00  0.00    -0.133 F 
ATOM     34  C   UNL     1       5.850  -0.847  23.547  0.00  0.00    +0.575 C 
ENDBRANCH   9  34
ENDBRANCH  33   9
ENDBRANCH  12  28
ENDBRANCH  16  10
BRANCH  18  21
ATOM      6  O   UNL     1      -5.727   0.010  26.081  0.00  0.00    -0.271 OA
ATOM     11  N   UNL     1      -3.647  -0.525  25.173  0.00  0.00    -0.300 N 
ATOM     21  C   UNL     1      -4.671   0.327  25.545  0.00  0.00    +0.241 C 
ATOM     36  H   UNL     1      -2.846  -0.152  24.672  0.00  0.00    +0.150 HD
BRANCH  11  20
ATOM     20  C   UNL     1      -3.697  -1.949  25.381  0.00  0.00    +0.159 C 
BRANCH  20  27
ATOM      8  O   UNL     1      -4.695  -1.926  23.165  0.00  0.00    -0.274 OA
ATOM     13  N   UNL     1      -3.987  -3.932  24.028  0.00  0.00    -0.328 N 
ATOM     27  C   UNL     1      -4.198  -2.571  24.084  0.00  0.00    +0.231 C 
ATOM     40  H   UNL     1      -3.554  -4.450  24.787  0.00  0.00    +0.145 HD
ATOM     41  H   UNL     1      -4.262  -4.468  23.212  0.00  0.00    +0.145 HD
ENDBRANCH  20  27
BRANCH  20  22
ATOM     22  C   UNL     1      -2.329  -2.532  25.756  0.00  0.00    +0.034 C 
BRANCH  22  23
ATOM     23  C   UNL     1      -1.121  -1.792  25.144  0.00  0.00    -0.015 C 
ATOM     25  C   UNL     1       0.211  -2.271  25.722  0.00  0.00    +0.007 C 
ATOM     26  C   UNL     1      -1.120  -1.976  23.624  0.00  0.00    +0.007 C 
ENDBRANCH  22  23
ENDBRANCH  20  22
ENDBRANCH  11  20
ENDBRANCH  18  21
BRANCH  14   4
ATOM      4  O   UNL     1      -3.717   3.953  22.886  0.00  0.00    -0.387 OA
ATOM     37  H   UNL     1      -3.681   2.982  22.864  0.00  0.00    +0.210 HD
ENDBRANCH  14   4
BRANCH  15   5
ATOM      5  O   UNL     1      -5.295   4.666  26.108  0.00  0.00    -0.389 OA
ATOM     38  H   UNL     1      -6.049   4.233  26.542  0.00  0.00    +0.210 HD
ENDBRANCH  15   5
TORSDOF 11
ENDMDL
MODEL 3
REMARK VINA RESULT:       6.7      1.163      2.461
REMARK  Name = 7050095
REMARK  13 active torsions:
REMARK  status: ('A' for Active; 'I' for Inactive)
REMARK    1  A    between atoms: O_4  and  C_14
REMARK    2  A    between atoms: O_5  and  C_15
REMARK    3  A    between atoms: O_9  and  C_33
REMARK    4  A    between atoms: O_9  and  C_34
REMARK    5  A    between atoms: N_10  and  C_16
REMARK    6  A    between atoms: N_11  and  C_20
REMARK    7  A    between atoms: N_12  and  C_28
REMARK    8  A    between atoms: C_18  and  C_21
REMARK    9  A    between atoms: C_20  and  C_22
REMARK   10  A    between atoms: C_20  and  C_27
REMARK   11  A    between atoms: C_22  and  C_23
REMARK   12  A    between atoms: C_23  and  C_25
REMARK   13  A    between atoms: C_23  and  C_26
REMARK                            x       y       z     vdW  Elec       q    Type
REMARK                         _______ _______ _______ _____ _____    ______ ____
ROOT
ATOM     14  C   UNL     1      -2.656  -2.128  24.700  0.00  0.00    +0.167 C 
ATOM     15  C   UNL     1      -4.095  -1.600  24.650  0.00  0.00    +0.149 C 
ATOM     16  C   UNL     1      -1.721  -1.307  23.792  0.00  0.00    +0.129 C 
ATOM     17  C   UNL     1      -4.177  -0.108  25.013  0.00  0.00    +0.074 C 
ATOM     18  C   UNL     1      -3.036   0.702  24.465  0.00  0.00    +0.015 C 
ATOM     19  C   UNL     1      -1.934   0.178  23.908  0.00  0.00    +0.006 C 
ENDROOT
BRANCH  16  10
ATOM      7  O   UNL     1       0.547   0.153  22.831  0.00  0.00    -0.252 OA
ATOM     10  N   UNL     1      -0.333  -1.601  24.054  0.00  0.00    -0.290 N 
ATOM     12  N   UNL     1       1.948  -1.353  23.963  0.00  0.00    -0.269 N 
ATOM     24  C   UNL     1       0.721  -0.832  23.544  0.00  0.00    +0.304 C 
ATOM     35  H   UNL     1      -0.104  -2.432  24.591  0.00  0.00    +0.151 HD
ATOM     39  H   UNL     1       1.917  -2.180  24.554  0.00  0.00    +0.156 HD
BRANCH  12  28
ATOM     28  C   UNL     1       3.244  -0.870  23.665  0.00  0.00    +0.035 A 
ATOM     29  C   UNL     1       4.366  -1.622  24.009  0.00  0.00    +0.027 A 
ATOM     30  C   UNL     1       3.399   0.359  23.024  0.00  0.00    +0.027 A 
ATOM     31  C   UNL     1       5.643  -1.146  23.714  0.00  0.00    +0.048 A 
ATOM     32  C   UNL     1       4.675   0.837  22.729  0.00  0.00    +0.048 A 
ATOM     33  C   UNL     1       5.798   0.084  23.074  0.00  0.00    +0.130 A 
BRANCH  33   9
ATOM      9  O   UNL     1       7.044   0.548  22.784  0.00  0.00    -0.406 OA
BRANCH   9  34
ATOM      1  F   UNL     1       8.147  -1.360  22.291  0.00  0.00    -0.133 F 
ATOM      2  F   UNL     1       9.322   0.380  22.898  0.00  0.00    -0.133 F 
ATOM      3  F   UNL     1       8.095  -0.712  24.377  0.00  0.00    -0.133 F 
ATOM     34  C   UNL     1       8.160  -0.277  23.101  0.00  0.00    +0.575 C 
ENDBRANCH   9  34
ENDBRANCH  33   9
ENDBRANCH  12  28
ENDBRANCH  16  10
BRANCH  18  21
ATOM      6  O   UNL     1      -3.537   2.799  23.552  0.00  0.00    -0.271 OA
ATOM     11  N   UNL     1      -2.741   2.683  25.740  0.00  0.00    -0.300 N 
ATOM     21  C   UNL     1      -3.137   2.164  24.521  0.00  0.00    +0.241 C 
ATOM     36  H   UNL     1      -2.493   2.048  26.494  0.00  0.00    +0.150 HD
BRANCH  11  20
ATOM     20  C   UNL     1      -2.749   4.093  26.031  0.00  0.00    +0.159 C 
BRANCH  20  27
ATOM      8  O   UNL     1      -0.635   4.086  24.831  0.00  0.00    -0.274 OA
ATOM     13  N   UNL     1      -1.799   6.059  24.993  0.00  0.00    -0.328 N 
ATOM     27  C   UNL     1      -1.605   4.717  25.242  0.00  0.00    +0.231 C 
ATOM     40  H   UNL     1      -2.617   6.564  25.321  0.00  0.00    +0.145 HD
ATOM     41  H   UNL     1      -1.117   6.594  24.464  0.00  0.00    +0.145 HD
ENDBRANCH  20  27
BRANCH  20  22
ATOM     22  C   UNL     1      -4.079   4.758  25.655  0.00  0.00    +0.034 C 
BRANCH  22  23
ATOM     23  C   UNL     1      -5.263   3.784  25.485  0.00  0.00    -0.015 C 
ATOM     25  C   UNL     1      -5.468   2.895  26.713  0.00  0.00    +0.007 C 
ATOM     26  C   UNL     1      -6.544   4.574  25.201  0.00  0.00    +0.007 C 
ENDBRANCH  22  23
ENDBRANCH  20  22
ENDBRANCH  11  20
ENDBRANCH  18  21
BRANCH  14   4
ATOM      4  O   UNL     1      -2.192  -2.066  26.050  0.00  0.00    -0.387 OA
ATOM     37  H   UNL     1      -1.225  -2.163  26.031  0.00  0.00    +0.210 HD
ENDBRANCH  14   4
BRANCH  15   5
ATOM      5  O   UNL     1      -4.654  -1.821  23.357  0.00  0.00    -0.389 OA
ATOM     38  H   UNL     1      -5.188  -1.041  23.130  0.00  0.00    +0.210 HD
ENDBRANCH  15   5
TORSDOF 11
ENDMDL
