MODEL 1
REMARK VINA RESULT:      -5.1      0.000      0.000
REMARK  Name = 51137066
REMARK  4 active torsions:
REMARK  status: ('A' for Active; 'I' for Inactive)
REMARK    1  A    between atoms: N_2  and  C_8
REMARK    2  A    between atoms: C_4  and  C_9
REMARK    3  A    between atoms: C_8  and  C_10
REMARK    4  A    between atoms: C_8  and  C_11
REMARK                            x       y       z     vdW  Elec       q    Type
REMARK                         _______ _______ _______ _____ _____    ______ ____
ROOT
ATOM      1  O   UNL     1      -2.548   0.453  24.705  0.00  0.00    -0.439 OA
ATOM      3  N   UNL     1      -0.873  -0.995  25.193  0.00  0.00    -0.213 NA
ATOM      9  C   UNL     1      -1.268   0.259  25.130  0.00  0.00    +0.201 A 
ATOM     12  C   UNL     1      -3.006  -0.813  24.477  0.00  0.00    +0.155 A 
ATOM     13  C   UNL     1      -1.978  -1.695  24.776  0.00  0.00    +0.110 A 
ATOM     14  C   UNL     1      -4.265  -1.189  24.027  0.00  0.00    +0.048 A 
ATOM     15  C   UNL     1      -2.199  -3.072  24.621  0.00  0.00    +0.031 A 
ATOM     16  C   UNL     1      -4.469  -2.565  23.877  0.00  0.00    +0.004 A 
ATOM     17  C   UNL     1      -3.459  -3.489  24.168  0.00  0.00    +0.002 A 
ENDROOT
BRANCH   9   4
ATOM      2  N   UNL     1      -0.630   3.848  25.497  0.00  0.00    -0.299 NA
ATOM      4  C   UNL     1      -0.487   1.507  25.467  0.00  0.00    +0.090 C 
ATOM      5  C   UNL     1      -1.380   2.666  25.929  0.00  0.00    +0.097 C 
ATOM      6  C   UNL     1       0.334   2.089  24.303  0.00  0.00    +0.029 C 
ATOM      7  C   UNL     1      -0.155   3.524  24.152  0.00  0.00    +0.085 C 
BRANCH   2   8
ATOM      8  C   UNL     1      -1.438   5.058  25.523  0.00  0.00    +0.050 C 
ATOM     10  C   UNL     1      -1.292   5.795  24.195  0.00  0.00    +0.024 C 
ATOM     11  C   UNL     1      -2.898   4.713  25.800  0.00  0.00    +0.024 C 
ENDBRANCH   2   8
ENDBRANCH   9   4
TORSDOF 2
ENDMDL
MODEL 2
REMARK VINA RESULT:      -4.9      1.687      2.714
REMARK  Name = 51137066
REMARK  4 active torsions:
REMARK  status: ('A' for Active; 'I' for Inactive)
REMARK    1  A    between atoms: N_2  and  C_8
REMARK    2  A    between atoms: C_4  and  C_9
REMARK    3  A    between atoms: C_8  and  C_10
REMARK    4  A    between atoms: C_8  and  C_11
REMARK                            x       y       z     vdW  Elec       q    Type
REMARK                         _______ _______ _______ _____ _____    ______ ____
ROOT
ATOM      1  O   UNL     1      -2.512   0.436  24.574  0.00  0.00    -0.439 OA
ATOM      3  N   UNL     1      -4.680  -0.006  24.081  0.00  0.00    -0.213 NA
ATOM      9  C   UNL     1      -3.765   0.908  24.321  0.00  0.00    +0.201 A 
ATOM     12  C   UNL     1      -2.655  -0.919  24.483  0.00  0.00    +0.155 A 
ATOM     13  C   UNL     1      -3.983  -1.185  24.181  0.00  0.00    +0.110 A 
ATOM     14  C   UNL     1      -1.674  -1.887  24.654  0.00  0.00    +0.048 A 
ATOM     15  C   UNL     1      -4.391  -2.519  24.034  0.00  0.00    +0.031 A 
ATOM     16  C   UNL     1      -2.096  -3.212  24.504  0.00  0.00    +0.004 A 
ATOM     17  C   UNL     1      -3.426  -3.524  24.200  0.00  0.00    +0.002 A 
ENDROOT
BRANCH   9   4
ATOM      2  N   UNL     1      -2.852   4.388  25.014  0.00  0.00    -0.299 NA
ATOM      4  C   UNL     1      -3.925   2.410  24.353  0.00  0.00    +0.090 C 
ATOM      5  C   UNL     1      -2.587   3.157  24.267  0.00  0.00    +0.097 C 
ATOM      6  C   UNL     1      -4.596   2.961  25.624  0.00  0.00    +0.029 C 
ATOM      7  C   UNL     1      -3.597   3.959  26.197  0.00  0.00    +0.085 C 
BRANCH   2   8
ATOM      8  C   UNL     1      -1.631   5.102  25.358  0.00  0.00    +0.050 C 
ATOM     10  C   UNL     1      -0.422   4.228  25.034  0.00  0.00    +0.024 C 
ATOM     11  C   UNL     1      -1.564   6.428  24.606  0.00  0.00    +0.024 C 
ENDBRANCH   2   8
ENDBRANCH   9   4
TORSDOF 2
ENDMDL
MODEL 3
REMARK VINA RESULT:      -4.7      2.561      4.913
REMARK  Name = 51137066
REMARK  4 active torsions:
REMARK  status: ('A' for Active; 'I' for Inactive)
REMARK    1  A    between atoms: N_2  and  C_8
REMARK    2  A    between atoms: C_4  and  C_9
REMARK    3  A    between atoms: C_8  and  C_10
REMARK    4  A    between atoms: C_8  and  C_11
REMARK                            x       y       z     vdW  Elec       q    Type
REMARK                         _______ _______ _______ _____ _____    ______ ____
ROOT
ATOM      1  O   UNL     1      -2.902   0.660  25.046  0.00  0.00    -0.439 OA
ATOM      3  N   UNL     1      -2.113   2.754  25.411  0.00  0.00    -0.213 NA
ATOM      9  C   UNL     1      -1.830   1.484  25.218  0.00  0.00    +0.201 A 
ATOM     12  C   UNL     1      -3.973   1.503  25.142  0.00  0.00    +0.155 A 
ATOM     13  C   UNL     1      -3.486   2.783  25.365  0.00  0.00    +0.110 A 
ATOM     14  C   UNL     1      -5.319   1.176  25.039  0.00  0.00    +0.048 A 
ATOM     15  C   UNL     1      -4.396   3.841  25.501  0.00  0.00    +0.031 A 
ATOM     16  C   UNL     1      -6.213   2.242  25.178  0.00  0.00    +0.004 A 
ATOM     17  C   UNL     1      -5.764   3.548  25.404  0.00  0.00    +0.002 A 
ENDROOT
BRANCH   9   4
ATOM      2  N   UNL     1       1.292   0.301  23.710  0.00  0.00    -0.299 NA
ATOM      4  C   UNL     1      -0.473   0.822  25.162  0.00  0.00    +0.090 C 
ATOM      5  C   UNL     1       0.449   1.432  24.099  0.00  0.00    +0.097 C 
ATOM      6  C   UNL     1      -0.501  -0.681  24.836  0.00  0.00    +0.029 C 
ATOM      7  C   UNL     1       0.375  -0.834  23.600  0.00  0.00    +0.085 C 
BRANCH   2   8
ATOM      8  C   UNL     1       2.018   0.548  22.473  0.00  0.00    +0.050 C 
ATOM     10  C   UNL     1       3.516   0.587  22.762  0.00  0.00    +0.024 C 
ATOM     11  C   UNL     1       1.687  -0.526  21.441  0.00  0.00    +0.024 C 
ENDBRANCH   2   8
ENDBRANCH   9   4
TORSDOF 2
ENDMDL
MODEL 4
REMARK VINA RESULT:      -4.7     14.707     16.678
REMARK  Name = 51137066
REMARK  4 active torsions:
REMARK  status: ('A' for Active; 'I' for Inactive)
REMARK    1  A    between atoms: N_2  and  C_8
REMARK    2  A    between atoms: C_4  and  C_9
REMARK    3  A    between atoms: C_8  and  C_10
REMARK    4  A    between atoms: C_8  and  C_11
REMARK                            x       y       z     vdW  Elec       q    Type
REMARK                         _______ _______ _______ _____ _____    ______ ____
ROOT
ATOM      1  O   UNL     1      -4.664 -10.611  13.432  0.00  0.00    -0.439 OA
ATOM      3  N   UNL     1      -6.427  -9.377  12.719  0.00  0.00    -0.213 NA
ATOM      9  C   UNL     1      -5.928 -10.153  13.656  0.00  0.00    +0.201 A 
ATOM     12  C   UNL     1      -4.334 -10.065  12.225  0.00  0.00    +0.155 A 
ATOM     13  C   UNL     1      -5.415  -9.311  11.792  0.00  0.00    +0.110 A 
ATOM     14  C   UNL     1      -3.143 -10.213  11.526  0.00  0.00    +0.048 A 
ATOM     15  C   UNL     1      -5.326  -8.640  10.564  0.00  0.00    +0.031 A 
ATOM     16  C   UNL     1      -3.070  -9.538  10.303  0.00  0.00    +0.004 A 
ATOM     17  C   UNL     1      -4.138  -8.767   9.829  0.00  0.00    +0.002 A 
ENDROOT
BRANCH   9   4
ATOM      2  N   UNL     1      -8.377 -10.168  16.381  0.00  0.00    -0.299 NA
ATOM      4  C   UNL     1      -6.574 -10.602  14.946  0.00  0.00    +0.090 C 
ATOM      5  C   UNL     1      -8.093 -10.388  14.962  0.00  0.00    +0.097 C 
ATOM      6  C   UNL     1      -6.066  -9.880  16.207  0.00  0.00    +0.029 C 
ATOM      7  C   UNL     1      -7.312  -9.279  16.846  0.00  0.00    +0.085 C 
BRANCH   2   8
ATOM      8  C   UNL     1      -9.702  -9.608  16.602  0.00  0.00    +0.050 C 
ATOM     10  C   UNL     1      -9.572  -8.245  17.277  0.00  0.00    +0.024 C 
ATOM     11  C   UNL     1     -10.454  -9.493  15.280  0.00  0.00    +0.024 C 
ENDBRANCH   2   8
ENDBRANCH   9   4
TORSDOF 2
ENDMDL
MODEL 5
REMARK VINA RESULT:      -4.3      1.574      6.494
REMARK  Name = 51137066
REMARK  4 active torsions:
REMARK  status: ('A' for Active; 'I' for Inactive)
REMARK    1  A    between atoms: N_2  and  C_8
REMARK    2  A    between atoms: C_4  and  C_9
REMARK    3  A    between atoms: C_8  and  C_10
REMARK    4  A    between atoms: C_8  and  C_11
REMARK                            x       y       z     vdW  Elec       q    Type
REMARK                         _______ _______ _______ _____ _____    ______ ____
ROOT
ATOM      1  O   UNL     1      -2.053   1.708  24.874  0.00  0.00    -0.439 OA
ATOM      3  N   UNL     1      -3.767   3.014  25.575  0.00  0.00    -0.213 NA
ATOM      9  C   UNL     1      -3.336   1.797  25.324  0.00  0.00    +0.201 A 
ATOM     12  C   UNL     1      -1.633   3.007  24.839  0.00  0.00    +0.155 A 
ATOM     13  C   UNL     1      -2.686   3.803  25.269  0.00  0.00    +0.110 A 
ATOM     14  C   UNL     1      -0.388   3.485  24.451  0.00  0.00    +0.048 A 
ATOM     15  C   UNL     1      -2.506   5.192  25.324  0.00  0.00    +0.031 A 
ATOM     16  C   UNL     1      -0.226   4.872  24.511  0.00  0.00    +0.004 A 
ATOM     17  C   UNL     1      -1.261   5.712  24.939  0.00  0.00    +0.002 A 
ENDROOT
BRANCH   9   4
ATOM      2  N   UNL     1      -3.883  -1.819  25.099  0.00  0.00    -0.299 NA
ATOM      4  C   UNL     1      -4.078   0.489  25.469  0.00  0.00    +0.090 C 
ATOM      5  C   UNL     1      -3.145  -0.707  25.701  0.00  0.00    +0.097 C 
ATOM      6  C   UNL     1      -4.925   0.090  24.248  0.00  0.00    +0.029 C 
ATOM      7  C   UNL     1      -4.410  -1.286  23.843  0.00  0.00    +0.085 C 
BRANCH   2   8
ATOM      8  C   UNL     1      -3.049  -2.994  24.896  0.00  0.00    +0.050 C 
ATOM     10  C   UNL     1      -3.616  -3.828  23.751  0.00  0.00    +0.024 C 
ATOM     11  C   UNL     1      -1.610  -2.577  24.609  0.00  0.00    +0.024 C 
ENDBRANCH   2   8
ENDBRANCH   9   4
TORSDOF 2
ENDMDL
MODEL 6
REMARK VINA RESULT:      -4.2      1.317      6.084
REMARK  Name = 51137066
REMARK  4 active torsions:
REMARK  status: ('A' for Active; 'I' for Inactive)
REMARK    1  A    between atoms: N_2  and  C_8
REMARK    2  A    between atoms: C_4  and  C_9
REMARK    3  A    between atoms: C_8  and  C_10
REMARK    4  A    between atoms: C_8  and  C_11
REMARK                            x       y       z     vdW  Elec       q    Type
REMARK                         _______ _______ _______ _____ _____    ______ ____
ROOT
ATOM      1  O   UNL     1      -2.289   1.767  24.693  0.00  0.00    -0.439 OA
ATOM      3  N   UNL     1      -0.218   2.356  23.982  0.00  0.00    -0.213 NA
ATOM      9  C   UNL     1      -1.102   1.394  24.137  0.00  0.00    +0.201 A 
ATOM     12  C   UNL     1      -2.134   3.107  24.911  0.00  0.00    +0.155 A 
ATOM     13  C   UNL     1      -0.866   3.463  24.475  0.00  0.00    +0.110 A 
ATOM     14  C   UNL     1      -3.055   3.986  25.466  0.00  0.00    +0.048 A 
ATOM     15  C   UNL     1      -0.459   4.799  24.591  0.00  0.00    +0.031 A 
ATOM     16  C   UNL     1      -2.634   5.315  25.576  0.00  0.00    +0.004 A 
ATOM     17  C   UNL     1      -1.363   5.717  25.147  0.00  0.00    +0.002 A 
ENDROOT
BRANCH   9   4
ATOM      2  N   UNL     1      -1.929  -2.175  24.154  0.00  0.00    -0.299 NA
ATOM      4  C   UNL     1      -0.971  -0.068  23.779  0.00  0.00    +0.090 C 
ATOM      5  C   UNL     1      -2.314  -0.810  23.790  0.00  0.00    +0.097 C 
ATOM      6  C   UNL     1      -0.068  -0.884  24.719  0.00  0.00    +0.029 C 
ATOM      7  C   UNL     1      -0.950  -2.017  25.229  0.00  0.00    +0.085 C 
BRANCH   2   8
ATOM      8  C   UNL     1      -3.070  -2.984  24.558  0.00  0.00    +0.050 C 
ATOM     10  C   UNL     1      -3.332  -2.784  26.048  0.00  0.00    +0.024 C 
ATOM     11  C   UNL     1      -4.298  -2.616  23.732  0.00  0.00    +0.024 C 
ENDBRANCH   2   8
ENDBRANCH   9   4
TORSDOF 2
ENDMDL
MODEL 7
REMARK VINA RESULT:      -4.2     17.222     19.071
REMARK  Name = 51137066
REMARK  4 active torsions:
REMARK  status: ('A' for Active; 'I' for Inactive)
REMARK    1  A    between atoms: N_2  and  C_8
REMARK    2  A    between atoms: C_4  and  C_9
REMARK    3  A    between atoms: C_8  and  C_10
REMARK    4  A    between atoms: C_8  and  C_11
REMARK                            x       y       z     vdW  Elec       q    Type
REMARK                         _______ _______ _______ _____ _____    ______ ____
ROOT
ATOM      1  O   UNL     1      -6.768  -7.970   8.514  0.00  0.00    -0.439 OA
ATOM      3  N   UNL     1      -7.928  -9.500   9.719  0.00  0.00    -0.213 NA
ATOM      9  C   UNL     1      -6.778  -9.161   9.175  0.00  0.00    +0.201 A 
ATOM     12  C   UNL     1      -8.046  -7.511   8.657  0.00  0.00    +0.155 A 
ATOM     13  C   UNL     1      -8.752  -8.450   9.395  0.00  0.00    +0.110 A 
ATOM     14  C   UNL     1      -8.579  -6.326   8.169  0.00  0.00    +0.048 A 
ATOM     15  C   UNL     1     -10.104  -8.211   9.682  0.00  0.00    +0.031 A 
ATOM     16  C   UNL     1      -9.928  -6.102   8.463  0.00  0.00    +0.004 A 
ATOM     17  C   UNL     1     -10.677  -7.023   9.204  0.00  0.00    +0.002 A 
ENDROOT
BRANCH   9   4
ATOM      2  N   UNL     1      -3.692 -10.549  10.579  0.00  0.00    -0.299 NA
ATOM      4  C   UNL     1      -5.473  -9.922   9.189  0.00  0.00    +0.090 C 
ATOM      5  C   UNL     1      -5.156 -10.544  10.555  0.00  0.00    +0.097 C 
ATOM      6  C   UNL     1      -4.232  -9.078   8.848  0.00  0.00    +0.029 C 
ATOM      7  C   UNL     1      -3.301  -9.246  10.042  0.00  0.00    +0.085 C 
BRANCH   2   8
ATOM      8  C   UNL     1      -3.160 -10.781  11.914  0.00  0.00    +0.050 C 
ATOM     10  C   UNL     1      -1.834 -10.041  12.068  0.00  0.00    +0.024 C 
ATOM     11  C   UNL     1      -4.165 -10.331  12.969  0.00  0.00    +0.024 C 
ENDBRANCH   2   8
ENDBRANCH   9   4
TORSDOF 2
ENDMDL
MODEL 8
REMARK VINA RESULT:      -3.8      1.579      2.338
REMARK  Name = 51137066
REMARK  4 active torsions:
REMARK  status: ('A' for Active; 'I' for Inactive)
REMARK    1  A    between atoms: N_2  and  C_8
REMARK    2  A    between atoms: C_4  and  C_9
REMARK    3  A    between atoms: C_8  and  C_10
REMARK    4  A    between atoms: C_8  and  C_11
REMARK                            x       y       z     vdW  Elec       q    Type
REMARK                         _______ _______ _______ _____ _____    ______ ____
ROOT
ATOM      1  O   UNL     1      -4.410   0.046  24.019  0.00  0.00    -0.439 OA
ATOM      3  N   UNL     1      -2.232   0.286  24.599  0.00  0.00    -0.213 NA
ATOM      9  C   UNL     1      -3.375   0.877  24.324  0.00  0.00    +0.201 A 
ATOM     12  C   UNL     1      -3.860  -1.201  24.114  0.00  0.00    +0.155 A 
ATOM     13  C   UNL     1      -2.528  -1.049  24.469  0.00  0.00    +0.110 A 
ATOM     14  C   UNL     1      -4.488  -2.421  23.902  0.00  0.00    +0.048 A 
ATOM     15  C   UNL     1      -1.734  -2.194  24.631  0.00  0.00    +0.031 A 
ATOM     16  C   UNL     1      -3.683  -3.553  24.067  0.00  0.00    +0.004 A 
ATOM     17  C   UNL     1      -2.334  -3.445  24.425  0.00  0.00    +0.002 A 
ENDROOT
BRANCH   9   4
ATOM      2  N   UNL     1      -2.843   4.451  24.930  0.00  0.00    -0.299 NA
ATOM      4  C   UNL     1      -3.686   2.356  24.300  0.00  0.00    +0.090 C 
ATOM      5  C   UNL     1      -2.428   3.231  24.234  0.00  0.00    +0.097 C 
ATOM      6  C   UNL     1      -4.456   2.873  25.527  0.00  0.00    +0.029 C 
ATOM      7  C   UNL     1      -3.586   3.984  26.100  0.00  0.00    +0.085 C 
BRANCH   2   8
ATOM      8  C   UNL     1      -1.714   5.296  25.291  0.00  0.00    +0.050 C 
ATOM     10  C   UNL     1      -0.414   4.605  24.890  0.00  0.00    +0.024 C 
ATOM     11  C   UNL     1      -1.838   6.660  24.620  0.00  0.00    +0.024 C 
ENDBRANCH   2   8
ENDBRANCH   9   4
TORSDOF 2
ENDMDL
MODEL 9
REMARK VINA RESULT:      -3.6      2.930      4.650
REMARK  Name = 51137066
REMARK  4 active torsions:
REMARK  status: ('A' for Active; 'I' for Inactive)
REMARK    1  A    between atoms: N_2  and  C_8
REMARK    2  A    between atoms: C_4  and  C_9
REMARK    3  A    between atoms: C_8  and  C_10
REMARK    4  A    between atoms: C_8  and  C_11
REMARK                            x       y       z     vdW  Elec       q    Type
REMARK                         _______ _______ _______ _____ _____    ______ ____
ROOT
ATOM      1  O   UNL     1       0.959   2.010  24.512  0.00  0.00    -0.439 OA
ATOM      3  N   UNL     1      -0.439   0.479  23.595  0.00  0.00    -0.213 NA
ATOM      9  C   UNL     1      -0.289   1.466  24.453  0.00  0.00    +0.201 A 
ATOM     12  C   UNL     1       1.668   1.289  23.594  0.00  0.00    +0.155 A 
ATOM     13  C   UNL     1       0.809   0.354  23.036  0.00  0.00    +0.110 A 
ATOM     14  C   UNL     1       3.006   1.436  23.254  0.00  0.00    +0.048 A 
ATOM     15  C   UNL     1       1.302  -0.519  22.055  0.00  0.00    +0.031 A 
ATOM     16  C   UNL     1       3.482   0.558  22.275  0.00  0.00    +0.004 A 
ATOM     17  C   UNL     1       2.650  -0.400  21.686  0.00  0.00    +0.002 A 
ENDROOT
BRANCH   9   4
ATOM      2  N   UNL     1      -3.514   2.893  25.447  0.00  0.00    -0.299 NA
ATOM      4  C   UNL     1      -1.319   2.070  25.378  0.00  0.00    +0.090 C 
ATOM      5  C   UNL     1      -2.759   1.729  24.977  0.00  0.00    +0.097 C 
ATOM      6  C   UNL     1      -1.291   3.607  25.458  0.00  0.00    +0.029 C 
ATOM      7  C   UNL     1      -2.698   4.048  25.073  0.00  0.00    +0.085 C 
BRANCH   2   8
ATOM      8  C   UNL     1      -4.852   2.953  24.879  0.00  0.00    +0.050 C 
ATOM     10  C   UNL     1      -5.481   1.563  24.910  0.00  0.00    +0.024 C 
ATOM     11  C   UNL     1      -5.707   3.958  25.646  0.00  0.00    +0.024 C 
ENDBRANCH   2   8
ENDBRANCH   9   4
TORSDOF 2
ENDMDL
MODEL 10
REMARK VINA RESULT:      -3.1     15.167     17.679
REMARK  Name = 51137066
REMARK  4 active torsions:
REMARK  status: ('A' for Active; 'I' for Inactive)
REMARK    1  A    between atoms: N_2  and  C_8
REMARK    2  A    between atoms: C_4  and  C_9
REMARK    3  A    between atoms: C_8  and  C_10
REMARK    4  A    between atoms: C_8  and  C_11
REMARK                            x       y       z     vdW  Elec       q    Type
REMARK                         _______ _______ _______ _____ _____    ______ ____
ROOT
ATOM      1  O   UNL     1      -4.366  -8.623   9.855  0.00  0.00    -0.439 OA
ATOM      3  N   UNL     1      -5.662 -10.143  10.927  0.00  0.00    -0.213 NA
ATOM      9  C   UNL     1      -4.445  -9.714  10.667  0.00  0.00    +0.201 A 
ATOM     12  C   UNL     1      -5.671  -8.335   9.575  0.00  0.00    +0.155 A 
ATOM     13  C   UNL     1      -6.461  -9.267  10.233  0.00  0.00    +0.110 A 
ATOM     14  C   UNL     1      -6.159  -7.305   8.781  0.00  0.00    +0.048 A 
ATOM     15  C   UNL     1      -7.855  -9.187  10.104  0.00  0.00    +0.031 A 
ATOM     16  C   UNL     1      -7.551  -7.239   8.662  0.00  0.00    +0.004 A 
ATOM     17  C   UNL     1      -8.384  -8.160   9.309  0.00  0.00    +0.002 A 
ENDROOT
BRANCH   9   4
ATOM      2  N   UNL     1      -1.819 -10.572  13.073  0.00  0.00    -0.299 NA
ATOM      4  C   UNL     1      -3.129 -10.275  11.151  0.00  0.00    +0.090 C 
ATOM      5  C   UNL     1      -3.188 -10.781  12.598  0.00  0.00    +0.097 C 
ATOM      6  C   UNL     1      -1.958  -9.277  11.136  0.00  0.00    +0.029 C 
ATOM      7  C   UNL     1      -1.441  -9.252  12.569  0.00  0.00    +0.085 C 
BRANCH   2   8
ATOM      8  C   UNL     1      -1.714 -10.663  14.522  0.00  0.00    +0.050 C 
ATOM     10  C   UNL     1      -0.940  -9.459  15.052  0.00  0.00    +0.024 C 
ATOM     11  C   UNL     1      -3.103 -10.739  15.149  0.00  0.00    +0.024 C 
ENDBRANCH   2   8
ENDBRANCH   9   4
TORSDOF 2
ENDMDL
