MODEL 1
REMARK VINA RESULT:       3.9      0.000      0.000
REMARK  Name = 45361091
REMARK  8 active torsions:
REMARK  status: ('A' for Active; 'I' for Inactive)
REMARK    1  A    between atoms: S_1  and  C_30
REMARK    2  A    between atoms: S_1  and  C_33
REMARK    3  A    between atoms: N_7  and  C_19
REMARK    4  A    between atoms: N_8  and  C_20
REMARK    5  A    between atoms: C_15  and  C_18
REMARK    6  A    between atoms: C_18  and  C_21
REMARK    7  A    between atoms: C_19  and  C_22
REMARK    8  A    between atoms: C_21  and  C_23
REMARK                            x       y       z     vdW  Elec       q    Type
REMARK                         _______ _______ _______ _____ _____    ______ ____
ROOT
ATOM      2  O   UNL     1      -3.961  -7.736  10.991  0.00  0.00    -0.274 OA
ATOM      7  N   UNL     1      -2.473  -9.695  12.105  0.00  0.00    -0.286 NA
ATOM      8  N   UNL     1      -5.923 -10.241  13.197  0.00  0.00    -0.296 NA
ATOM      9  N   UNL     1      -5.768  -9.074  10.563  0.00  0.00    -0.312 N 
ATOM     11  C   UNL     1      -4.544 -10.685  12.892  0.00  0.00    +0.084 C 
ATOM     12  C   UNL     1      -3.825 -10.074  11.654  0.00  0.00    +0.161 C 
ATOM     13  C   UNL     1      -3.534 -10.405  14.020  0.00  0.00    +0.036 C 
ATOM     14  C   UNL     1      -2.195 -10.459  13.316  0.00  0.00    +0.087 C 
ATOM     15  C   UNL     1      -6.925 -10.582  12.150  0.00  0.00    +0.074 C 
ATOM     16  C   UNL     1      -4.499  -8.840  11.060  0.00  0.00    +0.232 C 
ATOM     17  C   UNL     1      -6.459 -10.340  10.701  0.00  0.00    +0.123 C 
ATOM     20  C   UNL     1      -6.360 -10.750  14.507  0.00  0.00    +0.105 C 
ATOM     34  H   UNL     1      -6.239  -8.314  10.084  0.00  0.00    +0.149 HD
ENDROOT
BRANCH  15  18
ATOM     18  C   UNL     1      -8.223  -9.774  12.361  0.00  0.00    +0.029 C 
BRANCH  18  21
ATOM     21  C   UNL     1      -9.155 -10.447  13.351  0.00  0.00    +0.097 C 
BRANCH  21  23
ATOM      3  O   UNL     1     -10.720  -8.692  13.654  0.00  0.00    -0.276 OA
ATOM      4  O   UNL     1      -9.553  -9.769  18.338  0.00  0.00    -0.377 OA
ATOM     10  N   UNL     1      -9.572  -9.398  15.544  0.00  0.00    -0.297 N 
ATOM     23  C   UNL     1      -9.888  -9.431  14.189  0.00  0.00    +0.216 C 
ATOM     26  C   UNL     1     -10.240  -8.445  16.430  0.00  0.00    +0.136 C 
ATOM     27  C   UNL     1      -8.503 -10.171  16.188  0.00  0.00    +0.136 C 
ATOM     31  C   UNL     1     -10.673  -9.131  17.718  0.00  0.00    +0.179 C 
ATOM     32  C   UNL     1      -9.005 -10.781  17.490  0.00  0.00    +0.179 C 
ENDBRANCH  21  23
ENDBRANCH  18  21
ENDBRANCH  15  18
BRANCH   7  19
ATOM     19  C   UNL     1      -1.449  -9.889  11.087  0.00  0.00    +0.120 C 
BRANCH  19  22
ATOM     22  C   UNL     1      -0.229  -9.045  11.349  0.00  0.00    -0.033 A 
ATOM     24  C   UNL     1      -0.236  -8.115  12.387  0.00  0.00    +0.007 A 
ATOM     25  C   UNL     1       0.907  -9.197  10.553  0.00  0.00    +0.007 A 
ATOM     28  C   UNL     1       0.894  -7.333  12.630  0.00  0.00    +0.027 A 
ATOM     29  C   UNL     1       2.036  -8.416  10.796  0.00  0.00    +0.027 A 
ATOM     30  C   UNL     1       2.030  -7.484  11.834  0.00  0.00    +0.088 A 
BRANCH  30   1
ATOM      1  S   UNL     1       3.446  -6.508  12.141  0.00  0.00    -0.006 S 
ATOM      5  O   UNL     1       4.540  -6.990  11.310  0.00  0.00    -0.170 OA
ATOM      6  O   UNL     1       3.048  -5.109  12.073  0.00  0.00    -0.170 OA
ATOM     33  C   UNL     1       3.876  -6.872  13.828  0.00  0.00    +0.200 C 
ENDBRANCH  30   1
ENDBRANCH  19  22
ENDBRANCH   7  19
TORSDOF 6
ENDMDL
MODEL 2
REMARK VINA RESULT:       6.9     14.301     16.325
REMARK  Name = 45361091
REMARK  8 active torsions:
REMARK  status: ('A' for Active; 'I' for Inactive)
REMARK    1  A    between atoms: S_1  and  C_30
REMARK    2  A    between atoms: S_1  and  C_33
REMARK    3  A    between atoms: N_7  and  C_19
REMARK    4  A    between atoms: N_8  and  C_20
REMARK    5  A    between atoms: C_15  and  C_18
REMARK    6  A    between atoms: C_18  and  C_21
REMARK    7  A    between atoms: C_19  and  C_22
REMARK    8  A    between atoms: C_21  and  C_23
REMARK                            x       y       z     vdW  Elec       q    Type
REMARK                         _______ _______ _______ _____ _____    ______ ____
ROOT
ATOM      2  O   UNL     1      -1.136   1.093  24.722  0.00  0.00    -0.274 OA
ATOM      7  N   UNL     1      -2.504  -1.236  24.715  0.00  0.00    -0.286 NA
ATOM      8  N   UNL     1      -4.940   1.415  25.369  0.00  0.00    -0.296 NA
ATOM      9  N   UNL     1      -2.778   2.293  23.672  0.00  0.00    -0.312 N 
ATOM     11  C   UNL     1      -4.540   0.073  24.890  0.00  0.00    +0.084 C 
ATOM     12  C   UNL     1      -3.190  -0.070  24.128  0.00  0.00    +0.161 C 
ATOM     13  C   UNL     1      -4.386  -0.970  26.013  0.00  0.00    +0.036 C 
ATOM     14  C   UNL     1      -3.521  -2.040  25.384  0.00  0.00    +0.087 C 
ATOM     15  C   UNL     1      -5.174   2.410  24.286  0.00  0.00    +0.074 C 
ATOM     16  C   UNL     1      -2.261   1.137  24.227  0.00  0.00    +0.232 C 
ATOM     17  C   UNL     1      -4.128   2.398  23.155  0.00  0.00    +0.123 C 
ATOM     20  C   UNL     1      -6.119   1.329  26.246  0.00  0.00    +0.105 C 
ATOM     34  H   UNL     1      -2.179   3.112  23.635  0.00  0.00    +0.149 HD
ENDROOT
BRANCH  15  18
ATOM     18  C   UNL     1      -5.214   3.840  24.865  0.00  0.00    +0.029 C 
BRANCH  18  21
ATOM     21  C   UNL     1      -3.837   4.474  24.906  0.00  0.00    +0.097 C 
BRANCH  21  23
ATOM      3  O   UNL     1      -3.660   3.683  27.134  0.00  0.00    -0.276 OA
ATOM      4  O   UNL     1       0.995   3.160  25.548  0.00  0.00    -0.377 OA
ATOM     10  N   UNL     1      -1.671   3.970  25.973  0.00  0.00    -0.297 N 
ATOM     23  C   UNL     1      -3.056   4.008  26.108  0.00  0.00    +0.216 C 
ATOM     26  C   UNL     1      -0.837   3.525  27.089  0.00  0.00    +0.136 C 
ATOM     27  C   UNL     1      -0.914   4.466  24.818  0.00  0.00    +0.136 C 
ATOM     31  C   UNL     1       0.234   2.560  26.600  0.00  0.00    +0.179 C 
ATOM     32  C   UNL     1       0.165   3.466  24.425  0.00  0.00    +0.179 C 
ENDBRANCH  21  23
ENDBRANCH  18  21
ENDBRANCH  15  18
BRANCH   7  19
ATOM     19  C   UNL     1      -1.744  -2.010  23.742  0.00  0.00    +0.120 C 
BRANCH  19  22
ATOM     22  C   UNL     1      -0.410  -1.379  23.442  0.00  0.00    -0.033 A 
ATOM     24  C   UNL     1      -0.163  -0.839  22.181  0.00  0.00    +0.007 A 
ATOM     25  C   UNL     1       0.577  -1.335  24.427  0.00  0.00    +0.007 A 
ATOM     28  C   UNL     1       1.073  -0.254  21.903  0.00  0.00    +0.027 A 
ATOM     29  C   UNL     1       1.813  -0.751  24.149  0.00  0.00    +0.027 A 
ATOM     30  C   UNL     1       2.061  -0.211  22.887  0.00  0.00    +0.088 A 
BRANCH  30   1
ATOM      1  S   UNL     1       3.607   0.524  22.540  0.00  0.00    -0.006 S 
ATOM      5  O   UNL     1       3.919   0.322  21.131  0.00  0.00    -0.170 OA
ATOM      6  O   UNL     1       3.597   1.871  23.092  0.00  0.00    -0.170 OA
ATOM     33  C   UNL     1       4.774  -0.441  23.473  0.00  0.00    +0.200 C 
ENDBRANCH  30   1
ENDBRANCH  19  22
ENDBRANCH   7  19
TORSDOF 6
ENDMDL
