MODEL 1
REMARK VINA RESULT:      -5.2      0.000      0.000
REMARK  Name = 56775429
REMARK  11 active torsions:
REMARK  status: ('A' for Active; 'I' for Inactive)
REMARK    1  A    between atoms: O_6  and  C_24
REMARK    2  A    between atoms: O_6  and  C_27
REMARK    3  A    between atoms: N_7  and  C_10
REMARK    4  A    between atoms: N_7  and  C_15
REMARK    5  A    between atoms: N_9  and  C_19
REMARK    6  A    between atoms: N_9  and  C_25
REMARK    7  A    between atoms: N_9  and  C_26
REMARK    8  A    between atoms: C_10  and  C_13
REMARK    9  A    between atoms: C_13  and  C_14
REMARK   10  A    between atoms: C_15  and  C_17
REMARK   11  A    between atoms: C_18  and  C_19
REMARK                            x       y       z     vdW  Elec       q    Type
REMARK                         _______ _______ _______ _____ _____    ______ ____
ROOT
ATOM      7  N   UNL     1      -2.861   4.154  25.468  0.00  0.00    -0.302 NA
ATOM     28  H   UNL     1      -3.085   5.113  25.728  0.00  0.00    +0.123 HD
ENDROOT
BRANCH   7  10
ATOM      4  O   UNL     1      -0.537   5.191  23.830  0.00  0.00    -0.376 OA
ATOM     10  C   UNL     1      -1.445   3.890  25.259  0.00  0.00    +0.072 C 
ATOM     11  C   UNL     1      -0.690   5.215  25.268  0.00  0.00    +0.184 C 
ATOM     12  C   UNL     1      -1.160   3.888  23.761  0.00  0.00    +0.184 C 
BRANCH  10  13
ATOM     13  C   UNL     1      -0.919   2.731  26.118  0.00  0.00    +0.085 C 
BRANCH  13  14
ATOM      5  O   UNL     1      -0.191  -0.354  24.471  0.00  0.00    -0.358 OA
ATOM      8  N   UNL     1      -0.897   0.411  25.393  0.00  0.00    -0.083 NA
ATOM     14  C   UNL     1      -0.394   1.642  25.276  0.00  0.00    +0.086 A 
ATOM     16  C   UNL     1       0.621   1.716  24.308  0.00  0.00    +0.072 A 
ATOM     18  C   UNL     1       0.709   0.434  23.832  0.00  0.00    +0.151 A 
BRANCH  18  19
ATOM     19  C   UNL     1       1.567  -0.234  22.790  0.00  0.00    +0.161 C 
BRANCH  19   9
ATOM      9  N   UNL     1       2.983   0.094  22.959  0.00  0.00    -0.301 NA
ATOM     25  C   UNL     1       3.703  -1.037  23.542  0.00  0.00    +0.105 C 
ATOM     26  C   UNL     1       3.576   0.471  21.676  0.00  0.00    +0.105 C 
ENDBRANCH  19   9
ENDBRANCH  18  19
ENDBRANCH  13  14
ENDBRANCH  10  13
ENDBRANCH   7  10
BRANCH   7  15
ATOM     15  C   UNL     1      -3.615   3.781  24.274  0.00  0.00    +0.117 C 
BRANCH  15  17
ATOM     17  C   UNL     1      -3.819   2.293  24.181  0.00  0.00    -0.033 A 
ATOM     20  C   UNL     1      -4.551   1.626  25.164  0.00  0.00    +0.008 A 
ATOM     21  C   UNL     1      -3.275   1.580  23.112  0.00  0.00    +0.008 A 
ATOM     22  C   UNL     1      -4.740   0.247  25.077  0.00  0.00    +0.046 A 
ATOM     23  C   UNL     1      -3.465   0.200  23.026  0.00  0.00    +0.046 A 
ATOM     24  C   UNL     1      -4.197  -0.466  24.009  0.00  0.00    +0.130 A 
BRANCH  24   6
ATOM      6  O   UNL     1      -4.382  -1.811  23.926  0.00  0.00    -0.406 OA
BRANCH   6  27
ATOM      1  F   UNL     1      -3.891  -3.942  24.486  0.00  0.00    -0.133 F 
ATOM      2  F   UNL     1      -2.233  -2.556  24.164  0.00  0.00    -0.133 F 
ATOM      3  F   UNL     1      -3.506  -2.377  25.961  0.00  0.00    -0.133 F 
ATOM     27  C   UNL     1      -3.491  -2.660  24.642  0.00  0.00    +0.575 C 
ENDBRANCH   6  27
ENDBRANCH  24   6
ENDBRANCH  15  17
ENDBRANCH   7  15
TORSDOF 9
ENDMDL
MODEL 2
REMARK VINA RESULT:      -4.8      3.029      5.150
REMARK  Name = 56775429
REMARK  11 active torsions:
REMARK  status: ('A' for Active; 'I' for Inactive)
REMARK    1  A    between atoms: O_6  and  C_24
REMARK    2  A    between atoms: O_6  and  C_27
REMARK    3  A    between atoms: N_7  and  C_10
REMARK    4  A    between atoms: N_7  and  C_15
REMARK    5  A    between atoms: N_9  and  C_19
REMARK    6  A    between atoms: N_9  and  C_25
REMARK    7  A    between atoms: N_9  and  C_26
REMARK    8  A    between atoms: C_10  and  C_13
REMARK    9  A    between atoms: C_13  and  C_14
REMARK   10  A    between atoms: C_15  and  C_17
REMARK   11  A    between atoms: C_18  and  C_19
REMARK                            x       y       z     vdW  Elec       q    Type
REMARK                         _______ _______ _______ _____ _____    ______ ____
ROOT
ATOM      7  N   UNL     1      -4.300  -1.016  25.515  0.00  0.00    -0.302 NA
ATOM     28  H   UNL     1      -4.357  -0.413  26.336  0.00  0.00    +0.123 HD
ENDROOT
BRANCH   7  10
ATOM      4  O   UNL     1      -3.060  -3.297  23.961  0.00  0.00    -0.376 OA
ATOM     10  C   UNL     1      -2.999  -1.631  25.294  0.00  0.00    +0.072 C 
ATOM     11  C   UNL     1      -2.821  -1.880  23.801  0.00  0.00    +0.184 C 
ATOM     12  C   UNL     1      -3.147  -3.145  25.396  0.00  0.00    +0.184 C 
BRANCH  10  13
ATOM     13  C   UNL     1      -1.871  -0.939  26.071  0.00  0.00    +0.085 C 
BRANCH  13  14
ATOM      5  O   UNL     1       0.341   1.139  24.187  0.00  0.00    -0.358 OA
ATOM      8  N   UNL     1      -0.648   0.947  25.146  0.00  0.00    -0.083 NA
ATOM     14  C   UNL     1      -0.867  -0.370  25.156  0.00  0.00    +0.086 A 
ATOM     16  C   UNL     1      -0.057  -1.055  24.234  0.00  0.00    +0.072 A 
ATOM     18  C   UNL     1       0.684  -0.060  23.652  0.00  0.00    +0.151 A 
BRANCH  18  19
ATOM     19  C   UNL     1       1.750  -0.041  22.589  0.00  0.00    +0.161 C 
BRANCH  19   9
ATOM      9  N   UNL     1       3.079   0.194  23.154  0.00  0.00    -0.301 NA
ATOM     25  C   UNL     1       3.717  -1.075  23.503  0.00  0.00    +0.105 C 
ATOM     26  C   UNL     1       3.909   0.942  22.212  0.00  0.00    +0.105 C 
ENDBRANCH  19   9
ENDBRANCH  18  19
ENDBRANCH  13  14
ENDBRANCH  10  13
ENDBRANCH   7  10
BRANCH   7  15
ATOM     15  C   UNL     1      -4.701  -0.266  24.328  0.00  0.00    +0.117 C 
BRANCH  15  17
ATOM     17  C   UNL     1      -4.144   1.133  24.334  0.00  0.00    -0.033 A 
ATOM     20  C   UNL     1      -3.329   1.564  23.286  0.00  0.00    +0.008 A 
ATOM     21  C   UNL     1      -4.443   1.998  25.387  0.00  0.00    +0.008 A 
ATOM     22  C   UNL     1      -2.813   2.859  23.292  0.00  0.00    +0.046 A 
ATOM     23  C   UNL     1      -3.926   3.295  25.392  0.00  0.00    +0.046 A 
ATOM     24  C   UNL     1      -3.111   3.725  24.345  0.00  0.00    +0.130 A 
BRANCH  24   6
ATOM      6  O   UNL     1      -2.607   4.989  24.350  0.00  0.00    -0.406 OA
BRANCH   6  27
ATOM      1  F   UNL     1      -1.217   6.459  25.349  0.00  0.00    -0.133 F 
ATOM      2  F   UNL     1      -1.065   4.354  25.915  0.00  0.00    -0.133 F 
ATOM      3  F   UNL     1      -0.359   5.033  23.934  0.00  0.00    -0.133 F 
ATOM     27  C   UNL     1      -1.303   5.192  24.884  0.00  0.00    +0.575 C 
ENDBRANCH   6  27
ENDBRANCH  24   6
ENDBRANCH  15  17
ENDBRANCH   7  15
TORSDOF 9
ENDMDL
MODEL 3
REMARK VINA RESULT:      -4.8      3.321      6.588
REMARK  Name = 56775429
REMARK  11 active torsions:
REMARK  status: ('A' for Active; 'I' for Inactive)
REMARK    1  A    between atoms: O_6  and  C_24
REMARK    2  A    between atoms: O_6  and  C_27
REMARK    3  A    between atoms: N_7  and  C_10
REMARK    4  A    between atoms: N_7  and  C_15
REMARK    5  A    between atoms: N_9  and  C_19
REMARK    6  A    between atoms: N_9  and  C_25
REMARK    7  A    between atoms: N_9  and  C_26
REMARK    8  A    between atoms: C_10  and  C_13
REMARK    9  A    between atoms: C_13  and  C_14
REMARK   10  A    between atoms: C_15  and  C_17
REMARK   11  A    between atoms: C_18  and  C_19
REMARK                            x       y       z     vdW  Elec       q    Type
REMARK                         _______ _______ _______ _____ _____    ______ ____
ROOT
ATOM      7  N   UNL     1      -2.678  -0.240  23.800  0.00  0.00    -0.302 NA
ATOM     28  H   UNL     1      -2.856   0.572  23.209  0.00  0.00    +0.123 HD
ENDROOT
BRANCH   7  10
ATOM      4  O   UNL     1      -3.506  -2.680  25.387  0.00  0.00    -0.376 OA
ATOM     10  C   UNL     1      -3.854  -0.789  24.459  0.00  0.00    +0.072 C 
ATOM     11  C   UNL     1      -3.451  -1.306  25.835  0.00  0.00    +0.184 C 
ATOM     12  C   UNL     1      -3.984  -2.262  24.088  0.00  0.00    +0.184 C 
BRANCH  10  13
ATOM     13  C   UNL     1      -5.086   0.120  24.340  0.00  0.00    +0.085 C 
BRANCH  13  14
ATOM      5  O   UNL     1      -4.897   3.347  25.861  0.00  0.00    -0.358 OA
ATOM      8  N   UNL     1      -5.441   2.073  25.745  0.00  0.00    -0.083 NA
ATOM     14  C   UNL     1      -4.767   1.501  24.743  0.00  0.00    +0.086 A 
ATOM     16  C   UNL     1      -3.797   2.355  24.194  0.00  0.00    +0.072 A 
ATOM     18  C   UNL     1      -3.920   3.503  24.933  0.00  0.00    +0.151 A 
BRANCH  18  19
ATOM     19  C   UNL     1      -3.217   4.834  24.915  0.00  0.00    +0.161 C 
BRANCH  19   9
ATOM      9  N   UNL     1      -1.926   4.777  25.603  0.00  0.00    -0.301 NA
ATOM     25  C   UNL     1      -1.760   3.488  26.272  0.00  0.00    +0.105 C 
ATOM     26  C   UNL     1      -0.834   5.007  24.657  0.00  0.00    +0.105 C 
ENDBRANCH  19   9
ENDBRANCH  18  19
ENDBRANCH  13  14
ENDBRANCH  10  13
ENDBRANCH   7  10
BRANCH   7  15
ATOM     15  C   UNL     1      -1.663   0.093  24.796  0.00  0.00    +0.117 C 
BRANCH  15  17
ATOM     17  C   UNL     1      -0.304   0.273  24.174  0.00  0.00    -0.033 A 
ATOM     20  C   UNL     1       0.420   1.442  24.407  0.00  0.00    +0.008 A 
ATOM     21  C   UNL     1       0.230  -0.729  23.365  0.00  0.00    +0.008 A 
ATOM     22  C   UNL     1       1.679   1.609  23.831  0.00  0.00    +0.046 A 
ATOM     23  C   UNL     1       1.490  -0.562  22.788  0.00  0.00    +0.046 A 
ATOM     24  C   UNL     1       2.214   0.607  23.021  0.00  0.00    +0.130 A 
BRANCH  24   6
ATOM      6  O   UNL     1       3.442   0.771  22.459  0.00  0.00    -0.406 OA
BRANCH   6  27
ATOM      1  F   UNL     1       5.574   0.073  22.211  0.00  0.00    -0.133 F 
ATOM      2  F   UNL     1       4.993   0.938  24.131  0.00  0.00    -0.133 F 
ATOM      3  F   UNL     1       4.269  -1.066  23.543  0.00  0.00    -0.133 F 
ATOM     27  C   UNL     1       4.564   0.176  23.103  0.00  0.00    +0.575 C 
ENDBRANCH   6  27
ENDBRANCH  24   6
ENDBRANCH  15  17
ENDBRANCH   7  15
TORSDOF 9
ENDMDL
MODEL 4
REMARK VINA RESULT:      -4.5      2.587      5.042
REMARK  Name = 56775429
REMARK  11 active torsions:
REMARK  status: ('A' for Active; 'I' for Inactive)
REMARK    1  A    between atoms: O_6  and  C_24
REMARK    2  A    between atoms: O_6  and  C_27
REMARK    3  A    between atoms: N_7  and  C_10
REMARK    4  A    between atoms: N_7  and  C_15
REMARK    5  A    between atoms: N_9  and  C_19
REMARK    6  A    between atoms: N_9  and  C_25
REMARK    7  A    between atoms: N_9  and  C_26
REMARK    8  A    between atoms: C_10  and  C_13
REMARK    9  A    between atoms: C_13  and  C_14
REMARK   10  A    between atoms: C_15  and  C_17
REMARK   11  A    between atoms: C_18  and  C_19
REMARK                            x       y       z     vdW  Elec       q    Type
REMARK                         _______ _______ _______ _____ _____    ______ ____
ROOT
ATOM      7  N   UNL     1      -3.690   3.778  26.451  0.00  0.00    -0.302 NA
ATOM     28  H   UNL     1      -3.363   2.889  26.825  0.00  0.00    +0.123 HD
ENDROOT
BRANCH   7  10
ATOM      4  O   UNL     1      -6.686   3.938  26.052  0.00  0.00    -0.376 OA
ATOM     10  C   UNL     1      -4.675   3.670  25.385  0.00  0.00    +0.072 C 
ATOM     11  C   UNL     1      -5.671   4.817  25.516  0.00  0.00    +0.184 C 
ATOM     12  C   UNL     1      -5.826   2.792  25.865  0.00  0.00    +0.184 C 
BRANCH  10  13
ATOM     13  C   UNL     1      -4.045   3.388  24.014  0.00  0.00    +0.085 C 
BRANCH  13  14
ATOM      5  O   UNL     1      -2.989   0.129  23.002  0.00  0.00    -0.358 OA
ATOM      8  N   UNL     1      -2.914   1.517  22.951  0.00  0.00    -0.083 NA
ATOM     14  C   UNL     1      -3.845   1.943  23.809  0.00  0.00    +0.086 A 
ATOM     16  C   UNL     1      -4.532   0.884  24.424  0.00  0.00    +0.072 A 
ATOM     18  C   UNL     1      -3.956  -0.235  23.881  0.00  0.00    +0.151 A 
BRANCH  18  19
ATOM     19  C   UNL     1      -4.175  -1.714  24.064  0.00  0.00    +0.161 C 
BRANCH  19   9
ATOM      9  N   UNL     1      -3.271  -2.279  25.066  0.00  0.00    -0.301 NA
ATOM     25  C   UNL     1      -1.955  -2.534  24.481  0.00  0.00    +0.105 C 
ATOM     26  C   UNL     1      -3.155  -1.379  26.213  0.00  0.00    +0.105 C 
ENDBRANCH  19   9
ENDBRANCH  18  19
ENDBRANCH  13  14
ENDBRANCH  10  13
ENDBRANCH   7  10
BRANCH   7  15
ATOM     15  C   UNL     1      -2.549   4.566  25.991  0.00  0.00    +0.117 C 
BRANCH  15  17
ATOM     17  C   UNL     1      -1.460   3.696  25.421  0.00  0.00    -0.033 A 
ATOM     20  C   UNL     1      -1.176   2.461  26.004  0.00  0.00    +0.008 A 
ATOM     21  C   UNL     1      -0.736   4.127  24.308  0.00  0.00    +0.008 A 
ATOM     22  C   UNL     1      -0.167   1.657  25.475  0.00  0.00    +0.046 A 
ATOM     23  C   UNL     1       0.273   3.321  23.780  0.00  0.00    +0.046 A 
ATOM     24  C   UNL     1       0.558   2.086  24.364  0.00  0.00    +0.130 A 
BRANCH  24   6
ATOM      6  O   UNL     1       1.542   1.301  23.849  0.00  0.00    -0.406 OA
BRANCH   6  27
ATOM      1  F   UNL     1       0.017   0.415  22.440  0.00  0.00    -0.133 F 
ATOM      2  F   UNL     1       2.107  -0.170  22.191  0.00  0.00    -0.133 F 
ATOM      3  F   UNL     1       0.938  -0.905  23.917  0.00  0.00    -0.133 F 
ATOM     27  C   UNL     1       1.164   0.148  23.103  0.00  0.00    +0.575 C 
ENDBRANCH   6  27
ENDBRANCH  24   6
ENDBRANCH  15  17
ENDBRANCH   7  15
TORSDOF 9
ENDMDL
MODEL 5
REMARK VINA RESULT:      -4.1      2.644      4.814
REMARK  Name = 56775429
REMARK  11 active torsions:
REMARK  status: ('A' for Active; 'I' for Inactive)
REMARK    1  A    between atoms: O_6  and  C_24
REMARK    2  A    between atoms: O_6  and  C_27
REMARK    3  A    between atoms: N_7  and  C_10
REMARK    4  A    between atoms: N_7  and  C_15
REMARK    5  A    between atoms: N_9  and  C_19
REMARK    6  A    between atoms: N_9  and  C_25
REMARK    7  A    between atoms: N_9  and  C_26
REMARK    8  A    between atoms: C_10  and  C_13
REMARK    9  A    between atoms: C_13  and  C_14
REMARK   10  A    between atoms: C_15  and  C_17
REMARK   11  A    between atoms: C_18  and  C_19
REMARK                            x       y       z     vdW  Elec       q    Type
REMARK                         _______ _______ _______ _____ _____    ______ ____
ROOT
ATOM      7  N   UNL     1       0.299   2.486  23.100  0.00  0.00    -0.302 NA
ATOM     28  H   UNL     1      -0.511   2.346  22.498  0.00  0.00    +0.123 HD
ENDROOT
BRANCH   7  10
ATOM      4  O   UNL     1       2.122   0.177  22.390  0.00  0.00    -0.376 OA
ATOM     10  C   UNL     1       0.838   1.272  23.697  0.00  0.00    +0.072 C 
ATOM     11  C   UNL     1       2.330   1.196  23.395  0.00  0.00    +0.184 C 
ATOM     12  C   UNL     1       0.710   0.131  22.693  0.00  0.00    +0.184 C 
BRANCH  10  13
ATOM     13  C   UNL     1       0.360   1.052  25.139  0.00  0.00    +0.085 C 
BRANCH  13  14
ATOM      5  O   UNL     1      -1.311  -2.104  25.176  0.00  0.00    -0.358 OA
ATOM      8  N   UNL     1      -0.173  -1.318  25.040  0.00  0.00    -0.083 NA
ATOM     14  C   UNL     1      -0.598  -0.064  25.216  0.00  0.00    +0.086 A 
ATOM     16  C   UNL     1      -1.979   0.003  25.464  0.00  0.00    +0.072 A 
ATOM     18  C   UNL     1      -2.379  -1.307  25.429  0.00  0.00    +0.151 A 
BRANCH  18  19
ATOM     19  C   UNL     1      -3.705  -1.997  25.607  0.00  0.00    +0.161 C 
BRANCH  19   9
ATOM      9  N   UNL     1      -4.405  -2.169  24.333  0.00  0.00    -0.301 NA
ATOM     25  C   UNL     1      -4.255  -0.976  23.502  0.00  0.00    +0.105 C 
ATOM     26  C   UNL     1      -3.903  -3.349  23.631  0.00  0.00    +0.105 C 
ENDBRANCH  19   9
ENDBRANCH  18  19
ENDBRANCH  13  14
ENDBRANCH  10  13
ENDBRANCH   7  10
BRANCH   7  15
ATOM     15  C   UNL     1      -0.030   3.448  24.148  0.00  0.00    +0.117 C 
BRANCH  15  17
ATOM     17  C   UNL     1      -1.489   3.398  24.517  0.00  0.00    -0.033 A 
ATOM     20  C   UNL     1      -1.912   3.877  25.758  0.00  0.00    +0.008 A 
ATOM     21  C   UNL     1      -2.418   2.872  23.619  0.00  0.00    +0.008 A 
ATOM     22  C   UNL     1      -3.262   3.830  26.100  0.00  0.00    +0.046 A 
ATOM     23  C   UNL     1      -3.770   2.826  23.962  0.00  0.00    +0.046 A 
ATOM     24  C   UNL     1      -4.192   3.305  25.202  0.00  0.00    +0.130 A 
BRANCH  24   6
ATOM      6  O   UNL     1      -5.510   3.259  25.537  0.00  0.00    -0.406 OA
BRANCH   6  27
ATOM      1  F   UNL     1      -6.934   1.705  24.731  0.00  0.00    -0.133 F 
ATOM      2  F   UNL     1      -5.167   1.015  25.816  0.00  0.00    -0.133 F 
ATOM      3  F   UNL     1      -6.835   1.983  26.896  0.00  0.00    -0.133 F 
ATOM     27  C   UNL     1      -6.105   1.985  25.761  0.00  0.00    +0.575 C 
ENDBRANCH   6  27
ENDBRANCH  24   6
ENDBRANCH  15  17
ENDBRANCH   7  15
TORSDOF 9
ENDMDL
MODEL 6
REMARK VINA RESULT:      -4.0     15.435     18.130
REMARK  Name = 56775429
REMARK  11 active torsions:
REMARK  status: ('A' for Active; 'I' for Inactive)
REMARK    1  A    between atoms: O_6  and  C_24
REMARK    2  A    between atoms: O_6  and  C_27
REMARK    3  A    between atoms: N_7  and  C_10
REMARK    4  A    between atoms: N_7  and  C_15
REMARK    5  A    between atoms: N_9  and  C_19
REMARK    6  A    between atoms: N_9  and  C_25
REMARK    7  A    between atoms: N_9  and  C_26
REMARK    8  A    between atoms: C_10  and  C_13
REMARK    9  A    between atoms: C_13  and  C_14
REMARK   10  A    between atoms: C_15  and  C_17
REMARK   11  A    between atoms: C_18  and  C_19
REMARK                            x       y       z     vdW  Elec       q    Type
REMARK                         _______ _______ _______ _____ _____    ______ ____
ROOT
ATOM      7  N   UNL     1      -7.621  -9.485  10.954  0.00  0.00    -0.302 NA
ATOM     28  H   UNL     1      -7.713  -9.148  11.911  0.00  0.00    +0.123 HD
ENDROOT
BRANCH   7  10
ATOM      4  O   UNL     1      -8.814  -8.588   8.321  0.00  0.00    -0.376 OA
ATOM     10  C   UNL     1      -8.870  -9.577  10.213  0.00  0.00    +0.072 C 
ATOM     11  C   UNL     1      -8.558  -9.940   8.765  0.00  0.00    +0.184 C 
ATOM     12  C   UNL     1      -9.215  -8.200   9.655  0.00  0.00    +0.184 C 
BRANCH  10  13
ATOM     13  C   UNL     1      -9.951 -10.370  10.959  0.00  0.00    +0.085 C 
BRANCH  13  14
ATOM      5  O   UNL     1     -10.437  -8.823  14.142  0.00  0.00    -0.358 OA
ATOM      8  N   UNL     1     -10.574  -8.859  12.759  0.00  0.00    -0.083 NA
ATOM     14  C   UNL     1      -9.991 -10.001  12.385  0.00  0.00    +0.086 A 
ATOM     16  C   UNL     1      -9.473 -10.720  13.475  0.00  0.00    +0.072 A 
ATOM     18  C   UNL     1      -9.780  -9.936  14.556  0.00  0.00    +0.151 A 
BRANCH  18  19
ATOM     19  C   UNL     1      -9.543 -10.064  16.037  0.00  0.00    +0.161 C 
BRANCH  19   9
ATOM      9  N   UNL     1      -8.873  -8.884  16.586  0.00  0.00    -0.301 NA
ATOM     25  C   UNL     1      -9.781  -8.141  17.459  0.00  0.00    +0.105 C 
ATOM     26  C   UNL     1      -7.667  -9.275  17.315  0.00  0.00    +0.105 C 
ENDBRANCH  19   9
ENDBRANCH  18  19
ENDBRANCH  13  14
ENDBRANCH  10  13
ENDBRANCH   7  10
BRANCH   7  15
ATOM     15  C   UNL     1      -6.948 -10.781  10.953  0.00  0.00    +0.117 C 
BRANCH  15  17
ATOM     17  C   UNL     1      -5.464 -10.644  11.166  0.00  0.00    -0.033 A 
ATOM     20  C   UNL     1      -4.957 -10.467  12.453  0.00  0.00    +0.008 A 
ATOM     21  C   UNL     1      -4.596 -10.694  10.075  0.00  0.00    +0.008 A 
ATOM     22  C   UNL     1      -3.582 -10.339  12.650  0.00  0.00    +0.046 A 
ATOM     23  C   UNL     1      -3.220 -10.567  10.272  0.00  0.00    +0.046 A 
ATOM     24  C   UNL     1      -2.714 -10.389  11.560  0.00  0.00    +0.130 A 
BRANCH  24   6
ATOM      6  O   UNL     1      -1.373 -10.265  11.752  0.00  0.00    -0.406 OA
BRANCH   6  27
ATOM      1  F   UNL     1       0.333  -9.302  10.631  0.00  0.00    -0.133 F 
ATOM      2  F   UNL     1      -1.588  -8.263  10.667  0.00  0.00    -0.133 F 
ATOM      3  F   UNL     1      -0.336  -8.362  12.486  0.00  0.00    -0.133 F 
ATOM     27  C   UNL     1      -0.751  -9.035  11.393  0.00  0.00    +0.575 C 
ENDBRANCH   6  27
ENDBRANCH  24   6
ENDBRANCH  15  17
ENDBRANCH   7  15
TORSDOF 9
ENDMDL
MODEL 7
REMARK VINA RESULT:      -3.8      3.434      6.946
REMARK  Name = 56775429
REMARK  11 active torsions:
REMARK  status: ('A' for Active; 'I' for Inactive)
REMARK    1  A    between atoms: O_6  and  C_24
REMARK    2  A    between atoms: O_6  and  C_27
REMARK    3  A    between atoms: N_7  and  C_10
REMARK    4  A    between atoms: N_7  and  C_15
REMARK    5  A    between atoms: N_9  and  C_19
REMARK    6  A    between atoms: N_9  and  C_25
REMARK    7  A    between atoms: N_9  and  C_26
REMARK    8  A    between atoms: C_10  and  C_13
REMARK    9  A    between atoms: C_13  and  C_14
REMARK   10  A    between atoms: C_15  and  C_17
REMARK   11  A    between atoms: C_18  and  C_19
REMARK                            x       y       z     vdW  Elec       q    Type
REMARK                         _______ _______ _______ _____ _____    ______ ____
ROOT
ATOM      7  N   UNL     1      -1.476  -1.896  23.947  0.00  0.00    -0.302 NA
ATOM     28  H   UNL     1      -1.240  -1.344  23.123  0.00  0.00    +0.123 HD
ENDROOT
BRANCH   7  10
ATOM      4  O   UNL     1      -3.352  -3.227  25.913  0.00  0.00    -0.376 OA
ATOM     10  C   UNL     1      -2.897  -1.957  24.258  0.00  0.00    +0.072 C 
ATOM     11  C   UNL     1      -3.076  -1.816  25.766  0.00  0.00    +0.184 C 
ATOM     12  C   UNL     1      -3.290  -3.413  24.481  0.00  0.00    +0.184 C 
BRANCH  10  13
ATOM     13  C   UNL     1      -3.752  -1.089  23.325  0.00  0.00    +0.085 C 
BRANCH  13  14
ATOM      5  O   UNL     1      -3.542   2.455  23.719  0.00  0.00    -0.358 OA
ATOM      8  N   UNL     1      -3.367   1.288  22.985  0.00  0.00    -0.083 NA
ATOM     14  C   UNL     1      -3.792   0.309  23.788  0.00  0.00    +0.086 A 
ATOM     16  C   UNL     1      -4.241   0.791  25.029  0.00  0.00    +0.072 A 
ATOM     18  C   UNL     1      -4.062   2.147  24.934  0.00  0.00    +0.151 A 
BRANCH  18  19
ATOM     19  C   UNL     1      -4.319   3.300  25.867  0.00  0.00    +0.161 C 
BRANCH  19   9
ATOM      9  N   UNL     1      -5.749   3.503  26.101  0.00  0.00    -0.301 NA
ATOM     25  C   UNL     1      -6.186   4.772  25.521  0.00  0.00    +0.105 C 
ATOM     26  C   UNL     1      -6.520   2.393  25.543  0.00  0.00    +0.105 C 
ENDBRANCH  19   9
ENDBRANCH  18  19
ENDBRANCH  13  14
ENDBRANCH  10  13
ENDBRANCH   7  10
BRANCH   7  15
ATOM     15  C   UNL     1      -0.738  -1.391  25.101  0.00  0.00    +0.117 C 
BRANCH  15  17
ATOM     17  C   UNL     1      -0.572   0.105  25.052  0.00  0.00    -0.033 A 
ATOM     20  C   UNL     1      -0.820   0.873  26.189  0.00  0.00    +0.008 A 
ATOM     21  C   UNL     1      -0.169   0.722  23.867  0.00  0.00    +0.008 A 
ATOM     22  C   UNL     1      -0.667   2.258  26.142  0.00  0.00    +0.046 A 
ATOM     23  C   UNL     1      -0.016   2.108  23.821  0.00  0.00    +0.046 A 
ATOM     24  C   UNL     1      -0.265   2.876  24.958  0.00  0.00    +0.130 A 
BRANCH  24   6
ATOM      6  O   UNL     1      -0.115   4.228  24.913  0.00  0.00    -0.406 OA
BRANCH   6  27
ATOM      1  F   UNL     1      -0.918   6.337  24.901  0.00  0.00    -0.133 F 
ATOM      2  F   UNL     1      -2.128   4.771  23.974  0.00  0.00    -0.133 F 
ATOM      3  F   UNL     1      -1.915   4.866  26.172  0.00  0.00    -0.133 F 
ATOM     27  C   UNL     1      -1.283   5.038  24.992  0.00  0.00    +0.575 C 
ENDBRANCH   6  27
ENDBRANCH  24   6
ENDBRANCH  15  17
ENDBRANCH   7  15
TORSDOF 9
ENDMDL
MODEL 8
REMARK VINA RESULT:      -3.6      2.871      5.482
REMARK  Name = 56775429
REMARK  11 active torsions:
REMARK  status: ('A' for Active; 'I' for Inactive)
REMARK    1  A    between atoms: O_6  and  C_24
REMARK    2  A    between atoms: O_6  and  C_27
REMARK    3  A    between atoms: N_7  and  C_10
REMARK    4  A    between atoms: N_7  and  C_15
REMARK    5  A    between atoms: N_9  and  C_19
REMARK    6  A    between atoms: N_9  and  C_25
REMARK    7  A    between atoms: N_9  and  C_26
REMARK    8  A    between atoms: C_10  and  C_13
REMARK    9  A    between atoms: C_13  and  C_14
REMARK   10  A    between atoms: C_15  and  C_17
REMARK   11  A    between atoms: C_18  and  C_19
REMARK                            x       y       z     vdW  Elec       q    Type
REMARK                         _______ _______ _______ _____ _____    ______ ____
ROOT
ATOM      7  N   UNL     1       0.344   0.818  22.981  0.00  0.00    -0.302 NA
ATOM     28  H   UNL     1      -0.557   0.353  23.085  0.00  0.00    +0.123 HD
ENDROOT
BRANCH   7  10
ATOM      4  O   UNL     1       3.083   0.459  21.744  0.00  0.00    -0.376 OA
ATOM     10  C   UNL     1       1.502  -0.058  23.083  0.00  0.00    +0.072 C 
ATOM     11  C   UNL     1       2.765   0.796  23.113  0.00  0.00    +0.184 C 
ATOM     12  C   UNL     1       1.955  -0.442  21.678  0.00  0.00    +0.184 C 
BRANCH  10  13
ATOM     13  C   UNL     1       1.327  -1.161  24.136  0.00  0.00    +0.085 C 
BRANCH  13  14
ATOM      5  O   UNL     1      -1.792  -0.717  25.818  0.00  0.00    -0.358 OA
ATOM      8  N   UNL     1      -0.451  -0.414  25.616  0.00  0.00    -0.083 NA
ATOM     14  C   UNL     1      -0.063  -1.216  24.621  0.00  0.00    +0.086 A 
ATOM     16  C   UNL     1      -1.103  -2.039  24.160  0.00  0.00    +0.072 A 
ATOM     18  C   UNL     1      -2.169  -1.686  24.946  0.00  0.00    +0.151 A 
BRANCH  18  19
ATOM     19  C   UNL     1      -3.602  -2.140  25.023  0.00  0.00    +0.161 C 
BRANCH  19   9
ATOM      9  N   UNL     1      -4.516  -1.166  24.425  0.00  0.00    -0.301 NA
ATOM     25  C   UNL     1      -4.649   0.007  25.288  0.00  0.00    +0.105 C 
ATOM     26  C   UNL     1      -4.044  -0.773  23.098  0.00  0.00    +0.105 C 
ENDBRANCH  19   9
ENDBRANCH  18  19
ENDBRANCH  13  14
ENDBRANCH  10  13
ENDBRANCH   7  10
BRANCH   7  15
ATOM     15  C   UNL     1       0.454   1.898  23.957  0.00  0.00    +0.117 C 
BRANCH  15  17
ATOM     17  C   UNL     1      -0.871   2.568  24.204  0.00  0.00    -0.033 A 
ATOM     20  C   UNL     1      -1.994   2.186  23.470  0.00  0.00    +0.008 A 
ATOM     21  C   UNL     1      -0.976   3.572  25.168  0.00  0.00    +0.008 A 
ATOM     22  C   UNL     1      -3.221   2.808  23.699  0.00  0.00    +0.046 A 
ATOM     23  C   UNL     1      -2.204   4.193  25.397  0.00  0.00    +0.046 A 
ATOM     24  C   UNL     1      -3.327   3.811  24.662  0.00  0.00    +0.130 A 
BRANCH  24   6
ATOM      6  O   UNL     1      -4.525   4.417  24.885  0.00  0.00    -0.406 OA
BRANCH   6  27
ATOM      1  F   UNL     1      -6.575   4.493  25.824  0.00  0.00    -0.133 F 
ATOM      2  F   UNL     1      -6.034   2.711  24.681  0.00  0.00    -0.133 F 
ATOM      3  F   UNL     1      -5.117   3.094  26.655  0.00  0.00    -0.133 F 
ATOM     27  C   UNL     1      -5.556   3.661  25.512  0.00  0.00    +0.575 C 
ENDBRANCH   6  27
ENDBRANCH  24   6
ENDBRANCH  15  17
ENDBRANCH   7  15
TORSDOF 9
ENDMDL
MODEL 9
REMARK VINA RESULT:      -3.4      3.175      5.309
REMARK  Name = 56775429
REMARK  11 active torsions:
REMARK  status: ('A' for Active; 'I' for Inactive)
REMARK    1  A    between atoms: O_6  and  C_24
REMARK    2  A    between atoms: O_6  and  C_27
REMARK    3  A    between atoms: N_7  and  C_10
REMARK    4  A    between atoms: N_7  and  C_15
REMARK    5  A    between atoms: N_9  and  C_19
REMARK    6  A    between atoms: N_9  and  C_25
REMARK    7  A    between atoms: N_9  and  C_26
REMARK    8  A    between atoms: C_10  and  C_13
REMARK    9  A    between atoms: C_13  and  C_14
REMARK   10  A    between atoms: C_15  and  C_17
REMARK   11  A    between atoms: C_18  and  C_19
REMARK                            x       y       z     vdW  Elec       q    Type
REMARK                         _______ _______ _______ _____ _____    ______ ____
ROOT
ATOM      7  N   UNL     1      -2.668   2.814  26.166  0.00  0.00    -0.302 NA
ATOM     28  H   UNL     1      -3.002   1.878  25.943  0.00  0.00    +0.123 HD
ENDROOT
BRANCH   7  10
ATOM      4  O   UNL     1      -2.420   5.803  25.755  0.00  0.00    -0.376 OA
ATOM     10  C   UNL     1      -2.931   3.820  25.148  0.00  0.00    +0.072 C 
ATOM     11  C   UNL     1      -1.726   4.749  25.050  0.00  0.00    +0.184 C 
ATOM     12  C   UNL     1      -3.628   5.010  25.799  0.00  0.00    +0.184 C 
BRANCH  10  13
ATOM     13  C   UNL     1      -3.517   3.227  23.859  0.00  0.00    +0.085 C 
BRANCH  13  14
ATOM      5  O   UNL     1      -5.213   0.238  24.833  0.00  0.00    -0.358 OA
ATOM      8  N   UNL     1      -5.051   1.619  24.845  0.00  0.00    -0.083 NA
ATOM     14  C   UNL     1      -3.984   1.847  24.074  0.00  0.00    +0.086 A 
ATOM     16  C   UNL     1      -3.436   0.663  23.554  0.00  0.00    +0.072 A 
ATOM     18  C   UNL     1      -4.246  -0.320  24.062  0.00  0.00    +0.151 A 
BRANCH  18  19
ATOM     19  C   UNL     1      -4.270  -1.820  23.934  0.00  0.00    +0.161 C 
BRANCH  19   9
ATOM      9  N   UNL     1      -3.411  -2.464  24.928  0.00  0.00    -0.301 NA
ATOM     25  C   UNL     1      -2.092  -2.740  24.361  0.00  0.00    +0.105 C 
ATOM     26  C   UNL     1      -3.291  -1.625  26.120  0.00  0.00    +0.105 C 
ENDBRANCH  19   9
ENDBRANCH  18  19
ENDBRANCH  13  14
ENDBRANCH  10  13
ENDBRANCH   7  10
BRANCH   7  15
ATOM     15  C   UNL     1      -1.237   2.767  26.457  0.00  0.00    +0.117 C 
BRANCH  15  17
ATOM     17  C   UNL     1      -0.480   1.982  25.419  0.00  0.00    -0.033 A 
ATOM     20  C   UNL     1      -0.635   0.598  25.341  0.00  0.00    +0.008 A 
ATOM     21  C   UNL     1       0.377   2.639  24.536  0.00  0.00    +0.008 A 
ATOM     22  C   UNL     1       0.067  -0.129  24.380  0.00  0.00    +0.046 A 
ATOM     23  C   UNL     1       1.080   1.911  23.574  0.00  0.00    +0.046 A 
ATOM     24  C   UNL     1       0.925   0.527  23.497  0.00  0.00    +0.130 A 
BRANCH  24   6
ATOM      6  O   UNL     1       1.609  -0.182  22.560  0.00  0.00    -0.406 OA
BRANCH   6  27
ATOM      1  F   UNL     1       3.321   1.200  23.064  0.00  0.00    -0.133 F 
ATOM      2  F   UNL     1       3.720  -0.947  22.997  0.00  0.00    -0.133 F 
ATOM      3  F   UNL     1       3.359   0.182  21.132  0.00  0.00    -0.133 F 
ATOM     27  C   UNL     1       3.008   0.049  22.428  0.00  0.00    +0.575 C 
ENDBRANCH   6  27
ENDBRANCH  24   6
ENDBRANCH  15  17
ENDBRANCH   7  15
TORSDOF 9
ENDMDL
MODEL 10
REMARK VINA RESULT:      -2.8      2.563      5.209
REMARK  Name = 56775429
REMARK  11 active torsions:
REMARK  status: ('A' for Active; 'I' for Inactive)
REMARK    1  A    between atoms: O_6  and  C_24
REMARK    2  A    between atoms: O_6  and  C_27
REMARK    3  A    between atoms: N_7  and  C_10
REMARK    4  A    between atoms: N_7  and  C_15
REMARK    5  A    between atoms: N_9  and  C_19
REMARK    6  A    between atoms: N_9  and  C_25
REMARK    7  A    between atoms: N_9  and  C_26
REMARK    8  A    between atoms: C_10  and  C_13
REMARK    9  A    between atoms: C_13  and  C_14
REMARK   10  A    between atoms: C_15  and  C_17
REMARK   11  A    between atoms: C_18  and  C_19
REMARK                            x       y       z     vdW  Elec       q    Type
REMARK                         _______ _______ _______ _____ _____    ______ ____
ROOT
ATOM      7  N   UNL     1       0.632  -0.471  24.386  0.00  0.00    -0.302 NA
ATOM     28  H   UNL     1       0.314   0.069  25.190  0.00  0.00    +0.123 HD
ENDROOT
BRANCH   7  10
ATOM      4  O   UNL     1       1.626  -0.827  21.550  0.00  0.00    -0.376 OA
ATOM     10  C   UNL     1       1.195   0.318  23.300  0.00  0.00    +0.072 C 
ATOM     11  C   UNL     1       0.489  -0.057  22.002  0.00  0.00    +0.184 C 
ATOM     12  C   UNL     1       2.387  -0.432  22.714  0.00  0.00    +0.184 C 
BRANCH  10  13
ATOM     13  C   UNL     1       1.352   1.802  23.658  0.00  0.00    +0.085 C 
BRANCH  13  14
ATOM      5  O   UNL     1      -0.610   2.603  26.533  0.00  0.00    -0.358 OA
ATOM      8  N   UNL     1       0.545   2.120  25.929  0.00  0.00    -0.083 NA
ATOM     14  C   UNL     1       0.319   2.229  24.617  0.00  0.00    +0.086 A 
ATOM     16  C   UNL     1      -0.947   2.768  24.335  0.00  0.00    +0.072 A 
ATOM     18  C   UNL     1      -1.490   2.986  25.574  0.00  0.00    +0.151 A 
BRANCH  18  19
ATOM     19  C   UNL     1      -2.806   3.540  26.052  0.00  0.00    +0.161 C 
BRANCH  19   9
ATOM      9  N   UNL     1      -3.103   4.838  25.445  0.00  0.00    -0.301 NA
ATOM     25  C   UNL     1      -1.871   5.595  25.228  0.00  0.00    +0.105 C 
ATOM     26  C   UNL     1      -3.822   4.657  24.184  0.00  0.00    +0.105 C 
ENDBRANCH  19   9
ENDBRANCH  18  19
ENDBRANCH  13  14
ENDBRANCH  10  13
ENDBRANCH   7  10
BRANCH   7  15
ATOM     15  C   UNL     1      -0.466  -1.292  23.883  0.00  0.00    +0.117 C 
BRANCH  15  17
ATOM     17  C   UNL     1      -1.805  -0.789  24.355  0.00  0.00    -0.033 A 
ATOM     20  C   UNL     1      -2.617  -0.052  23.493  0.00  0.00    +0.008 A 
ATOM     21  C   UNL     1      -2.232  -1.060  25.655  0.00  0.00    +0.008 A 
ATOM     22  C   UNL     1      -3.856   0.414  23.931  0.00  0.00    +0.046 A 
ATOM     23  C   UNL     1      -3.473  -0.594  26.092  0.00  0.00    +0.046 A 
ATOM     24  C   UNL     1      -4.284   0.143  25.230  0.00  0.00    +0.130 A 
BRANCH  24   6
ATOM      6  O   UNL     1      -5.494   0.598  25.657  0.00  0.00    -0.406 OA
BRANCH   6  27
ATOM      1  F   UNL     1      -5.148   2.239  24.146  0.00  0.00    -0.133 F 
ATOM      2  F   UNL     1      -7.211   1.728  24.654  0.00  0.00    -0.133 F 
ATOM      3  F   UNL     1      -5.934   2.797  26.107  0.00  0.00    -0.133 F 
ATOM     27  C   UNL     1      -5.962   1.844  25.152  0.00  0.00    +0.575 C 
ENDBRANCH   6  27
ENDBRANCH  24   6
ENDBRANCH  15  17
ENDBRANCH   7  15
TORSDOF 9
ENDMDL
