MODEL 1
REMARK VINA RESULT:      -2.9      0.000      0.000
REMARK  Name = 75536995
REMARK  5 active torsions:
REMARK  status: ('A' for Active; 'I' for Inactive)
REMARK    1  A    between atoms: S_1  and  N_7
REMARK    2  A    between atoms: S_1  and  C_16
REMARK    3  A    between atoms: N_8  and  C_15
REMARK    4  A    between atoms: C_15  and  C_17
REMARK    5  A    between atoms: C_16  and  C_18
REMARK                            x       y       z     vdW  Elec       q    Type
REMARK                         _______ _______ _______ _____ _____    ______ ____
ROOT
ATOM      3  O   UNL     1       0.190  -2.132  24.500  0.00  0.00    -0.252 OA
ATOM      6  N   UNL     1      -1.151  -0.220  24.751  0.00  0.00    -0.278 N 
ATOM      7  N   UNL     1      -3.478   1.285  25.129  0.00  0.00    -0.178 NA
ATOM      8  N   UNL     1       0.393  -0.231  23.120  0.00  0.00    -0.279 N 
ATOM      9  C   UNL     1      -1.211   1.113  24.185  0.00  0.00    +0.111 C 
ATOM     10  C   UNL     1      -2.656   1.503  23.891  0.00  0.00    +0.133 C 
ATOM     11  C   UNL     1      -0.313   1.026  22.953  0.00  0.00    +0.133 C 
ATOM     12  C   UNL     1      -2.007  -0.563  25.871  0.00  0.00    +0.127 C 
ATOM     13  C   UNL     1      -3.445  -0.148  25.575  0.00  0.00    +0.128 C 
ATOM     14  C   UNL     1      -0.145  -1.003  24.169  0.00  0.00    +0.305 C 
ENDROOT
BRANCH   7   1
ATOM      1  S   UNL     1      -5.032   2.007  25.109  0.00  0.00    +0.036 S 
ATOM      4  O   UNL     1      -5.944   1.166  25.851  0.00  0.00    -0.158 OA
ATOM      5  O   UNL     1      -5.323   2.445  23.763  0.00  0.00    -0.158 OA
BRANCH   1  16
ATOM     16  C   UNL     1      -4.687   3.444  26.092  0.00  0.00    +0.220 C 
BRANCH  16  18
ATOM     18  C   UNL     1      -3.324   3.937  25.717  0.00  0.00    -0.025 A 
ATOM     21  C   UNL     1      -3.174   4.852  24.675  0.00  0.00    +0.005 A 
ATOM     22  C   UNL     1      -2.203   3.481  26.410  0.00  0.00    +0.005 A 
ATOM     25  C   UNL     1      -1.904   5.310  24.326  0.00  0.00    +0.000 A 
ATOM     26  C   UNL     1      -0.933   3.939  26.062  0.00  0.00    +0.000 A 
ATOM     28  C   UNL     1      -0.784   4.854  25.019  0.00  0.00    +0.000 A 
ENDBRANCH  16  18
ENDBRANCH   1  16
ENDBRANCH   7   1
BRANCH   8  15
ATOM     15  C   UNL     1       1.433  -0.653  22.208  0.00  0.00    +0.144 C 
BRANCH  15  17
ATOM      2  F   UNL     1       6.577   0.330  24.276  0.00  0.00    -0.205 F 
ATOM     17  C   UNL     1       2.805  -0.391  22.759  0.00  0.00    -0.030 A 
ATOM     19  C   UNL     1       3.408   0.851  22.565  0.00  0.00    +0.008 A 
ATOM     20  C   UNL     1       3.476  -1.390  23.465  0.00  0.00    +0.008 A 
ATOM     23  C   UNL     1       4.683   1.095  23.077  0.00  0.00    +0.038 A 
ATOM     24  C   UNL     1       4.749  -1.146  23.977  0.00  0.00    +0.038 A 
ATOM     27  C   UNL     1       5.353   0.096  23.783  0.00  0.00    +0.123 A 
ENDBRANCH  15  17
ENDBRANCH   8  15
TORSDOF 5
ENDMDL
MODEL 2
REMARK VINA RESULT:      -0.3      2.013      2.948
REMARK  Name = 75536995
REMARK  5 active torsions:
REMARK  status: ('A' for Active; 'I' for Inactive)
REMARK    1  A    between atoms: S_1  and  N_7
REMARK    2  A    between atoms: S_1  and  C_16
REMARK    3  A    between atoms: N_8  and  C_15
REMARK    4  A    between atoms: C_15  and  C_17
REMARK    5  A    between atoms: C_16  and  C_18
REMARK                            x       y       z     vdW  Elec       q    Type
REMARK                         _______ _______ _______ _____ _____    ______ ____
ROOT
ATOM      3  O   UNL     1      -0.476  -1.490  23.984  0.00  0.00    -0.252 OA
ATOM      6  N   UNL     1      -0.604   0.698  24.829  0.00  0.00    -0.278 N 
ATOM      7  N   UNL     1      -1.770   3.131  25.562  0.00  0.00    -0.178 NA
ATOM      8  N   UNL     1       1.084   0.191  23.437  0.00  0.00    -0.279 N 
ATOM      9  C   UNL     1       0.216   1.894  24.800  0.00  0.00    +0.111 C 
ATOM     10  C   UNL     1      -0.649   3.127  24.564  0.00  0.00    +0.133 C 
ATOM     11  C   UNL     1       1.234   1.611  23.698  0.00  0.00    +0.133 C 
ATOM     12  C   UNL     1      -1.785   0.658  25.669  0.00  0.00    +0.127 C 
ATOM     13  C   UNL     1      -2.630   1.907  25.441  0.00  0.00    +0.128 C 
ATOM     14  C   UNL     1      -0.051  -0.346  24.075  0.00  0.00    +0.305 C 
ENDROOT
BRANCH   7   1
ATOM      1  S   UNL     1      -2.623   4.612  25.696  0.00  0.00    +0.036 S 
ATOM      4  O   UNL     1      -1.733   5.693  25.338  0.00  0.00    -0.158 OA
ATOM      5  O   UNL     1      -3.360   4.612  26.939  0.00  0.00    -0.158 OA
BRANCH   1  16
ATOM     16  C   UNL     1      -3.781   4.391  24.369  0.00  0.00    +0.220 C 
BRANCH  16  18
ATOM     18  C   UNL     1      -4.703   3.275  24.750  0.00  0.00    -0.025 A 
ATOM     21  C   UNL     1      -4.743   2.110  23.985  0.00  0.00    +0.005 A 
ATOM     22  C   UNL     1      -5.523   3.401  25.871  0.00  0.00    +0.005 A 
ATOM     25  C   UNL     1      -5.603   1.070  24.341  0.00  0.00    +0.000 A 
ATOM     26  C   UNL     1      -6.383   2.363  26.228  0.00  0.00    +0.000 A 
ATOM     28  C   UNL     1      -6.422   1.197  25.462  0.00  0.00    +0.000 A 
ENDBRANCH  16  18
ENDBRANCH   1  16
ENDBRANCH   7   1
BRANCH   8  15
ATOM     15  C   UNL     1       1.948  -0.515  22.515  0.00  0.00    +0.144 C 
BRANCH  15  17
ATOM      2  F   UNL     1       7.355  -0.225  24.056  0.00  0.00    -0.205 F 
ATOM     17  C   UNL     1       3.390  -0.438  22.926  0.00  0.00    -0.030 A 
ATOM     19  C   UNL     1       4.151   0.681  22.589  0.00  0.00    +0.008 A 
ATOM     20  C   UNL     1       3.967  -1.484  23.645  0.00  0.00    +0.008 A 
ATOM     23  C   UNL     1       5.492   0.752  22.970  0.00  0.00    +0.038 A 
ATOM     24  C   UNL     1       5.306  -1.412  24.027  0.00  0.00    +0.038 A 
ATOM     27  C   UNL     1       6.069  -0.294  23.689  0.00  0.00    +0.123 A 
ENDBRANCH  15  17
ENDBRANCH   8  15
TORSDOF 5
ENDMDL
MODEL 3
REMARK VINA RESULT:      -0.3      1.654      2.401
REMARK  Name = 75536995
REMARK  5 active torsions:
REMARK  status: ('A' for Active; 'I' for Inactive)
REMARK    1  A    between atoms: S_1  and  N_7
REMARK    2  A    between atoms: S_1  and  C_16
REMARK    3  A    between atoms: N_8  and  C_15
REMARK    4  A    between atoms: C_15  and  C_17
REMARK    5  A    between atoms: C_16  and  C_18
REMARK                            x       y       z     vdW  Elec       q    Type
REMARK                         _______ _______ _______ _____ _____    ______ ____
ROOT
ATOM      3  O   UNL     1      -1.624  -3.206  23.596  0.00  0.00    -0.252 OA
ATOM      6  N   UNL     1      -2.763  -1.513  24.760  0.00  0.00    -0.278 N 
ATOM      7  N   UNL     1      -4.494   0.646  25.161  0.00  0.00    -0.178 NA
ATOM      8  N   UNL     1      -0.566  -1.781  25.148  0.00  0.00    -0.279 N 
ATOM      9  C   UNL     1      -2.465  -0.578  25.828  0.00  0.00    +0.111 C 
ATOM     10  C   UNL     1      -3.041   0.798  25.506  0.00  0.00    +0.133 C 
ATOM     11  C   UNL     1      -0.943  -0.620  25.935  0.00  0.00    +0.133 C 
ATOM     12  C   UNL     1      -4.122  -1.634  24.270  0.00  0.00    +0.127 C 
ATOM     13  C   UNL     1      -4.695  -0.251  23.974  0.00  0.00    +0.128 C 
ATOM     14  C   UNL     1      -1.650  -2.286  24.402  0.00  0.00    +0.305 C 
ENDROOT
BRANCH   7   1
ATOM      1  S   UNL     1      -5.394   2.105  25.133  0.00  0.00    +0.036 S 
ATOM      4  O   UNL     1      -5.064   2.875  26.311  0.00  0.00    -0.158 OA
ATOM      5  O   UNL     1      -6.762   1.799  24.781  0.00  0.00    -0.158 OA
BRANCH   1  16
ATOM     16  C   UNL     1      -4.626   2.882  23.735  0.00  0.00    +0.220 C 
BRANCH  16  18
ATOM     18  C   UNL     1      -3.249   3.303  24.146  0.00  0.00    -0.025 A 
ATOM     21  C   UNL     1      -2.134   2.643  23.630  0.00  0.00    +0.005 A 
ATOM     22  C   UNL     1      -3.082   4.355  25.045  0.00  0.00    +0.005 A 
ATOM     25  C   UNL     1      -0.851   3.035  24.014  0.00  0.00    +0.000 A 
ATOM     26  C   UNL     1      -1.800   4.749  25.429  0.00  0.00    +0.000 A 
ATOM     28  C   UNL     1      -0.685   4.088  24.912  0.00  0.00    +0.000 A 
ENDBRANCH  16  18
ENDBRANCH   1  16
ENDBRANCH   7   1
BRANCH   8  15
ATOM     15  C   UNL     1       0.802  -2.244  25.071  0.00  0.00    +0.144 C 
BRANCH  15  17
ATOM      2  F   UNL     1       3.930   0.982  21.679  0.00  0.00    -0.205 F 
ATOM     17  C   UNL     1       1.636  -1.383  24.167  0.00  0.00    -0.030 A 
ATOM     19  C   UNL     1       3.016  -1.575  24.101  0.00  0.00    +0.008 A 
ATOM     20  C   UNL     1       1.031  -0.393  23.392  0.00  0.00    +0.008 A 
ATOM     23  C   UNL     1       3.791  -0.775  23.261  0.00  0.00    +0.038 A 
ATOM     24  C   UNL     1       1.806   0.405  22.552  0.00  0.00    +0.038 A 
ATOM     27  C   UNL     1       3.186   0.215  22.487  0.00  0.00    +0.123 A 
ENDBRANCH  15  17
ENDBRANCH   8  15
TORSDOF 5
ENDMDL
MODEL 4
REMARK VINA RESULT:       0.4      2.184      2.926
REMARK  Name = 75536995
REMARK  5 active torsions:
REMARK  status: ('A' for Active; 'I' for Inactive)
REMARK    1  A    between atoms: S_1  and  N_7
REMARK    2  A    between atoms: S_1  and  C_16
REMARK    3  A    between atoms: N_8  and  C_15
REMARK    4  A    between atoms: C_15  and  C_17
REMARK    5  A    between atoms: C_16  and  C_18
REMARK                            x       y       z     vdW  Elec       q    Type
REMARK                         _______ _______ _______ _____ _____    ______ ____
ROOT
ATOM      3  O   UNL     1       1.992   1.986  24.068  0.00  0.00    -0.252 OA
ATOM      6  N   UNL     1      -0.099   0.930  23.890  0.00  0.00    -0.278 N 
ATOM      7  N   UNL     1      -2.434  -0.359  24.731  0.00  0.00    -0.178 NA
ATOM      8  N   UNL     1       1.520   0.336  22.451  0.00  0.00    -0.279 N 
ATOM      9  C   UNL     1      -0.744   0.005  22.979  0.00  0.00    +0.111 C 
ATOM     10  C   UNL     1      -1.525  -1.050  23.755  0.00  0.00    +0.133 C 
ATOM     11  C   UNL     1       0.409  -0.546  22.143  0.00  0.00    +0.133 C 
ATOM     12  C   UNL     1      -0.871   1.549  24.950  0.00  0.00    +0.127 C 
ATOM     13  C   UNL     1      -1.666   0.488  25.704  0.00  0.00    +0.128 C 
ATOM     14  C   UNL     1       1.232   1.188  23.536  0.00  0.00    +0.305 C 
ENDROOT
BRANCH   7   1
ATOM      1  S   UNL     1      -3.648  -1.349  25.425  0.00  0.00    +0.036 S 
ATOM      4  O   UNL     1      -3.712  -1.079  26.844  0.00  0.00    -0.158 OA
ATOM      5  O   UNL     1      -3.501  -2.692  24.911  0.00  0.00    -0.158 OA
BRANCH   1  16
ATOM     16  C   UNL     1      -5.075  -0.621  24.662  0.00  0.00    +0.220 C 
BRANCH  16  18
ATOM     18  C   UNL     1      -4.940   0.866  24.768  0.00  0.00    -0.025 A 
ATOM     21  C   UNL     1      -4.198   1.569  23.820  0.00  0.00    +0.005 A 
ATOM     22  C   UNL     1      -5.557   1.549  25.816  0.00  0.00    +0.005 A 
ATOM     25  C   UNL     1      -4.072   2.955  23.919  0.00  0.00    +0.000 A 
ATOM     26  C   UNL     1      -5.433   2.934  25.915  0.00  0.00    +0.000 A 
ATOM     28  C   UNL     1      -4.690   3.637  24.966  0.00  0.00    +0.000 A 
ENDBRANCH  16  18
ENDBRANCH   1  16
ENDBRANCH   7   1
BRANCH   8  15
ATOM     15  C   UNL     1       2.797   0.223  21.780  0.00  0.00    +0.144 C 
BRANCH  15  17
ATOM      2  F   UNL     1       6.930  -1.172  25.340  0.00  0.00    -0.205 F 
ATOM     17  C   UNL     1       3.899  -0.149  22.730  0.00  0.00    -0.030 A 
ATOM     19  C   UNL     1       4.895   0.777  23.037  0.00  0.00    +0.008 A 
ATOM     20  C   UNL     1       3.926  -1.420  23.303  0.00  0.00    +0.008 A 
ATOM     23  C   UNL     1       5.920   0.431  23.919  0.00  0.00    +0.038 A 
ATOM     24  C   UNL     1       4.949  -1.765  24.185  0.00  0.00    +0.038 A 
ATOM     27  C   UNL     1       5.947  -0.840  24.493  0.00  0.00    +0.123 A 
ENDBRANCH  15  17
ENDBRANCH   8  15
TORSDOF 5
ENDMDL
MODEL 5
REMARK VINA RESULT:       0.4      1.581      3.351
REMARK  Name = 75536995
REMARK  5 active torsions:
REMARK  status: ('A' for Active; 'I' for Inactive)
REMARK    1  A    between atoms: S_1  and  N_7
REMARK    2  A    between atoms: S_1  and  C_16
REMARK    3  A    between atoms: N_8  and  C_15
REMARK    4  A    between atoms: C_15  and  C_17
REMARK    5  A    between atoms: C_16  and  C_18
REMARK                            x       y       z     vdW  Elec       q    Type
REMARK                         _______ _______ _______ _____ _____    ______ ____
ROOT
ATOM      3  O   UNL     1       1.725   1.265  24.566  0.00  0.00    -0.252 OA
ATOM      6  N   UNL     1      -0.496   1.870  24.094  0.00  0.00    -0.278 N 
ATOM      7  N   UNL     1      -3.195   2.413  24.581  0.00  0.00    -0.178 NA
ATOM      8  N   UNL     1       0.530   0.423  22.715  0.00  0.00    -0.279 N 
ATOM      9  C   UNL     1      -1.448   1.650  23.023  0.00  0.00    +0.111 C 
ATOM     10  C   UNL     1      -2.829   1.342  23.594  0.00  0.00    +0.133 C 
ATOM     11  C   UNL     1      -0.828   0.514  22.212  0.00  0.00    +0.133 C 
ATOM     12  C   UNL     1      -0.819   2.793  25.164  0.00  0.00    +0.127 C 
ATOM     13  C   UNL     1      -2.210   2.490  25.711  0.00  0.00    +0.128 C 
ATOM     14  C   UNL     1       0.716   1.198  23.878  0.00  0.00    +0.305 C 
ENDROOT
BRANCH   7   1
ATOM      1  S   UNL     1      -4.844   2.444  25.046  0.00  0.00    +0.036 S 
ATOM      4  O   UNL     1      -5.651   2.033  23.919  0.00  0.00    -0.158 OA
ATOM      5  O   UNL     1      -5.102   3.674  25.759  0.00  0.00    -0.158 OA
BRANCH   1  16
ATOM     16  C   UNL     1      -4.829   1.117  26.224  0.00  0.00    +0.220 C 
BRANCH  16  18
ATOM     18  C   UNL     1      -4.324  -0.107  25.526  0.00  0.00    -0.025 A 
ATOM     21  C   UNL     1      -4.946  -0.554  24.360  0.00  0.00    +0.005 A 
ATOM     22  C   UNL     1      -3.229  -0.801  26.041  0.00  0.00    +0.005 A 
ATOM     25  C   UNL     1      -4.474  -1.695  23.710  0.00  0.00    +0.000 A 
ATOM     26  C   UNL     1      -2.756  -1.941  25.392  0.00  0.00    +0.000 A 
ATOM     28  C   UNL     1      -3.380  -2.388  24.226  0.00  0.00    +0.000 A 
ENDBRANCH  16  18
ENDBRANCH   1  16
ENDBRANCH   7   1
BRANCH   8  15
ATOM     15  C   UNL     1       1.504  -0.475  22.134  0.00  0.00    +0.144 C 
BRANCH  15  17
ATOM      2  F   UNL     1       6.646   0.311  24.289  0.00  0.00    -0.205 F 
ATOM     17  C   UNL     1       2.875  -0.266  22.709  0.00  0.00    -0.030 A 
ATOM     19  C   UNL     1       3.468  -1.266  23.478  0.00  0.00    +0.008 A 
ATOM     20  C   UNL     1       3.555   0.929  22.473  0.00  0.00    +0.008 A 
ATOM     23  C   UNL     1       4.742  -1.071  24.013  0.00  0.00    +0.038 A 
ATOM     24  C   UNL     1       4.828   1.124  23.007  0.00  0.00    +0.038 A 
ATOM     27  C   UNL     1       5.422   0.124  23.777  0.00  0.00    +0.123 A 
ENDBRANCH  15  17
ENDBRANCH   8  15
TORSDOF 5
ENDMDL
MODEL 6
REMARK VINA RESULT:       0.9      1.636      3.192
REMARK  Name = 75536995
REMARK  5 active torsions:
REMARK  status: ('A' for Active; 'I' for Inactive)
REMARK    1  A    between atoms: S_1  and  N_7
REMARK    2  A    between atoms: S_1  and  C_16
REMARK    3  A    between atoms: N_8  and  C_15
REMARK    4  A    between atoms: C_15  and  C_17
REMARK    5  A    between atoms: C_16  and  C_18
REMARK                            x       y       z     vdW  Elec       q    Type
REMARK                         _______ _______ _______ _____ _____    ______ ____
ROOT
ATOM      3  O   UNL     1       1.664   1.396  24.660  0.00  0.00    -0.252 OA
ATOM      6  N   UNL     1      -0.532   2.135  24.271  0.00  0.00    -0.278 N 
ATOM      7  N   UNL     1      -3.162   2.876  24.863  0.00  0.00    -0.178 NA
ATOM      8  N   UNL     1       0.328   0.579  22.898  0.00  0.00    -0.279 N 
ATOM      9  C   UNL     1      -1.548   1.946  23.254  0.00  0.00    +0.111 C 
ATOM     10  C   UNL     1      -2.916   1.751  23.899  0.00  0.00    +0.133 C 
ATOM     11  C   UNL     1      -1.045   0.746  22.456  0.00  0.00    +0.133 C 
ATOM     12  C   UNL     1      -0.741   3.112  25.322  0.00  0.00    +0.127 C 
ATOM     13  C   UNL     1      -2.121   2.921  25.944  0.00  0.00    +0.128 C 
ATOM     14  C   UNL     1       0.620   1.376  24.023  0.00  0.00    +0.305 C 
ENDROOT
BRANCH   7   1
ATOM      1  S   UNL     1      -4.781   3.033  25.403  0.00  0.00    +0.036 S 
ATOM      4  O   UNL     1      -5.313   4.286  24.915  0.00  0.00    -0.158 OA
ATOM      5  O   UNL     1      -4.842   2.673  26.801  0.00  0.00    -0.158 OA
BRANCH   1  16
ATOM     16  C   UNL     1      -5.520   1.720  24.464  0.00  0.00    +0.220 C 
BRANCH  16  18
ATOM     18  C   UNL     1      -4.771   0.461  24.773  0.00  0.00    -0.025 A 
ATOM     21  C   UNL     1      -4.516  -0.465  23.763  0.00  0.00    +0.005 A 
ATOM     22  C   UNL     1      -4.328   0.216  26.072  0.00  0.00    +0.005 A 
ATOM     25  C   UNL     1      -3.818  -1.639  24.052  0.00  0.00    +0.000 A 
ATOM     26  C   UNL     1      -3.630  -0.956  26.362  0.00  0.00    +0.000 A 
ATOM     28  C   UNL     1      -3.375  -1.883  25.351  0.00  0.00    +0.000 A 
ENDBRANCH  16  18
ENDBRANCH   1  16
ENDBRANCH   7   1
BRANCH   8  15
ATOM     15  C   UNL     1       1.210  -0.401  22.305  0.00  0.00    +0.144 C 
BRANCH  15  17
ATOM      2  F   UNL     1       6.539   0.261  23.998  0.00  0.00    -0.205 F 
ATOM     17  C   UNL     1       2.631  -0.225  22.756  0.00  0.00    -0.030 A 
ATOM     19  C   UNL     1       3.324   0.942  22.435  0.00  0.00    +0.008 A 
ATOM     20  C   UNL     1       3.258  -1.228  23.496  0.00  0.00    +0.008 A 
ATOM     23  C   UNL     1       4.644   1.106  22.854  0.00  0.00    +0.038 A 
ATOM     24  C   UNL     1       4.577  -1.063  23.915  0.00  0.00    +0.038 A 
ATOM     27  C   UNL     1       5.271   0.104  23.594  0.00  0.00    +0.123 A 
ENDBRANCH  15  17
ENDBRANCH   8  15
TORSDOF 5
ENDMDL
