MODEL 1
REMARK VINA RESULT:       3.3      0.000      0.000
REMARK  Name = 40777987
REMARK  9 active torsions:
REMARK  status: ('A' for Active; 'I' for Inactive)
REMARK    1  A    between atoms: O_2  and  C_11
REMARK    2  A    between atoms: O_3  and  C_12
REMARK    3  A    between atoms: N_7  and  C_21
REMARK    4  A    between atoms: N_8  and  C_15
REMARK    5  A    between atoms: N_9  and  C_28
REMARK    6  A    between atoms: C_10  and  C_14
REMARK    7  A    between atoms: C_13  and  C_15
REMARK    8  A    between atoms: C_14  and  C_16
REMARK    9  A    between atoms: C_33  and  C_34
REMARK                            x       y       z     vdW  Elec       q    Type
REMARK                         _______ _______ _______ _____ _____    ______ ____
ROOT
ATOM      1  O   UNL     1      -3.362   4.078  24.071  0.00  0.00    -0.366 OA
ATOM     10  C   UNL     1      -3.239   4.980  25.195  0.00  0.00    +0.159 C 
ATOM     11  C   UNL     1      -1.746   5.194  25.414  0.00  0.00    +0.175 C 
ATOM     12  C   UNL     1      -1.163   3.894  24.902  0.00  0.00    +0.176 C 
ATOM     13  C   UNL     1      -2.051   3.611  23.702  0.00  0.00    +0.167 C 
ENDROOT
BRANCH  11   2
ATOM      2  O   UNL     1      -1.329   6.282  24.589  0.00  0.00    -0.387 OA
ATOM     35  H   UNL     1      -0.951   6.962  25.173  0.00  0.00    +0.210 HD
ENDBRANCH  11   2
BRANCH  12   3
ATOM      3  O   UNL     1       0.198   3.995  24.541  0.00  0.00    -0.387 OA
ATOM     36  H   UNL     1       0.290   4.767  23.958  0.00  0.00    +0.210 HD
ENDBRANCH  12   3
BRANCH  10  14
ATOM     14  C   UNL     1      -3.930   4.334  26.388  0.00  0.00    +0.130 C 
BRANCH  14  16
ATOM      4  O   UNL     1      -6.154   3.738  25.808  0.00  0.00    -0.276 OA
ATOM      6  N   UNL     1      -4.544   2.073  25.613  0.00  0.00    -0.298 N 
ATOM      7  N   UNL     1      -3.707  -0.564  24.761  0.00  0.00    -0.327 N 
ATOM     16  C   UNL     1      -4.983   3.364  25.909  0.00  0.00    +0.218 C 
ATOM     17  C   UNL     1      -3.153   1.632  25.734  0.00  0.00    +0.126 C 
ATOM     18  C   UNL     1      -5.502   1.079  25.138  0.00  0.00    +0.126 C 
ATOM     19  C   UNL     1      -3.023   0.115  25.865  0.00  0.00    +0.124 C 
ATOM     20  C   UNL     1      -4.866   0.097  24.156  0.00  0.00    +0.124 C 
BRANCH   7  21
ATOM     21  C   UNL     1      -3.292  -1.818  24.320  0.00  0.00    +0.030 A 
ATOM     23  C   UNL     1      -4.232  -2.746  23.872  0.00  0.00    +0.023 A 
ATOM     24  C   UNL     1      -1.936  -2.146  24.328  0.00  0.00    +0.023 A 
ATOM     25  C   UNL     1      -3.816  -4.003  23.432  0.00  0.00    +0.002 A 
ATOM     26  C   UNL     1      -1.521  -3.403  23.889  0.00  0.00    +0.002 A 
ATOM     27  C   UNL     1      -2.460  -4.331  23.440  0.00  0.00    +0.000 A 
ENDBRANCH   7  21
ENDBRANCH  14  16
ENDBRANCH  10  14
BRANCH  13  15
ATOM     15  C   UNL     1      -2.117   2.140  23.334  0.00  0.00    +0.140 C 
BRANCH  15   8
ATOM      5  O   UNL     1       0.221   1.186  24.686  0.00  0.00    -0.253 OA
ATOM      8  N   UNL     1      -0.894   1.704  22.727  0.00  0.00    -0.297 N 
ATOM      9  N   UNL     1       1.259   0.890  22.602  0.00  0.00    -0.269 N 
ATOM     22  C   UNL     1       0.214   1.247  23.459  0.00  0.00    +0.304 C 
ATOM     37  H   UNL     1      -0.834   1.706  21.713  0.00  0.00    +0.150 HD
ATOM     38  H   UNL     1       1.090   1.004  21.605  0.00  0.00    +0.156 HD
BRANCH   9  28
ATOM     28  C   UNL     1       2.534   0.388  22.950  0.00  0.00    +0.035 A 
ATOM     29  C   UNL     1       3.658   1.210  22.854  0.00  0.00    +0.023 A 
ATOM     30  C   UNL     1       2.670  -0.930  23.387  0.00  0.00    +0.023 A 
ATOM     31  C   UNL     1       4.915   0.715  23.198  0.00  0.00    +0.005 A 
ATOM     32  C   UNL     1       3.927  -1.425  23.731  0.00  0.00    +0.005 A 
ATOM     33  C   UNL     1       5.051  -0.603  23.636  0.00  0.00    -0.050 A 
ATOM     34  C   UNL     1       6.395  -1.133  24.003  0.00  0.00    +0.044 C 
ENDBRANCH   9  28
ENDBRANCH  15   8
ENDBRANCH  13  15
TORSDOF 8
ENDMDL
MODEL 2
REMARK VINA RESULT:       3.5      2.791      5.731
REMARK  Name = 40777987
REMARK  9 active torsions:
REMARK  status: ('A' for Active; 'I' for Inactive)
REMARK    1  A    between atoms: O_2  and  C_11
REMARK    2  A    between atoms: O_3  and  C_12
REMARK    3  A    between atoms: N_7  and  C_21
REMARK    4  A    between atoms: N_8  and  C_15
REMARK    5  A    between atoms: N_9  and  C_28
REMARK    6  A    between atoms: C_10  and  C_14
REMARK    7  A    between atoms: C_13  and  C_15
REMARK    8  A    between atoms: C_14  and  C_16
REMARK    9  A    between atoms: C_33  and  C_34
REMARK                            x       y       z     vdW  Elec       q    Type
REMARK                         _______ _______ _______ _____ _____    ______ ____
ROOT
ATOM      1  O   UNL     1      -4.301   1.948  23.696  0.00  0.00    -0.366 OA
ATOM     10  C   UNL     1      -4.919   0.914  24.496  0.00  0.00    +0.159 C 
ATOM     11  C   UNL     1      -5.938   1.612  25.389  0.00  0.00    +0.175 C 
ATOM     12  C   UNL     1      -5.328   2.990  25.546  0.00  0.00    +0.176 C 
ATOM     13  C   UNL     1      -4.761   3.232  24.157  0.00  0.00    +0.167 C 
ENDROOT
BRANCH  11   2
ATOM      2  O   UNL     1      -7.171   1.694  24.674  0.00  0.00    -0.387 OA
ATOM     35  H   UNL     1      -7.520   0.790  24.591  0.00  0.00    +0.210 HD
ENDBRANCH  11   2
BRANCH  12   3
ATOM      3  O   UNL     1      -6.267   3.978  25.914  0.00  0.00    -0.387 OA
ATOM     36  H   UNL     1      -7.152   3.581  25.848  0.00  0.00    +0.210 HD
ENDBRANCH  12   3
BRANCH  10  14
ATOM     14  C   UNL     1      -3.819   0.213  25.281  0.00  0.00    +0.130 C 
BRANCH  14  16
ATOM      4  O   UNL     1      -3.808  -1.704  23.879  0.00  0.00    -0.276 OA
ATOM      6  N   UNL     1      -1.757  -0.680  24.264  0.00  0.00    -0.298 N 
ATOM      7  N   UNL     1       1.069  -0.370  23.718  0.00  0.00    -0.327 N 
ATOM     16  C   UNL     1      -3.139  -0.813  24.409  0.00  0.00    +0.218 C 
ATOM     17  C   UNL     1      -0.964   0.378  24.893  0.00  0.00    +0.126 C 
ATOM     18  C   UNL     1      -1.026  -1.631  23.430  0.00  0.00    +0.126 C 
ATOM     19  C   UNL     1       0.515   0.013  25.019  0.00  0.00    +0.124 C 
ATOM     20  C   UNL     1       0.169  -0.981  22.736  0.00  0.00    +0.124 C 
BRANCH   7  21
ATOM     21  C   UNL     1       2.421  -0.195  23.432  0.00  0.00    +0.030 A 
ATOM     23  C   UNL     1       3.341  -1.187  23.772  0.00  0.00    +0.023 A 
ATOM     24  C   UNL     1       2.854   0.974  22.806  0.00  0.00    +0.023 A 
ATOM     25  C   UNL     1       4.694  -1.011  23.486  0.00  0.00    +0.002 A 
ATOM     26  C   UNL     1       4.208   1.151  22.521  0.00  0.00    +0.002 A 
ATOM     27  C   UNL     1       5.128   0.158  22.860  0.00  0.00    +0.000 A 
ENDBRANCH   7  21
ENDBRANCH  14  16
ENDBRANCH  10  14
BRANCH  13  15
ATOM     15  C   UNL     1      -3.611   4.223  24.141  0.00  0.00    +0.140 C 
BRANCH  15   8
ATOM      5  O   UNL     1      -2.479   4.232  26.772  0.00  0.00    -0.253 OA
ATOM      8  N   UNL     1      -2.386   3.601  24.549  0.00  0.00    -0.297 N 
ATOM      9  N   UNL     1      -0.685   2.953  25.965  0.00  0.00    -0.269 N 
ATOM     22  C   UNL     1      -1.893   3.648  25.864  0.00  0.00    +0.304 C 
ATOM     37  H   UNL     1      -1.858   3.079  23.856  0.00  0.00    +0.150 HD
ATOM     38  H   UNL     1      -0.334   2.525  25.111  0.00  0.00    +0.156 HD
BRANCH   9  28
ATOM     28  C   UNL     1       0.120   2.772  27.113  0.00  0.00    +0.035 A 
ATOM     29  C   UNL     1       1.498   2.976  27.038  0.00  0.00    +0.023 A 
ATOM     30  C   UNL     1      -0.464   2.389  28.320  0.00  0.00    +0.023 A 
ATOM     31  C   UNL     1       2.292   2.797  28.171  0.00  0.00    +0.005 A 
ATOM     32  C   UNL     1       0.329   2.210  29.453  0.00  0.00    +0.005 A 
ATOM     33  C   UNL     1       1.707   2.414  29.379  0.00  0.00    -0.050 A 
ATOM     34  C   UNL     1       2.556   2.223  30.590  0.00  0.00    +0.044 C 
ENDBRANCH   9  28
ENDBRANCH  15   8
ENDBRANCH  13  15
TORSDOF 8
ENDMDL
MODEL 3
REMARK VINA RESULT:       5.3      3.135      5.541
REMARK  Name = 40777987
REMARK  9 active torsions:
REMARK  status: ('A' for Active; 'I' for Inactive)
REMARK    1  A    between atoms: O_2  and  C_11
REMARK    2  A    between atoms: O_3  and  C_12
REMARK    3  A    between atoms: N_7  and  C_21
REMARK    4  A    between atoms: N_8  and  C_15
REMARK    5  A    between atoms: N_9  and  C_28
REMARK    6  A    between atoms: C_10  and  C_14
REMARK    7  A    between atoms: C_13  and  C_15
REMARK    8  A    between atoms: C_14  and  C_16
REMARK    9  A    between atoms: C_33  and  C_34
REMARK                            x       y       z     vdW  Elec       q    Type
REMARK                         _______ _______ _______ _____ _____    ______ ____
ROOT
ATOM      1  O   UNL     1      -3.341  -0.104  25.139  0.00  0.00    -0.366 OA
ATOM     10  C   UNL     1      -4.245   0.574  24.236  0.00  0.00    +0.159 C 
ATOM     11  C   UNL     1      -5.095  -0.511  23.584  0.00  0.00    +0.175 C 
ATOM     12  C   UNL     1      -4.160  -1.702  23.610  0.00  0.00    +0.176 C 
ATOM     13  C   UNL     1      -3.478  -1.525  24.956  0.00  0.00    +0.167 C 
ENDROOT
BRANCH  11   2
ATOM      2  O   UNL     1      -6.226  -0.750  24.420  0.00  0.00    -0.387 OA
ATOM     35  H   UNL     1      -6.783  -1.412  23.976  0.00  0.00    +0.210 HD
ENDBRANCH  11   2
BRANCH  12   3
ATOM      3  O   UNL     1      -4.831  -2.940  23.514  0.00  0.00    -0.387 OA
ATOM     36  H   UNL     1      -4.411  -3.550  24.144  0.00  0.00    +0.210 HD
ENDBRANCH  12   3
BRANCH  10  14
ATOM     14  C   UNL     1      -3.405   1.356  23.236  0.00  0.00    +0.130 C 
BRANCH  14  16
ATOM      4  O   UNL     1      -3.587   3.713  23.459  0.00  0.00    -0.276 OA
ATOM      6  N   UNL     1      -1.981   2.662  24.771  0.00  0.00    -0.298 N 
ATOM      7  N   UNL     1      -0.016   2.699  26.895  0.00  0.00    -0.327 N 
ATOM     16  C   UNL     1      -3.009   2.687  23.826  0.00  0.00    +0.218 C 
ATOM     17  C   UNL     1      -1.296   1.443  25.206  0.00  0.00    +0.126 C 
ATOM     18  C   UNL     1      -1.545   3.910  25.392  0.00  0.00    +0.126 C 
ATOM     19  C   UNL     1       0.080   1.721  25.809  0.00  0.00    +0.124 C 
ATOM     20  C   UNL     1      -1.086   3.699  26.834  0.00  0.00    +0.124 C 
BRANCH   7  21
ATOM     21  C   UNL     1       0.905   2.706  27.940  0.00  0.00    +0.030 A 
ATOM     23  C   UNL     1       2.221   3.105  27.709  0.00  0.00    +0.023 A 
ATOM     24  C   UNL     1       0.509   2.312  29.219  0.00  0.00    +0.023 A 
ATOM     25  C   UNL     1       3.142   3.111  28.756  0.00  0.00    +0.002 A 
ATOM     26  C   UNL     1       1.431   2.317  30.266  0.00  0.00    +0.002 A 
ATOM     27  C   UNL     1       2.747   2.717  30.035  0.00  0.00    +0.000 A 
ENDBRANCH   7  21
ENDBRANCH  14  16
ENDBRANCH  10  14
BRANCH  13  15
ATOM     15  C   UNL     1      -2.113  -2.185  25.031  0.00  0.00    +0.140 C 
BRANCH  15   8
ATOM      5  O   UNL     1       0.727  -2.133  25.402  0.00  0.00    -0.253 OA
ATOM      8  N   UNL     1      -1.156  -1.484  24.227  0.00  0.00    -0.297 N 
ATOM      9  N   UNL     1       0.910  -0.735  23.526  0.00  0.00    -0.269 N 
ATOM     22  C   UNL     1       0.227  -1.507  24.471  0.00  0.00    +0.304 C 
ATOM     37  H   UNL     1      -1.494  -0.961  23.424  0.00  0.00    +0.150 HD
ATOM     38  H   UNL     1       0.342  -0.277  22.817  0.00  0.00    +0.156 HD
BRANCH   9  28
ATOM     28  C   UNL     1       2.302  -0.508  23.433  0.00  0.00    +0.035 A 
ATOM     29  C   UNL     1       2.779   0.699  22.919  0.00  0.00    +0.023 A 
ATOM     30  C   UNL     1       3.199  -1.490  23.853  0.00  0.00    +0.023 A 
ATOM     31  C   UNL     1       4.152   0.923  22.827  0.00  0.00    +0.005 A 
ATOM     32  C   UNL     1       4.572  -1.266  23.760  0.00  0.00    +0.005 A 
ATOM     33  C   UNL     1       5.050  -0.060  23.248  0.00  0.00    -0.050 A 
ATOM     34  C   UNL     1       6.518   0.180  23.149  0.00  0.00    +0.044 C 
ENDBRANCH   9  28
ENDBRANCH  15   8
ENDBRANCH  13  15
TORSDOF 8
ENDMDL
MODEL 4
REMARK VINA RESULT:       6.7      1.700      5.464
REMARK  Name = 40777987
REMARK  9 active torsions:
REMARK  status: ('A' for Active; 'I' for Inactive)
REMARK    1  A    between atoms: O_2  and  C_11
REMARK    2  A    between atoms: O_3  and  C_12
REMARK    3  A    between atoms: N_7  and  C_21
REMARK    4  A    between atoms: N_8  and  C_15
REMARK    5  A    between atoms: N_9  and  C_28
REMARK    6  A    between atoms: C_10  and  C_14
REMARK    7  A    between atoms: C_13  and  C_15
REMARK    8  A    between atoms: C_14  and  C_16
REMARK    9  A    between atoms: C_33  and  C_34
REMARK                            x       y       z     vdW  Elec       q    Type
REMARK                         _______ _______ _______ _____ _____    ______ ____
ROOT
ATOM      1  O   UNL     1      -4.046   2.660  25.384  0.00  0.00    -0.366 OA
ATOM     10  C   UNL     1      -3.317   3.857  25.026  0.00  0.00    +0.159 C 
ATOM     11  C   UNL     1      -4.225   5.032  25.372  0.00  0.00    +0.175 C 
ATOM     12  C   UNL     1      -5.602   4.423  25.216  0.00  0.00    +0.176 C 
ATOM     13  C   UNL     1      -5.383   3.026  25.770  0.00  0.00    +0.167 C 
ENDROOT
BRANCH  11   2
ATOM      2  O   UNL     1      -3.991   5.386  26.735  0.00  0.00    -0.387 OA
ATOM     35  H   UNL     1      -4.828   5.721  27.098  0.00  0.00    +0.210 HD
ENDBRANCH  11   2
BRANCH  12   3
ATOM      3  O   UNL     1      -6.605   5.122  25.923  0.00  0.00    -0.387 OA
ATOM     36  H   UNL     1      -6.209   5.943  26.259  0.00  0.00    +0.210 HD
ENDBRANCH  12   3
BRANCH  10  14
ATOM     14  C   UNL     1      -2.988   3.775  23.542  0.00  0.00    +0.130 C 
BRANCH  14  16
ATOM      4  O   UNL     1      -3.686   1.658  22.724  0.00  0.00    -0.276 OA
ATOM      6  N   UNL     1      -1.444   1.866  23.299  0.00  0.00    -0.298 N 
ATOM      7  N   UNL     1       1.266   0.851  23.366  0.00  0.00    -0.327 N 
ATOM     16  C   UNL     1      -2.748   2.338  23.147  0.00  0.00    +0.218 C 
ATOM     17  C   UNL     1      -0.332   2.676  23.802  0.00  0.00    +0.126 C 
ATOM     18  C   UNL     1      -1.130   0.488  22.933  0.00  0.00    +0.126 C 
ATOM     19  C   UNL     1       0.812   1.829  24.358  0.00  0.00    +0.124 C 
ATOM     20  C   UNL     1       0.292   0.350  22.393  0.00  0.00    +0.124 C 
BRANCH   7  21
ATOM     21  C   UNL     1       2.577   0.380  23.368  0.00  0.00    +0.030 A 
ATOM     23  C   UNL     1       2.844  -0.939  23.733  0.00  0.00    +0.023 A 
ATOM     24  C   UNL     1       3.622   1.229  23.006  0.00  0.00    +0.023 A 
ATOM     25  C   UNL     1       4.157  -1.410  23.735  0.00  0.00    +0.002 A 
ATOM     26  C   UNL     1       4.936   0.759  23.009  0.00  0.00    +0.002 A 
ATOM     27  C   UNL     1       5.203  -0.561  23.373  0.00  0.00    +0.000 A 
ENDBRANCH   7  21
ENDBRANCH  14  16
ENDBRANCH  10  14
BRANCH  13  15
ATOM     15  C   UNL     1      -6.368   2.003  25.233  0.00  0.00    +0.140 C 
BRANCH  15   8
ATOM      5  O   UNL     1      -3.808   1.044  26.090  0.00  0.00    -0.253 OA
ATOM      8  N   UNL     1      -5.691   0.831  24.764  0.00  0.00    -0.297 N 
ATOM      9  N   UNL     1      -4.024  -0.754  24.597  0.00  0.00    -0.269 N 
ATOM     22  C   UNL     1      -4.432   0.422  25.234  0.00  0.00    +0.304 C 
ATOM     37  H   UNL     1      -6.156   0.252  24.070  0.00  0.00    +0.150 HD
ATOM     38  H   UNL     1      -4.662  -1.142  23.906  0.00  0.00    +0.156 HD
BRANCH   9  28
ATOM     28  C   UNL     1      -2.824  -1.476  24.793  0.00  0.00    +0.035 A 
ATOM     29  C   UNL     1      -1.796  -0.926  25.560  0.00  0.00    +0.023 A 
ATOM     30  C   UNL     1      -2.668  -2.737  24.219  0.00  0.00    +0.023 A 
ATOM     31  C   UNL     1      -0.613  -1.638  25.753  0.00  0.00    +0.005 A 
ATOM     32  C   UNL     1      -1.484  -3.450  24.412  0.00  0.00    +0.005 A 
ATOM     33  C   UNL     1      -0.457  -2.901  25.180  0.00  0.00    -0.050 A 
ATOM     34  C   UNL     1       0.808  -3.662  25.386  0.00  0.00    +0.044 C 
ENDBRANCH   9  28
ENDBRANCH  15   8
ENDBRANCH  13  15
TORSDOF 8
ENDMDL
