MODEL 1
REMARK VINA RESULT:       0.9      0.000      0.000
REMARK  Name = 11886323
REMARK  12 active torsions:
REMARK  status: ('A' for Active; 'I' for Inactive)
REMARK    1  A    between atoms: O_3  and  C_24
REMARK    2  A    between atoms: O_3  and  C_29
REMARK    3  A    between atoms: O_5  and  C_28
REMARK    4  A    between atoms: N_7  and  C_17
REMARK    5  A    between atoms: N_8  and  C_18
REMARK    6  A    between atoms: N_12  and  C_34
REMARK    7  A    between atoms: C_21  and  C_22
REMARK    8  A    between atoms: C_22  and  C_23
REMARK    9  A    between atoms: C_23  and  C_25
REMARK   10  A    between atoms: C_23  and  C_26
REMARK   11  A    between atoms: C_23  and  C_27
REMARK   12  A    between atoms: C_25  and  C_28
REMARK                            x       y       z     vdW  Elec       q    Type
REMARK                         _______ _______ _______ _____ _____    ______ ____
ROOT
ATOM      1  O   UNL     1      -2.395  -0.910  26.170  0.00  0.00    -0.370 OA
ATOM      2  O   UNL     1      -3.556  -0.742  23.251  0.00  0.00    -0.370 OA
ATOM     15  C   UNL     1      -2.418  -0.165  23.911  0.00  0.00    +0.171 C 
ATOM     16  C   UNL     1      -2.831   0.174  25.330  0.00  0.00    +0.176 C 
ATOM     17  C   UNL     1      -1.327  -1.198  24.076  0.00  0.00    +0.130 C 
ATOM     18  C   UNL     1      -4.347   0.218  25.290  0.00  0.00    +0.171 C 
ATOM     19  C   UNL     1      -1.731  -1.893  25.363  0.00  0.00    +0.185 C 
ATOM     20  C   UNL     1      -4.686  -0.716  24.134  0.00  0.00    +0.190 C 
ENDROOT
BRANCH  18   8
ATOM      8  N   UNL     1      -4.867   1.582  25.158  0.00  0.00    -0.187 N 
ATOM      9  N   UNL     1      -6.148   1.865  25.431  0.00  0.00    -0.041 NA
ATOM     10  N   UNL     1      -5.069   3.710  24.798  0.00  0.00    -0.071 NA
ATOM     11  N   UNL     1      -6.266   3.169  25.209  0.00  0.00    -0.020 NA
ATOM     24  C   UNL     1      -4.217   2.712  24.775  0.00  0.00    +0.342 A 
BRANCH  24   3
ATOM      3  O   UNL     1      -2.942   2.770  24.437  0.00  0.00    -0.423 OA
BRANCH   3  29
ATOM     29  C   UNL     1      -1.919   2.755  25.374  0.00  0.00    +0.132 A 
ATOM     30  C   UNL     1      -0.616   2.447  24.979  0.00  0.00    +0.048 A 
ATOM     31  C   UNL     1      -2.192   3.046  26.710  0.00  0.00    +0.048 A 
ATOM     32  C   UNL     1       0.412   2.432  25.921  0.00  0.00    +0.031 A 
ATOM     33  C   UNL     1      -1.163   3.031  27.652  0.00  0.00    +0.031 A 
ATOM     34  C   UNL     1       0.138   2.723  27.257  0.00  0.00    +0.067 A 
BRANCH  34  12
ATOM     12  N   UNL     1       1.159   2.707  28.192  0.00  0.00    -0.220 N 
ATOM     13  N   UNL     1       2.361   3.242  27.933  0.00  0.00    -0.154 NA
ATOM     14  N   UNL     1       2.272   2.353  30.038  0.00  0.00    -0.222 NA
ATOM     35  C   UNL     1       1.114   2.181  29.445  0.00  0.00    +0.225 A 
ATOM     36  C   UNL     1       2.998   3.003  29.081  0.00  0.00    +0.245 A 
ENDBRANCH  34  12
ENDBRANCH   3  29
ENDBRANCH  24   3
ENDBRANCH  18   8
BRANCH  17   7
ATOM      4  O   UNL     1       0.183   0.081  21.987  0.00  0.00    -0.276 OA
ATOM      7  N   UNL     1      -0.031  -0.575  24.203  0.00  0.00    -0.308 N 
ATOM     21  C   UNL     1       0.620   0.017  23.135  0.00  0.00    +0.214 C 
ATOM     37  H   UNL     1       0.387  -0.528  25.127  0.00  0.00    +0.149 HD
BRANCH  21  22
ATOM     22  C   UNL     1       1.968   0.611  23.512  0.00  0.00    +0.102 C 
BRANCH  22  23
ATOM     23  C   UNL     1       3.181  -0.001  22.766  0.00  0.00    -0.017 C 
ATOM     26  C   UNL     1       2.769  -0.228  21.296  0.00  0.00    +0.012 C 
ATOM     27  C   UNL     1       3.542  -1.377  23.363  0.00  0.00    +0.012 C 
BRANCH  23  25
ATOM     25  C   UNL     1       4.442   0.894  22.833  0.00  0.00    +0.127 C 
BRANCH  25  28
ATOM      6  O   UNL     1       6.555  -0.224  23.218  0.00  0.00    -0.251 OA
ATOM     28  C   UNL     1       5.570   0.341  23.676  0.00  0.00    +0.305 C 
BRANCH  28   5
ATOM      5  O   UNL     1       5.376   0.528  25.005  0.00  0.00    -0.481 OA
ATOM     38  H   UNL     1       4.873   1.349  25.190  0.00  0.00    +0.295 HD
ENDBRANCH  28   5
ENDBRANCH  25  28
ENDBRANCH  23  25
ENDBRANCH  22  23
ENDBRANCH  21  22
ENDBRANCH  17   7
TORSDOF 10
ENDMDL
MODEL 2
REMARK VINA RESULT:       3.2      2.973      5.451
REMARK  Name = 11886323
REMARK  12 active torsions:
REMARK  status: ('A' for Active; 'I' for Inactive)
REMARK    1  A    between atoms: O_3  and  C_24
REMARK    2  A    between atoms: O_3  and  C_29
REMARK    3  A    between atoms: O_5  and  C_28
REMARK    4  A    between atoms: N_7  and  C_17
REMARK    5  A    between atoms: N_8  and  C_18
REMARK    6  A    between atoms: N_12  and  C_34
REMARK    7  A    between atoms: C_21  and  C_22
REMARK    8  A    between atoms: C_22  and  C_23
REMARK    9  A    between atoms: C_23  and  C_25
REMARK   10  A    between atoms: C_23  and  C_26
REMARK   11  A    between atoms: C_23  and  C_27
REMARK   12  A    between atoms: C_25  and  C_28
REMARK                            x       y       z     vdW  Elec       q    Type
REMARK                         _______ _______ _______ _____ _____    ______ ____
ROOT
ATOM      1  O   UNL     1      -5.007   2.058  26.911  0.00  0.00    -0.370 OA
ATOM      2  O   UNL     1      -5.868   3.726  24.387  0.00  0.00    -0.370 OA
ATOM     15  C   UNL     1      -5.135   2.505  24.578  0.00  0.00    +0.171 C 
ATOM     16  C   UNL     1      -4.287   2.668  25.824  0.00  0.00    +0.176 C 
ATOM     17  C   UNL     1      -6.080   1.374  24.914  0.00  0.00    +0.130 C 
ATOM     18  C   UNL     1      -4.201   4.167  26.039  0.00  0.00    +0.171 C 
ATOM     19  C   UNL     1      -6.242   1.522  26.416  0.00  0.00    +0.185 C 
ATOM     20  C   UNL     1      -5.477   4.680  25.384  0.00  0.00    +0.190 C 
ENDROOT
BRANCH  18   8
ATOM      8  N   UNL     1      -2.959   4.740  25.513  0.00  0.00    -0.187 N 
ATOM      9  N   UNL     1      -2.696   6.049  25.628  0.00  0.00    -0.041 NA
ATOM     10  N   UNL     1      -1.024   5.016  24.575  0.00  0.00    -0.071 NA
ATOM     11  N   UNL     1      -1.510   6.212  25.053  0.00  0.00    -0.020 NA
ATOM     24  C   UNL     1      -1.935   4.119  24.871  0.00  0.00    +0.342 A 
BRANCH  24   3
ATOM      3  O   UNL     1      -1.889   2.828  24.599  0.00  0.00    -0.423 OA
BRANCH   3  29
ATOM     29  C   UNL     1      -0.706   2.171  24.289  0.00  0.00    +0.132 A 
ATOM     30  C   UNL     1       0.439   2.399  25.053  0.00  0.00    +0.048 A 
ATOM     31  C   UNL     1      -0.662   1.285  23.213  0.00  0.00    +0.048 A 
ATOM     32  C   UNL     1       1.627   1.739  24.741  0.00  0.00    +0.031 A 
ATOM     33  C   UNL     1       0.527   0.625  22.901  0.00  0.00    +0.031 A 
ATOM     34  C   UNL     1       1.671   0.852  23.665  0.00  0.00    +0.067 A 
BRANCH  34  12
ATOM     12  N   UNL     1       2.851   0.199  23.355  0.00  0.00    -0.220 N 
ATOM     13  N   UNL     1       3.018  -1.109  23.599  0.00  0.00    -0.154 NA
ATOM     14  N   UNL     1       4.880  -0.187  22.645  0.00  0.00    -0.222 NA
ATOM     35  C   UNL     1       3.962   0.740  22.788  0.00  0.00    +0.225 A 
ATOM     36  C   UNL     1       4.262  -1.294  23.152  0.00  0.00    +0.245 A 
ENDBRANCH  34  12
ENDBRANCH   3  29
ENDBRANCH  24   3
ENDBRANCH  18   8
BRANCH  17   7
ATOM      4  O   UNL     1      -3.726   0.908  23.326  0.00  0.00    -0.276 OA
ATOM      7  N   UNL     1      -5.506   0.094  24.574  0.00  0.00    -0.308 N 
ATOM     21  C   UNL     1      -4.365  -0.029  23.799  0.00  0.00    +0.214 C 
ATOM     37  H   UNL     1      -5.932  -0.740  24.967  0.00  0.00    +0.149 HD
BRANCH  21  22
ATOM     22  C   UNL     1      -3.946  -1.475  23.579  0.00  0.00    +0.102 C 
BRANCH  22  23
ATOM     23  C   UNL     1      -3.061  -2.075  24.701  0.00  0.00    -0.017 C 
ATOM     26  C   UNL     1      -3.458  -3.556  24.878  0.00  0.00    +0.012 C 
ATOM     27  C   UNL     1      -3.332  -1.360  26.041  0.00  0.00    +0.012 C 
BRANCH  23  25
ATOM     25  C   UNL     1      -1.548  -1.961  24.398  0.00  0.00    +0.127 C 
BRANCH  25  28
ATOM      6  O   UNL     1      -1.075  -0.502  26.271  0.00  0.00    -0.251 OA
ATOM     28  C   UNL     1      -0.712  -1.407  25.531  0.00  0.00    +0.305 C 
BRANCH  28   5
ATOM      5  O   UNL     1       0.496  -2.014  25.642  0.00  0.00    -0.481 OA
ATOM     38  H   UNL     1       1.236  -1.379  25.536  0.00  0.00    +0.295 HD
ENDBRANCH  28   5
ENDBRANCH  25  28
ENDBRANCH  23  25
ENDBRANCH  22  23
ENDBRANCH  21  22
ENDBRANCH  17   7
TORSDOF 10
ENDMDL
MODEL 3
REMARK VINA RESULT:       4.0      2.271      4.152
REMARK  Name = 11886323
REMARK  12 active torsions:
REMARK  status: ('A' for Active; 'I' for Inactive)
REMARK    1  A    between atoms: O_3  and  C_24
REMARK    2  A    between atoms: O_3  and  C_29
REMARK    3  A    between atoms: O_5  and  C_28
REMARK    4  A    between atoms: N_7  and  C_17
REMARK    5  A    between atoms: N_8  and  C_18
REMARK    6  A    between atoms: N_12  and  C_34
REMARK    7  A    between atoms: C_21  and  C_22
REMARK    8  A    between atoms: C_22  and  C_23
REMARK    9  A    between atoms: C_23  and  C_25
REMARK   10  A    between atoms: C_23  and  C_26
REMARK   11  A    between atoms: C_23  and  C_27
REMARK   12  A    between atoms: C_25  and  C_28
REMARK                            x       y       z     vdW  Elec       q    Type
REMARK                         _______ _______ _______ _____ _____    ______ ____
ROOT
ATOM      1  O   UNL     1      -1.841   3.865  23.560  0.00  0.00    -0.370 OA
ATOM      2  O   UNL     1      -2.132   4.134  26.680  0.00  0.00    -0.370 OA
ATOM     15  C   UNL     1      -1.895   3.034  25.788  0.00  0.00    +0.171 C 
ATOM     16  C   UNL     1      -2.717   3.272  24.536  0.00  0.00    +0.176 C 
ATOM     17  C   UNL     1      -0.463   3.049  25.304  0.00  0.00    +0.130 C 
ATOM     18  C   UNL     1      -3.777   4.273  24.955  0.00  0.00    +0.171 C 
ATOM     19  C   UNL     1      -0.530   4.002  24.125  0.00  0.00    +0.185 C 
ATOM     20  C   UNL     1      -3.112   5.012  26.110  0.00  0.00    +0.190 C 
ENDROOT
BRANCH  18   8
ATOM      8  N   UNL     1      -5.055   3.635  25.280  0.00  0.00    -0.187 N 
ATOM      9  N   UNL     1      -5.876   4.157  26.203  0.00  0.00    -0.041 NA
ATOM     10  N   UNL     1      -6.762   2.299  25.344  0.00  0.00    -0.071 NA
ATOM     11  N   UNL     1      -6.919   3.335  26.237  0.00  0.00    -0.020 NA
ATOM     24  C   UNL     1      -5.604   2.505  24.762  0.00  0.00    +0.342 A 
BRANCH  24   3
ATOM      3  O   UNL     1      -5.044   1.754  23.832  0.00  0.00    -0.423 OA
BRANCH   3  29
ATOM     29  C   UNL     1      -4.074   0.803  24.121  0.00  0.00    +0.132 A 
ATOM     30  C   UNL     1      -3.040   0.565  23.216  0.00  0.00    +0.048 A 
ATOM     31  C   UNL     1      -4.136   0.086  25.315  0.00  0.00    +0.048 A 
ATOM     32  C   UNL     1      -2.067  -0.390  23.507  0.00  0.00    +0.031 A 
ATOM     33  C   UNL     1      -3.162  -0.870  25.606  0.00  0.00    +0.031 A 
ATOM     34  C   UNL     1      -2.128  -1.108  24.701  0.00  0.00    +0.067 A 
BRANCH  34  12
ATOM     12  N   UNL     1      -1.162  -2.056  24.988  0.00  0.00    -0.220 N 
ATOM     13  N   UNL     1      -1.253  -3.315  24.535  0.00  0.00    -0.154 NA
ATOM     14  N   UNL     1       0.639  -3.005  25.782  0.00  0.00    -0.222 NA
ATOM     35  C   UNL     1      -0.035  -1.880  25.729  0.00  0.00    +0.225 A 
ATOM     36  C   UNL     1      -0.139  -3.848  25.043  0.00  0.00    +0.245 A 
ENDBRANCH  34  12
ENDBRANCH   3  29
ENDBRANCH  24   3
ENDBRANCH  18   8
BRANCH  17   7
ATOM      4  O   UNL     1       1.715   2.421  23.532  0.00  0.00    -0.276 OA
ATOM      7  N   UNL     1      -0.037   1.734  24.890  0.00  0.00    -0.308 N 
ATOM     21  C   UNL     1       1.028   1.531  24.029  0.00  0.00    +0.214 C 
ATOM     37  H   UNL     1      -0.510   0.930  25.293  0.00  0.00    +0.149 HD
BRANCH  21  22
ATOM     22  C   UNL     1       1.292   0.061  23.742  0.00  0.00    +0.102 C 
BRANCH  22  23
ATOM     23  C   UNL     1       2.558  -0.219  22.893  0.00  0.00    -0.017 C 
ATOM     26  C   UNL     1       2.114  -0.405  21.426  0.00  0.00    +0.012 C 
ATOM     27  C   UNL     1       3.228  -1.534  23.343  0.00  0.00    +0.012 C 
BRANCH  23  25
ATOM     25  C   UNL     1       3.610   0.911  22.992  0.00  0.00    +0.127 C 
BRANCH  25  28
ATOM      6  O   UNL     1       5.850   0.030  22.727  0.00  0.00    -0.251 OA
ATOM     28  C   UNL     1       4.977   0.468  23.465  0.00  0.00    +0.305 C 
BRANCH  28   5
ATOM      5  O   UNL     1       5.139   0.597  24.806  0.00  0.00    -0.481 OA
ATOM     38  H   UNL     1       6.047   0.360  25.090  0.00  0.00    +0.295 HD
ENDBRANCH  28   5
ENDBRANCH  25  28
ENDBRANCH  23  25
ENDBRANCH  22  23
ENDBRANCH  21  22
ENDBRANCH  17   7
TORSDOF 10
ENDMDL
MODEL 4
REMARK VINA RESULT:       4.1      2.425      4.923
REMARK  Name = 11886323
REMARK  12 active torsions:
REMARK  status: ('A' for Active; 'I' for Inactive)
REMARK    1  A    between atoms: O_3  and  C_24
REMARK    2  A    between atoms: O_3  and  C_29
REMARK    3  A    between atoms: O_5  and  C_28
REMARK    4  A    between atoms: N_7  and  C_17
REMARK    5  A    between atoms: N_8  and  C_18
REMARK    6  A    between atoms: N_12  and  C_34
REMARK    7  A    between atoms: C_21  and  C_22
REMARK    8  A    between atoms: C_22  and  C_23
REMARK    9  A    between atoms: C_23  and  C_25
REMARK   10  A    between atoms: C_23  and  C_26
REMARK   11  A    between atoms: C_23  and  C_27
REMARK   12  A    between atoms: C_25  and  C_28
REMARK                            x       y       z     vdW  Elec       q    Type
REMARK                         _______ _______ _______ _____ _____    ______ ____
ROOT
ATOM      1  O   UNL     1       0.336   4.003  25.550  0.00  0.00    -0.370 OA
ATOM      2  O   UNL     1      -2.312   2.383  26.059  0.00  0.00    -0.370 OA
ATOM     15  C   UNL     1      -1.352   2.423  24.991  0.00  0.00    +0.171 C 
ATOM     16  C   UNL     1      -0.903   3.862  24.830  0.00  0.00    +0.176 C 
ATOM     17  C   UNL     1      -0.096   1.681  25.386  0.00  0.00    +0.130 C 
ATOM     18  C   UNL     1      -1.986   4.683  25.502  0.00  0.00    +0.171 C 
ATOM     19  C   UNL     1       0.685   2.742  26.139  0.00  0.00    +0.185 C 
ATOM     20  C   UNL     1      -2.560   3.715  26.530  0.00  0.00    +0.190 C 
ENDROOT
BRANCH  18   8
ATOM      8  N   UNL     1      -2.959   5.221  24.547  0.00  0.00    -0.187 N 
ATOM      9  N   UNL     1      -2.619   6.187  23.682  0.00  0.00    -0.041 NA
ATOM     10  N   UNL     1      -4.757   5.616  23.402  0.00  0.00    -0.071 NA
ATOM     11  N   UNL     1      -3.724   6.425  22.984  0.00  0.00    -0.020 NA
ATOM     24  C   UNL     1      -4.261   4.879  24.368  0.00  0.00    +0.342 A 
BRANCH  24   3
ATOM      3  O   UNL     1      -4.901   3.958  25.064  0.00  0.00    -0.423 OA
BRANCH   3  29
ATOM     29  C   UNL     1      -4.694   2.598  24.874  0.00  0.00    +0.132 A 
ATOM     30  C   UNL     1      -5.214   1.680  25.786  0.00  0.00    +0.048 A 
ATOM     31  C   UNL     1      -3.965   2.152  23.772  0.00  0.00    +0.048 A 
ATOM     32  C   UNL     1      -5.006   0.314  25.595  0.00  0.00    +0.031 A 
ATOM     33  C   UNL     1      -3.757   0.785  23.581  0.00  0.00    +0.031 A 
ATOM     34  C   UNL     1      -4.277  -0.133  24.493  0.00  0.00    +0.067 A 
BRANCH  34  12
ATOM     12  N   UNL     1      -4.070  -1.488  24.304  0.00  0.00    -0.220 N 
ATOM     13  N   UNL     1      -4.684  -2.166  23.324  0.00  0.00    -0.154 NA
ATOM     14  N   UNL     1      -3.321  -3.524  24.559  0.00  0.00    -0.222 NA
ATOM     35  C   UNL     1      -3.261  -2.302  25.034  0.00  0.00    +0.225 A 
ATOM     36  C   UNL     1      -4.198  -3.393  23.521  0.00  0.00    +0.245 A 
ENDBRANCH  34  12
ENDBRANCH   3  29
ENDBRANCH  24   3
ENDBRANCH  18   8
BRANCH  17   7
ATOM      4  O   UNL     1      -0.059  -0.991  24.319  0.00  0.00    -0.276 OA
ATOM      7  N   UNL     1       0.628   1.224  24.225  0.00  0.00    -0.308 N 
ATOM     21  C   UNL     1       0.584  -0.089  23.786  0.00  0.00    +0.214 C 
ATOM     37  H   UNL     1       1.146   1.911  23.684  0.00  0.00    +0.149 HD
BRANCH  21  22
ATOM     22  C   UNL     1       1.423  -0.331  22.541  0.00  0.00    +0.102 C 
BRANCH  22  23
ATOM     23  C   UNL     1       2.882   0.185  22.629  0.00  0.00    -0.017 C 
ATOM     26  C   UNL     1       2.845   1.622  23.190  0.00  0.00    +0.012 C 
ATOM     27  C   UNL     1       3.515   0.254  21.223  0.00  0.00    +0.012 C 
BRANCH  23  25
ATOM     25  C   UNL     1       3.783  -0.709  23.514  0.00  0.00    +0.127 C 
BRANCH  25  28
ATOM      6  O   UNL     1       6.108  -0.249  23.014  0.00  0.00    -0.251 OA
ATOM     28  C   UNL     1       5.163  -0.150  23.787  0.00  0.00    +0.305 C 
BRANCH  28   5
ATOM      5  O   UNL     1       5.252   0.473  24.988  0.00  0.00    -0.481 OA
ATOM     38  H   UNL     1       5.667   1.359  24.912  0.00  0.00    +0.295 HD
ENDBRANCH  28   5
ENDBRANCH  25  28
ENDBRANCH  23  25
ENDBRANCH  22  23
ENDBRANCH  21  22
ENDBRANCH  17   7
TORSDOF 10
ENDMDL
MODEL 5
REMARK VINA RESULT:       4.4      2.929      5.716
REMARK  Name = 11886323
REMARK  12 active torsions:
REMARK  status: ('A' for Active; 'I' for Inactive)
REMARK    1  A    between atoms: O_3  and  C_24
REMARK    2  A    between atoms: O_3  and  C_29
REMARK    3  A    between atoms: O_5  and  C_28
REMARK    4  A    between atoms: N_7  and  C_17
REMARK    5  A    between atoms: N_8  and  C_18
REMARK    6  A    between atoms: N_12  and  C_34
REMARK    7  A    between atoms: C_21  and  C_22
REMARK    8  A    between atoms: C_22  and  C_23
REMARK    9  A    between atoms: C_23  and  C_25
REMARK   10  A    between atoms: C_23  and  C_26
REMARK   11  A    between atoms: C_23  and  C_27
REMARK   12  A    between atoms: C_25  and  C_28
REMARK                            x       y       z     vdW  Elec       q    Type
REMARK                         _______ _______ _______ _____ _____    ______ ____
ROOT
ATOM      1  O   UNL     1      -4.673   2.030  23.404  0.00  0.00    -0.370 OA
ATOM      2  O   UNL     1      -5.502   0.599  26.079  0.00  0.00    -0.370 OA
ATOM     15  C   UNL     1      -4.378   1.398  25.678  0.00  0.00    +0.171 C 
ATOM     16  C   UNL     1      -4.048   1.041  24.243  0.00  0.00    +0.176 C 
ATOM     17  C   UNL     1      -4.767   2.858  25.620  0.00  0.00    +0.130 C 
ATOM     18  C   UNL     1      -4.701  -0.310  24.021  0.00  0.00    +0.171 C 
ATOM     19  C   UNL     1      -5.361   2.980  24.229  0.00  0.00    +0.185 C 
ATOM     20  C   UNL     1      -5.853  -0.300  25.018  0.00  0.00    +0.190 C 
ENDROOT
BRANCH  18   8
ATOM      8  N   UNL     1      -3.759  -1.422  24.173  0.00  0.00    -0.187 N 
ATOM      9  N   UNL     1      -4.176  -2.637  24.554  0.00  0.00    -0.041 NA
ATOM     10  N   UNL     1      -1.970  -2.646  24.228  0.00  0.00    -0.071 NA
ATOM     11  N   UNL     1      -3.077  -3.382  24.586  0.00  0.00    -0.020 NA
ATOM     24  C   UNL     1      -2.415  -1.437  23.976  0.00  0.00    +0.342 A 
BRANCH  24   3
ATOM      3  O   UNL     1      -1.697  -0.395  23.597  0.00  0.00    -0.423 OA
BRANCH   3  29
ATOM     29  C   UNL     1      -0.309  -0.414  23.567  0.00  0.00    +0.132 A 
ATOM     30  C   UNL     1       0.392  -1.320  24.363  0.00  0.00    +0.048 A 
ATOM     31  C   UNL     1       0.382   0.473  22.744  0.00  0.00    +0.048 A 
ATOM     32  C   UNL     1       1.786  -1.338  24.333  0.00  0.00    +0.031 A 
ATOM     33  C   UNL     1       1.777   0.455  22.714  0.00  0.00    +0.031 A 
ATOM     34  C   UNL     1       2.479  -0.451  23.509  0.00  0.00    +0.067 A 
BRANCH  34  12
ATOM     12  N   UNL     1       3.862  -0.469  23.481  0.00  0.00    -0.220 N 
ATOM     13  N   UNL     1       4.563  -1.517  23.938  0.00  0.00    -0.154 NA
ATOM     14  N   UNL     1       5.935   0.135  23.152  0.00  0.00    -0.222 NA
ATOM     35  C   UNL     1       4.684   0.509  23.016  0.00  0.00    +0.225 A 
ATOM     36  C   UNL     1       5.812  -1.102  23.716  0.00  0.00    +0.245 A 
ENDBRANCH  34  12
ENDBRANCH   3  29
ENDBRANCH  24   3
ENDBRANCH  18   8
BRANCH  17   7
ATOM      4  O   UNL     1      -3.854   4.870  23.776  0.00  0.00    -0.276 OA
ATOM      7  N   UNL     1      -3.614   3.713  25.774  0.00  0.00    -0.308 N 
ATOM     21  C   UNL     1      -3.253   4.656  24.827  0.00  0.00    +0.214 C 
ATOM     37  H   UNL     1      -3.084   3.649  26.638  0.00  0.00    +0.149 HD
BRANCH  21  22
ATOM     22  C   UNL     1      -2.007   5.440  25.210  0.00  0.00    +0.102 C 
BRANCH  22  23
ATOM     23  C   UNL     1      -0.667   4.725  24.900  0.00  0.00    -0.017 C 
ATOM     26  C   UNL     1       0.345   5.793  24.434  0.00  0.00    +0.012 C 
ATOM     27  C   UNL     1      -0.846   3.722  23.741  0.00  0.00    +0.012 C 
BRANCH  23  25
ATOM     25  C   UNL     1      -0.103   3.952  26.117  0.00  0.00    +0.127 C 
BRANCH  25  28
ATOM      6  O   UNL     1      -1.222   1.805  26.069  0.00  0.00    -0.251 OA
ATOM     28  C   UNL     1      -0.181   2.445  26.004  0.00  0.00    +0.305 C 
BRANCH  28   5
ATOM      5  O   UNL     1       1.033   1.866  25.829  0.00  0.00    -0.481 OA
ATOM     38  H   UNL     1       1.265   1.269  26.571  0.00  0.00    +0.295 HD
ENDBRANCH  28   5
ENDBRANCH  25  28
ENDBRANCH  23  25
ENDBRANCH  22  23
ENDBRANCH  21  22
ENDBRANCH  17   7
TORSDOF 10
ENDMDL
