MODEL 1
REMARK VINA RESULT:      -6.3      0.000      0.000
REMARK  Name = 7134475
REMARK  11 active torsions:
REMARK  status: ('A' for Active; 'I' for Inactive)
REMARK    1  A    between atoms: S_1  and  N_12
REMARK    2  A    between atoms: S_1  and  C_23
REMARK    3  A    between atoms: O_5  and  C_16
REMARK    4  A    between atoms: O_6  and  C_18
REMARK    5  A    between atoms: O_7  and  C_20
REMARK    6  A    between atoms: N_12  and  C_15
REMARK    7  A    between atoms: N_13  and  C_22
REMARK    8  A    between atoms: C_16  and  C_21
REMARK    9  A    between atoms: C_22  and  C_25
REMARK   10  A    between atoms: C_22  and  C_27
REMARK   11  A    between atoms: C_28  and  C_31
REMARK                            x       y       z     vdW  Elec       q    Type
REMARK                         _______ _______ _______ _____ _____    ______ ____
ROOT
ATOM     15  C   UNL     1      -2.136   2.649  25.737  0.00  0.00    +0.111 C 
ATOM     16  C   UNL     1       0.048   2.169  24.541  0.00  0.00    +0.145 C 
ATOM     17  C   UNL     1      -1.395   1.720  24.771  0.00  0.00    +0.067 C 
ATOM     18  C   UNL     1      -2.068   4.116  25.298  0.00  0.00    +0.162 C 
ATOM     19  C   UNL     1       0.106   3.624  24.081  0.00  0.00    +0.078 C 
ATOM     20  C   UNL     1      -0.625   4.565  25.041  0.00  0.00    +0.148 C 
ENDROOT
BRANCH  16  21
ATOM      8  O   UNL     1       0.105   0.443  22.891  0.00  0.00    -0.273 OA
ATOM     13  N   UNL     1       2.088   1.521  23.463  0.00  0.00    -0.302 N 
ATOM     21  C   UNL     1       0.726   1.283  23.537  0.00  0.00    +0.245 C 
ATOM     36  H   UNL     1       2.507   2.238  24.046  0.00  0.00    +0.150 HD
BRANCH  13  22
ATOM     22  C   UNL     1       2.973   0.785  22.589  0.00  0.00    +0.156 C 
ATOM     25  C   UNL     1       2.225  -0.317  21.854  0.00  0.00    +0.038 C 
BRANCH  22  27
ATOM     11  O   UNL     1       5.024   0.885  23.885  0.00  0.00    -0.274 OA
ATOM     14  N   UNL     1       3.960  -1.139  23.668  0.00  0.00    -0.328 N 
ATOM     27  C   UNL     1       4.102   0.211  23.429  0.00  0.00    +0.231 C 
ATOM     37  H   UNL     1       4.640  -1.644  24.226  0.00  0.00    +0.145 HD
ATOM     38  H   UNL     1       3.181  -1.679  23.302  0.00  0.00    +0.145 HD
ENDBRANCH  22  27
ENDBRANCH  13  22
ENDBRANCH  16  21
BRANCH  16   5
ATOM      5  O   UNL     1       0.812   2.027  25.733  0.00  0.00    -0.379 OA
ATOM     33  H   UNL     1       0.741   2.845  26.253  0.00  0.00    +0.211 HD
ENDBRANCH  16   5
BRANCH  18   6
ATOM      6  O   UNL     1      -2.616   4.915  26.349  0.00  0.00    -0.388 OA
ATOM     34  H   UNL     1      -1.878   5.283  26.867  0.00  0.00    +0.210 HD
ENDBRANCH  18   6
BRANCH  20   7
ATOM      7  O   UNL     1      -0.625   5.866  24.455  0.00  0.00    -0.389 OA
ATOM     35  H   UNL     1      -0.544   6.513  25.176  0.00  0.00    +0.210 HD
ENDBRANCH  20   7
BRANCH  15  12
ATOM     12  N   UNL     1      -3.562   2.226  25.800  0.00  0.00    -0.184 NA
ATOM     32  H   UNL     1      -4.113   2.532  26.610  0.00  0.00    +0.148 HD
BRANCH  12   1
ATOM      1  S   UNL     1      -4.320   1.625  24.408  0.00  0.00    +0.059 S 
ATOM      9  O   UNL     1      -3.769   2.278  23.235  0.00  0.00    -0.153 OA
ATOM     10  O   UNL     1      -5.752   1.612  24.629  0.00  0.00    -0.153 OA
BRANCH   1  23
ATOM     23  C   UNL     1      -3.784  -0.060  24.395  0.00  0.00    +0.106 A 
ATOM     24  C   UNL     1      -2.507  -0.389  24.846  0.00  0.00    +0.041 A 
ATOM     26  C   UNL     1      -4.640  -1.060  23.934  0.00  0.00    +0.028 A 
ATOM     28  C   UNL     1      -2.084  -1.718  24.836  0.00  0.00    +0.057 A 
ATOM     29  C   UNL     1      -4.219  -2.389  23.923  0.00  0.00    +0.002 A 
ATOM     30  C   UNL     1      -2.941  -2.718  24.375  0.00  0.00    +0.012 A 
BRANCH  28  31
ATOM      2  F   UNL     1      -0.550  -3.405  25.561  0.00  0.00    -0.166 F 
ATOM      3  F   UNL     1       0.274  -1.742  24.438  0.00  0.00    -0.166 F 
ATOM      4  F   UNL     1      -0.395  -1.443  26.486  0.00  0.00    -0.166 F 
ATOM     31  C   UNL     1      -0.717  -2.071  25.318  0.00  0.00    +0.417 C 
ENDBRANCH  28  31
ENDBRANCH   1  23
ENDBRANCH  12   1
ENDBRANCH  15  12
TORSDOF 10
ENDMDL
MODEL 2
REMARK VINA RESULT:      -5.3      1.903      2.304
REMARK  Name = 7134475
REMARK  11 active torsions:
REMARK  status: ('A' for Active; 'I' for Inactive)
REMARK    1  A    between atoms: S_1  and  N_12
REMARK    2  A    between atoms: S_1  and  C_23
REMARK    3  A    between atoms: O_5  and  C_16
REMARK    4  A    between atoms: O_6  and  C_18
REMARK    5  A    between atoms: O_7  and  C_20
REMARK    6  A    between atoms: N_12  and  C_15
REMARK    7  A    between atoms: N_13  and  C_22
REMARK    8  A    between atoms: C_16  and  C_21
REMARK    9  A    between atoms: C_22  and  C_25
REMARK   10  A    between atoms: C_22  and  C_27
REMARK   11  A    between atoms: C_28  and  C_31
REMARK                            x       y       z     vdW  Elec       q    Type
REMARK                         _______ _______ _______ _____ _____    ______ ____
ROOT
ATOM     15  C   UNL     1      -2.237   3.548  26.392  0.00  0.00    +0.111 C 
ATOM     16  C   UNL     1      -0.338   2.295  25.270  0.00  0.00    +0.145 C 
ATOM     17  C   UNL     1      -1.766   2.212  25.810  0.00  0.00    +0.067 C 
ATOM     18  C   UNL     1      -2.079   4.702  25.395  0.00  0.00    +0.162 C 
ATOM     19  C   UNL     1      -0.196   3.432  24.260  0.00  0.00    +0.078 C 
ATOM     20  C   UNL     1      -0.656   4.775  24.832  0.00  0.00    +0.148 C 
ENDROOT
BRANCH  16  21
ATOM      8  O   UNL     1      -0.268  -0.088  25.117  0.00  0.00    -0.273 OA
ATOM     13  N   UNL     1       0.858   1.177  23.519  0.00  0.00    -0.302 N 
ATOM     21  C   UNL     1       0.068   0.993  24.642  0.00  0.00    +0.245 C 
ATOM     36  H   UNL     1       1.085   2.117  23.211  0.00  0.00    +0.150 HD
BRANCH  13  22
ATOM     22  C   UNL     1       1.399   0.083  22.746  0.00  0.00    +0.156 C 
ATOM     25  C   UNL     1       0.709  -1.227  23.094  0.00  0.00    +0.038 C 
BRANCH  22  27
ATOM     11  O   UNL     1       3.486  -1.045  23.262  0.00  0.00    -0.274 OA
ATOM     14  N   UNL     1       3.523   1.224  22.912  0.00  0.00    -0.328 N 
ATOM     27  C   UNL     1       2.893   0.003  23.017  0.00  0.00    +0.231 C 
ATOM     37  H   UNL     1       4.523   1.308  23.057  0.00  0.00    +0.145 HD
ATOM     38  H   UNL     1       3.023   2.079  22.688  0.00  0.00    +0.145 HD
ENDBRANCH  22  27
ENDBRANCH  13  22
ENDBRANCH  16  21
BRANCH  16   5
ATOM      5  O   UNL     1       0.587   2.498  26.332  0.00  0.00    -0.379 OA
ATOM     33  H   UNL     1       0.132   2.352  27.178  0.00  0.00    +0.211 HD
ENDBRANCH  16   5
BRANCH  18   6
ATOM      6  O   UNL     1      -2.361   5.921  26.087  0.00  0.00    -0.388 OA
ATOM     34  H   UNL     1      -3.091   5.756  26.708  0.00  0.00    +0.210 HD
ENDBRANCH  18   6
BRANCH  20   7
ATOM      7  O   UNL     1      -0.607   5.733  23.775  0.00  0.00    -0.389 OA
ATOM     35  H   UNL     1       0.239   6.207  23.846  0.00  0.00    +0.210 HD
ENDBRANCH  20   7
BRANCH  15  12
ATOM     12  N   UNL     1      -3.672   3.421  26.767  0.00  0.00    -0.184 NA
ATOM     32  H   UNL     1      -3.933   3.659  27.730  0.00  0.00    +0.148 HD
BRANCH  12   1
ATOM      1  S   UNL     1      -4.847   3.290  25.552  0.00  0.00    +0.059 S 
ATOM      9  O   UNL     1      -4.918   4.533  24.809  0.00  0.00    -0.153 OA
ATOM     10  O   UNL     1      -6.046   2.715  26.129  0.00  0.00    -0.153 OA
BRANCH   1  23
ATOM     23  C   UNL     1      -4.144   2.061  24.493  0.00  0.00    +0.106 A 
ATOM     24  C   UNL     1      -4.180   0.717  24.863  0.00  0.00    +0.041 A 
ATOM     26  C   UNL     1      -3.552   2.436  23.286  0.00  0.00    +0.028 A 
ATOM     28  C   UNL     1      -3.626  -0.252  24.028  0.00  0.00    +0.057 A 
ATOM     29  C   UNL     1      -2.998   1.467  22.451  0.00  0.00    +0.002 A 
ATOM     30  C   UNL     1      -3.035   0.123  22.821  0.00  0.00    +0.012 A 
BRANCH  28  31
ATOM      2  F   UNL     1      -4.693  -2.387  23.856  0.00  0.00    -0.166 F 
ATOM      3  F   UNL     1      -2.536  -2.380  24.084  0.00  0.00    -0.166 F 
ATOM      4  F   UNL     1      -3.806  -1.859  25.770  0.00  0.00    -0.166 F 
ATOM     31  C   UNL     1      -3.664  -1.690  24.423  0.00  0.00    +0.417 C 
ENDBRANCH  28  31
ENDBRANCH   1  23
ENDBRANCH  12   1
ENDBRANCH  15  12
TORSDOF 10
ENDMDL
MODEL 3
REMARK VINA RESULT:      -4.8      2.115      2.759
REMARK  Name = 7134475
REMARK  11 active torsions:
REMARK  status: ('A' for Active; 'I' for Inactive)
REMARK    1  A    between atoms: S_1  and  N_12
REMARK    2  A    between atoms: S_1  and  C_23
REMARK    3  A    between atoms: O_5  and  C_16
REMARK    4  A    between atoms: O_6  and  C_18
REMARK    5  A    between atoms: O_7  and  C_20
REMARK    6  A    between atoms: N_12  and  C_15
REMARK    7  A    between atoms: N_13  and  C_22
REMARK    8  A    between atoms: C_16  and  C_21
REMARK    9  A    between atoms: C_22  and  C_25
REMARK   10  A    between atoms: C_22  and  C_27
REMARK   11  A    between atoms: C_28  and  C_31
REMARK                            x       y       z     vdW  Elec       q    Type
REMARK                         _______ _______ _______ _____ _____    ______ ____
ROOT
ATOM     15  C   UNL     1      -1.657   2.846  24.468  0.00  0.00    +0.111 C 
ATOM     16  C   UNL     1       0.174   1.117  24.167  0.00  0.00    +0.145 C 
ATOM     17  C   UNL     1      -0.618   2.250  23.514  0.00  0.00    +0.067 C 
ATOM     18  C   UNL     1      -1.037   3.288  25.798  0.00  0.00    +0.162 C 
ATOM     19  C   UNL     1       0.808   1.573  25.480  0.00  0.00    +0.078 C 
ATOM     20  C   UNL     1      -0.221   2.163  26.445  0.00  0.00    +0.148 C 
ENDROOT
BRANCH  16  21
ATOM      8  O   UNL     1       1.005  -0.298  22.431  0.00  0.00    -0.273 OA
ATOM     13  N   UNL     1       2.447   1.242  23.415  0.00  0.00    -0.302 N 
ATOM     21  C   UNL     1       1.232   0.603  23.234  0.00  0.00    +0.245 C 
ATOM     36  H   UNL     1       2.532   1.974  24.113  0.00  0.00    +0.150 HD
BRANCH  13  22
ATOM     22  C   UNL     1       3.632   0.916  22.657  0.00  0.00    +0.156 C 
ATOM     25  C   UNL     1       3.291   0.063  21.446  0.00  0.00    +0.038 C 
BRANCH  22  27
ATOM     11  O   UNL     1       5.540   0.745  24.150  0.00  0.00    -0.274 OA
ATOM     14  N   UNL     1       4.291  -1.139  23.744  0.00  0.00    -0.328 N 
ATOM     27  C   UNL     1       4.602   0.194  23.579  0.00  0.00    +0.231 C 
ATOM     37  H   UNL     1       4.852  -1.734  24.344  0.00  0.00    +0.145 HD
ATOM     38  H   UNL     1       3.500  -1.577  23.281  0.00  0.00    +0.145 HD
ENDBRANCH  22  27
ENDBRANCH  13  22
ENDBRANCH  16  21
BRANCH  16   5
ATOM      5  O   UNL     1      -0.669  -0.000  24.421  0.00  0.00    -0.379 OA
ATOM     33  H   UNL     1      -0.140  -0.813  24.369  0.00  0.00    +0.211 HD
ENDBRANCH  16   5
BRANCH  18   6
ATOM      6  O   UNL     1      -2.103   3.647  26.681  0.00  0.00    -0.388 OA
ATOM     34  H   UNL     1      -2.702   2.885  26.760  0.00  0.00    +0.210 HD
ENDBRANCH  18   6
BRANCH  20   7
ATOM      7  O   UNL     1       0.488   2.674  27.573  0.00  0.00    -0.389 OA
ATOM     35  H   UNL     1       0.887   1.918  28.037  0.00  0.00    +0.210 HD
ENDBRANCH  20   7
BRANCH  15  12
ATOM     12  N   UNL     1      -2.285   4.024  23.808  0.00  0.00    -0.184 NA
ATOM     32  H   UNL     1      -1.660   4.748  23.437  0.00  0.00    +0.148 HD
BRANCH  12   1
ATOM      1  S   UNL     1      -3.913   3.954  23.342  0.00  0.00    +0.059 S 
ATOM      9  O   UNL     1      -4.002   3.582  21.944  0.00  0.00    -0.153 OA
ATOM     10  O   UNL     1      -4.584   5.145  23.825  0.00  0.00    -0.153 OA
BRANCH   1  23
ATOM     23  C   UNL     1      -4.514   2.599  24.306  0.00  0.00    +0.106 A 
ATOM     24  C   UNL     1      -4.056   1.306  24.054  0.00  0.00    +0.041 A 
ATOM     26  C   UNL     1      -5.447   2.823  25.319  0.00  0.00    +0.028 A 
ATOM     28  C   UNL     1      -4.530   0.237  24.814  0.00  0.00    +0.057 A 
ATOM     29  C   UNL     1      -5.921   1.755  26.079  0.00  0.00    +0.002 A 
ATOM     30  C   UNL     1      -5.462   0.461  25.827  0.00  0.00    +0.012 A 
BRANCH  28  31
ATOM      2  F   UNL     1      -4.942  -1.925  23.877  0.00  0.00    -0.166 F 
ATOM      3  F   UNL     1      -2.905  -1.186  23.787  0.00  0.00    -0.166 F 
ATOM      4  F   UNL     1      -3.743  -1.828  25.688  0.00  0.00    -0.166 F 
ATOM     31  C   UNL     1      -4.041  -1.146  24.544  0.00  0.00    +0.417 C 
ENDBRANCH  28  31
ENDBRANCH   1  23
ENDBRANCH  12   1
ENDBRANCH  15  12
TORSDOF 10
ENDMDL
MODEL 4
REMARK VINA RESULT:      -4.5      1.740      2.202
REMARK  Name = 7134475
REMARK  11 active torsions:
REMARK  status: ('A' for Active; 'I' for Inactive)
REMARK    1  A    between atoms: S_1  and  N_12
REMARK    2  A    between atoms: S_1  and  C_23
REMARK    3  A    between atoms: O_5  and  C_16
REMARK    4  A    between atoms: O_6  and  C_18
REMARK    5  A    between atoms: O_7  and  C_20
REMARK    6  A    between atoms: N_12  and  C_15
REMARK    7  A    between atoms: N_13  and  C_22
REMARK    8  A    between atoms: C_16  and  C_21
REMARK    9  A    between atoms: C_22  and  C_25
REMARK   10  A    between atoms: C_22  and  C_27
REMARK   11  A    between atoms: C_28  and  C_31
REMARK                            x       y       z     vdW  Elec       q    Type
REMARK                         _______ _______ _______ _____ _____    ______ ____
ROOT
ATOM     15  C   UNL     1      -2.593   2.527  24.799  0.00  0.00    +0.111 C 
ATOM     16  C   UNL     1      -0.244   1.635  24.454  0.00  0.00    +0.145 C 
ATOM     17  C   UNL     1      -1.707   1.552  24.018  0.00  0.00    +0.067 C 
ATOM     18  C   UNL     1      -2.069   3.965  24.735  0.00  0.00    +0.162 C 
ATOM     19  C   UNL     1       0.278   3.068  24.364  0.00  0.00    +0.078 C 
ATOM     20  C   UNL     1      -0.595   4.051  25.147  0.00  0.00    +0.148 C 
ENDROOT
BRANCH  16  21
ATOM      8  O   UNL     1       0.237  -0.404  23.306  0.00  0.00    -0.273 OA
ATOM     13  N   UNL     1       1.829   1.295  23.298  0.00  0.00    -0.302 N 
ATOM     21  C   UNL     1       0.610   0.722  23.623  0.00  0.00    +0.245 C 
ATOM     36  H   UNL     1       2.044   2.235  23.615  0.00  0.00    +0.150 HD
BRANCH  13  22
ATOM     22  C   UNL     1       2.841   0.615  22.525  0.00  0.00    +0.156 C 
ATOM     25  C   UNL     1       2.214  -0.332  21.514  0.00  0.00    +0.038 C 
BRANCH  22  27
ATOM     11  O   UNL     1       3.653  -1.339  23.716  0.00  0.00    -0.274 OA
ATOM     14  N   UNL     1       4.726   0.666  24.037  0.00  0.00    -0.328 N 
ATOM     27  C   UNL     1       3.750  -0.136  23.485  0.00  0.00    +0.231 C 
ATOM     37  H   UNL     1       5.407   0.287  24.686  0.00  0.00    +0.145 HD
ATOM     38  H   UNL     1       4.806   1.655  23.820  0.00  0.00    +0.145 HD
ENDBRANCH  22  27
ENDBRANCH  13  22
ENDBRANCH  16  21
BRANCH  16   5
ATOM      5  O   UNL     1      -0.093   1.167  25.789  0.00  0.00    -0.379 OA
ATOM     33  H   UNL     1       0.082   0.212  25.771  0.00  0.00    +0.211 HD
ENDBRANCH  16   5
BRANCH  18   6
ATOM      6  O   UNL     1      -2.844   4.756  25.639  0.00  0.00    -0.388 OA
ATOM     34  H   UNL     1      -3.261   4.158  26.284  0.00  0.00    +0.210 HD
ENDBRANCH  18   6
BRANCH  20   7
ATOM      7  O   UNL     1      -0.101   5.365  24.890  0.00  0.00    -0.389 OA
ATOM     35  H   UNL     1       0.148   5.408  23.951  0.00  0.00    +0.210 HD
ENDBRANCH  20   7
BRANCH  15  12
ATOM     12  N   UNL     1      -3.965   2.483  24.224  0.00  0.00    -0.184 NA
ATOM     32  H   UNL     1      -4.082   2.788  23.251  0.00  0.00    +0.148 HD
BRANCH  12   1
ATOM      1  S   UNL     1      -5.175   1.593  25.010  0.00  0.00    +0.059 S 
ATOM      9  O   UNL     1      -6.268   1.341  24.090  0.00  0.00    -0.153 OA
ATOM     10  O   UNL     1      -5.433   2.201  26.300  0.00  0.00    -0.153 OA
BRANCH   1  23
ATOM     23  C   UNL     1      -4.358   0.055  25.318  0.00  0.00    +0.106 A 
ATOM     24  C   UNL     1      -4.386  -0.955  24.358  0.00  0.00    +0.041 A 
ATOM     26  C   UNL     1      -3.686  -0.147  26.524  0.00  0.00    +0.028 A 
ATOM     28  C   UNL     1      -3.742  -2.167  24.602  0.00  0.00    +0.057 A 
ATOM     29  C   UNL     1      -3.042  -1.360  26.769  0.00  0.00    +0.002 A 
ATOM     30  C   UNL     1      -3.069  -2.370  25.807  0.00  0.00    +0.012 A 
BRANCH  28  31
ATOM      2  F   UNL     1      -2.534  -3.617  23.131  0.00  0.00    -0.166 F 
ATOM      3  F   UNL     1      -4.352  -4.405  24.014  0.00  0.00    -0.166 F 
ATOM      4  F   UNL     1      -4.470  -2.892  22.457  0.00  0.00    -0.166 F 
ATOM     31  C   UNL     1      -3.772  -3.249  23.574  0.00  0.00    +0.417 C 
ENDBRANCH  28  31
ENDBRANCH   1  23
ENDBRANCH  12   1
ENDBRANCH  15  12
TORSDOF 10
ENDMDL
MODEL 5
REMARK VINA RESULT:      -4.1      2.292      3.124
REMARK  Name = 7134475
REMARK  11 active torsions:
REMARK  status: ('A' for Active; 'I' for Inactive)
REMARK    1  A    between atoms: S_1  and  N_12
REMARK    2  A    between atoms: S_1  and  C_23
REMARK    3  A    between atoms: O_5  and  C_16
REMARK    4  A    between atoms: O_6  and  C_18
REMARK    5  A    between atoms: O_7  and  C_20
REMARK    6  A    between atoms: N_12  and  C_15
REMARK    7  A    between atoms: N_13  and  C_22
REMARK    8  A    between atoms: C_16  and  C_21
REMARK    9  A    between atoms: C_22  and  C_25
REMARK   10  A    between atoms: C_22  and  C_27
REMARK   11  A    between atoms: C_28  and  C_31
REMARK                            x       y       z     vdW  Elec       q    Type
REMARK                         _______ _______ _______ _____ _____    ______ ____
ROOT
ATOM     15  C   UNL     1      -2.409   3.707  26.524  0.00  0.00    +0.111 C 
ATOM     16  C   UNL     1      -0.305   2.912  25.352  0.00  0.00    +0.145 C 
ATOM     17  C   UNL     1      -1.671   2.513  25.911  0.00  0.00    +0.067 C 
ATOM     18  C   UNL     1      -2.523   4.881  25.546  0.00  0.00    +0.162 C 
ATOM     19  C   UNL     1      -0.430   4.067  24.362  0.00  0.00    +0.078 C 
ATOM     20  C   UNL     1      -1.159   5.270  24.964  0.00  0.00    +0.148 C 
ENDROOT
BRANCH  16  21
ATOM      8  O   UNL     1       1.321   1.878  23.939  0.00  0.00    -0.273 OA
ATOM     13  N   UNL     1      -0.240   0.538  25.030  0.00  0.00    -0.302 N 
ATOM     21  C   UNL     1       0.363   1.739  24.695  0.00  0.00    +0.245 C 
ATOM     36  H   UNL     1      -1.034   0.532  25.663  0.00  0.00    +0.150 HD
BRANCH  13  22
ATOM     22  C   UNL     1       0.198  -0.738  24.513  0.00  0.00    +0.156 C 
ATOM     25  C   UNL     1      -0.140  -0.875  23.036  0.00  0.00    +0.038 C 
BRANCH  22  27
ATOM     11  O   UNL     1      -0.415  -3.028  25.038  0.00  0.00    -0.274 OA
ATOM     14  N   UNL     1      -1.093  -1.357  26.460  0.00  0.00    -0.328 N 
ATOM     27  C   UNL     1      -0.466  -1.835  25.329  0.00  0.00    +0.231 C 
ATOM     37  H   UNL     1      -1.564  -1.987  27.100  0.00  0.00    +0.145 HD
ATOM     38  H   UNL     1      -1.108  -0.370  26.700  0.00  0.00    +0.145 HD
ENDBRANCH  22  27
ENDBRANCH  13  22
ENDBRANCH  16  21
BRANCH  16   5
ATOM      5  O   UNL     1       0.573   3.294  26.405  0.00  0.00    -0.379 OA
ATOM     33  H   UNL     1       0.737   4.250  26.348  0.00  0.00    +0.211 HD
ENDBRANCH  16   5
BRANCH  18   6
ATOM      6  O   UNL     1      -3.050   6.001  26.264  0.00  0.00    -0.388 OA
ATOM     34  H   UNL     1      -2.577   6.067  27.112  0.00  0.00    +0.210 HD
ENDBRANCH  18   6
BRANCH  20   7
ATOM      7  O   UNL     1      -1.338   6.232  23.925  0.00  0.00    -0.389 OA
ATOM     35  H   UNL     1      -0.876   5.901  23.136  0.00  0.00    +0.210 HD
ENDBRANCH  20   7
BRANCH  15  12
ATOM     12  N   UNL     1      -3.776   3.266  26.917  0.00  0.00    -0.184 NA
ATOM     32  H   UNL     1      -4.014   3.293  27.914  0.00  0.00    +0.148 HD
BRANCH  12   1
ATOM      1  S   UNL     1      -4.983   3.128  25.735  0.00  0.00    +0.059 S 
ATOM      9  O   UNL     1      -5.120   4.389  25.031  0.00  0.00    -0.153 OA
ATOM     10  O   UNL     1      -6.144   2.496  26.331  0.00  0.00    -0.153 OA
BRANCH   1  23
ATOM     23  C   UNL     1      -4.274   1.954  24.619  0.00  0.00    +0.106 A 
ATOM     24  C   UNL     1      -4.391   0.589  24.876  0.00  0.00    +0.041 A 
ATOM     26  C   UNL     1      -3.595   2.395  23.483  0.00  0.00    +0.028 A 
ATOM     28  C   UNL     1      -3.831  -0.336  23.996  0.00  0.00    +0.057 A 
ATOM     29  C   UNL     1      -3.035   1.470  22.602  0.00  0.00    +0.002 A 
ATOM     30  C   UNL     1      -3.154   0.104  22.858  0.00  0.00    +0.012 A 
BRANCH  28  31
ATOM      2  F   UNL     1      -3.924  -2.111  25.599  0.00  0.00    -0.166 F 
ATOM      3  F   UNL     1      -5.117  -2.344  23.802  0.00  0.00    -0.166 F 
ATOM      4  F   UNL     1      -2.953  -2.525  23.698  0.00  0.00    -0.166 F 
ATOM     31  C   UNL     1      -3.956  -1.798  24.269  0.00  0.00    +0.417 C 
ENDBRANCH  28  31
ENDBRANCH   1  23
ENDBRANCH  12   1
ENDBRANCH  15  12
TORSDOF 10
ENDMDL
MODEL 6
REMARK VINA RESULT:      -4.0      3.466      6.015
REMARK  Name = 7134475
REMARK  11 active torsions:
REMARK  status: ('A' for Active; 'I' for Inactive)
REMARK    1  A    between atoms: S_1  and  N_12
REMARK    2  A    between atoms: S_1  and  C_23
REMARK    3  A    between atoms: O_5  and  C_16
REMARK    4  A    between atoms: O_6  and  C_18
REMARK    5  A    between atoms: O_7  and  C_20
REMARK    6  A    between atoms: N_12  and  C_15
REMARK    7  A    between atoms: N_13  and  C_22
REMARK    8  A    between atoms: C_16  and  C_21
REMARK    9  A    between atoms: C_22  and  C_25
REMARK   10  A    between atoms: C_22  and  C_27
REMARK   11  A    between atoms: C_28  and  C_31
REMARK                            x       y       z     vdW  Elec       q    Type
REMARK                         _______ _______ _______ _____ _____    ______ ____
ROOT
ATOM     15  C   UNL     1       0.883   1.632  24.217  0.00  0.00    +0.111 C 
ATOM     16  C   UNL     1      -0.170  -0.673  24.133  0.00  0.00    +0.145 C 
ATOM     17  C   UNL     1      -0.421   0.830  24.248  0.00  0.00    +0.067 C 
ATOM     18  C   UNL     1       1.741   1.297  22.993  0.00  0.00    +0.162 C 
ATOM     19  C   UNL     1       0.666  -1.001  22.898  0.00  0.00    +0.078 C 
ATOM     20  C   UNL     1       1.976  -0.212  22.859  0.00  0.00    +0.148 C 
ENDROOT
BRANCH  16  21
ATOM      8  O   UNL     1      -1.510  -2.634  23.876  0.00  0.00    -0.273 OA
ATOM     13  N   UNL     1      -2.559  -0.601  24.304  0.00  0.00    -0.302 N 
ATOM     21  C   UNL     1      -1.468  -1.426  24.094  0.00  0.00    +0.245 C 
ATOM     36  H   UNL     1      -2.417   0.390  24.471  0.00  0.00    +0.150 HD
BRANCH  13  22
ATOM     22  C   UNL     1      -3.923  -1.075  24.293  0.00  0.00    +0.156 C 
ATOM     25  C   UNL     1      -4.780  -0.305  25.286  0.00  0.00    +0.038 C 
BRANCH  22  27
ATOM     11  O   UNL     1      -3.592  -3.018  25.712  0.00  0.00    -0.274 OA
ATOM     14  N   UNL     1      -4.348  -3.341  23.568  0.00  0.00    -0.328 N 
ATOM     27  C   UNL     1      -3.913  -2.560  24.618  0.00  0.00    +0.231 C 
ATOM     37  H   UNL     1      -4.401  -4.350  23.656  0.00  0.00    +0.145 HD
ATOM     38  H   UNL     1      -4.630  -2.947  22.675  0.00  0.00    +0.145 HD
ENDBRANCH  22  27
ENDBRANCH  13  22
ENDBRANCH  16  21
BRANCH  16   5
ATOM      5  O   UNL     1       0.502  -1.157  25.291  0.00  0.00    -0.379 OA
ATOM     33  H   UNL     1       1.154  -0.496  25.576  0.00  0.00    +0.211 HD
ENDBRANCH  16   5
BRANCH  18   6
ATOM      6  O   UNL     1       3.006   1.945  23.152  0.00  0.00    -0.388 OA
ATOM     34  H   UNL     1       3.611   1.601  22.471  0.00  0.00    +0.210 HD
ENDBRANCH  18   6
BRANCH  20   7
ATOM      7  O   UNL     1       2.611  -0.490  21.611  0.00  0.00    -0.389 OA
ATOM     35  H   UNL     1       3.559  -0.301  21.716  0.00  0.00    +0.210 HD
ENDBRANCH  20   7
BRANCH  15  12
ATOM     12  N   UNL     1       0.547   3.082  24.194  0.00  0.00    -0.184 NA
ATOM     32  H   UNL     1       0.813   3.618  23.360  0.00  0.00    +0.148 HD
BRANCH  12   1
ATOM      1  S   UNL     1      -0.574   3.700  25.305  0.00  0.00    +0.059 S 
ATOM      9  O   UNL     1      -0.488   5.148  25.328  0.00  0.00    -0.153 OA
ATOM     10  O   UNL     1      -0.468   2.944  26.538  0.00  0.00    -0.153 OA
BRANCH   1  23
ATOM     23  C   UNL     1      -2.114   3.257  24.560  0.00  0.00    +0.106 A 
ATOM     24  C   UNL     1      -3.295   3.338  25.297  0.00  0.00    +0.041 A 
ATOM     26  C   UNL     1      -2.149   2.826  23.234  0.00  0.00    +0.028 A 
ATOM     28  C   UNL     1      -4.510   2.988  24.709  0.00  0.00    +0.057 A 
ATOM     29  C   UNL     1      -3.363   2.476  22.645  0.00  0.00    +0.002 A 
ATOM     30  C   UNL     1      -4.544   2.558  23.382  0.00  0.00    +0.012 A 
BRANCH  28  31
ATOM      2  F   UNL     1      -5.648   2.631  26.784  0.00  0.00    -0.166 F 
ATOM      3  F   UNL     1      -6.267   4.343  25.604  0.00  0.00    -0.166 F 
ATOM      4  F   UNL     1      -6.782   2.333  24.953  0.00  0.00    -0.166 F 
ATOM     31  C   UNL     1      -5.774   3.073  25.498  0.00  0.00    +0.417 C 
ENDBRANCH  28  31
ENDBRANCH   1  23
ENDBRANCH  12   1
ENDBRANCH  15  12
TORSDOF 10
ENDMDL
MODEL 7
REMARK VINA RESULT:      -3.8      3.807      5.424
REMARK  Name = 7134475
REMARK  11 active torsions:
REMARK  status: ('A' for Active; 'I' for Inactive)
REMARK    1  A    between atoms: S_1  and  N_12
REMARK    2  A    between atoms: S_1  and  C_23
REMARK    3  A    between atoms: O_5  and  C_16
REMARK    4  A    between atoms: O_6  and  C_18
REMARK    5  A    between atoms: O_7  and  C_20
REMARK    6  A    between atoms: N_12  and  C_15
REMARK    7  A    between atoms: N_13  and  C_22
REMARK    8  A    between atoms: C_16  and  C_21
REMARK    9  A    between atoms: C_22  and  C_25
REMARK   10  A    between atoms: C_22  and  C_27
REMARK   11  A    between atoms: C_28  and  C_31
REMARK                            x       y       z     vdW  Elec       q    Type
REMARK                         _______ _______ _______ _____ _____    ______ ____
ROOT
ATOM     15  C   UNL     1      -0.899  -0.103  24.196  0.00  0.00    +0.111 C 
ATOM     16  C   UNL     1       0.038   1.992  25.275  0.00  0.00    +0.145 C 
ATOM     17  C   UNL     1      -0.811   0.737  25.474  0.00  0.00    +0.067 C 
ATOM     18  C   UNL     1       0.484  -0.443  23.630  0.00  0.00    +0.162 C 
ATOM     19  C   UNL     1       1.422   1.642  24.733  0.00  0.00    +0.078 C 
ATOM     20  C   UNL     1       1.348   0.810  23.451  0.00  0.00    +0.148 C 
ENDROOT
BRANCH  16  21
ATOM      8  O   UNL     1      -0.741   3.468  26.984  0.00  0.00    -0.273 OA
ATOM     13  N   UNL     1       1.400   2.570  27.161  0.00  0.00    -0.302 N 
ATOM     21  C   UNL     1       0.165   2.756  26.561  0.00  0.00    +0.245 C 
ATOM     36  H   UNL     1       2.085   1.962  26.725  0.00  0.00    +0.150 HD
BRANCH  13  22
ATOM     22  C   UNL     1       1.782   3.212  28.397  0.00  0.00    +0.156 C 
ATOM     25  C   UNL     1       3.294   3.331  28.508  0.00  0.00    +0.038 C 
BRANCH  22  27
ATOM     11  O   UNL     1       0.090   2.576  30.018  0.00  0.00    -0.274 OA
ATOM     14  N   UNL     1       2.071   1.416  29.988  0.00  0.00    -0.328 N 
ATOM     27  C   UNL     1       1.213   2.401  29.550  0.00  0.00    +0.231 C 
ATOM     37  H   UNL     1       1.808   0.794  30.745  0.00  0.00    +0.145 HD
ATOM     38  H   UNL     1       2.988   1.269  29.578  0.00  0.00    +0.145 HD
ENDBRANCH  22  27
ENDBRANCH  13  22
ENDBRANCH  16  21
BRANCH  16   5
ATOM      5  O   UNL     1      -0.601   2.890  24.374  0.00  0.00    -0.379 OA
ATOM     33  H   UNL     1       0.053   3.212  23.732  0.00  0.00    +0.211 HD
ENDBRANCH  16   5
BRANCH  18   6
ATOM      6  O   UNL     1       0.296  -1.056  22.351  0.00  0.00    -0.388 OA
ATOM     34  H   UNL     1       0.831  -0.569  21.700  0.00  0.00    +0.210 HD
ENDBRANCH  18   6
BRANCH  20   7
ATOM      7  O   UNL     1       2.680   0.428  23.107  0.00  0.00    -0.389 OA
ATOM     35  H   UNL     1       3.002  -0.173  23.801  0.00  0.00    +0.210 HD
ENDBRANCH  20   7
BRANCH  15  12
ATOM     12  N   UNL     1      -1.621  -1.367  24.509  0.00  0.00    -0.184 NA
ATOM     32  H   UNL     1      -1.066  -2.157  24.855  0.00  0.00    +0.148 HD
BRANCH  12   1
ATOM      1  S   UNL     1      -3.308  -1.349  24.671  0.00  0.00    +0.059 S 
ATOM      9  O   UNL     1      -3.666  -1.598  26.054  0.00  0.00    -0.153 OA
ATOM     10  O   UNL     1      -3.883  -2.155  23.612  0.00  0.00    -0.153 OA
BRANCH   1  23
ATOM     23  C   UNL     1      -3.695   0.337  24.303  0.00  0.00    +0.106 A 
ATOM     24  C   UNL     1      -4.333   1.130  25.256  0.00  0.00    +0.041 A 
ATOM     26  C   UNL     1      -3.364   0.872  23.058  0.00  0.00    +0.028 A 
ATOM     28  C   UNL     1      -4.639   2.459  24.965  0.00  0.00    +0.057 A 
ATOM     29  C   UNL     1      -3.669   2.201  22.767  0.00  0.00    +0.002 A 
ATOM     30  C   UNL     1      -4.306   2.995  23.721  0.00  0.00    +0.012 A 
BRANCH  28  31
ATOM      2  F   UNL     1      -6.102   4.291  25.444  0.00  0.00    -0.166 F 
ATOM      3  F   UNL     1      -6.151   2.608  26.813  0.00  0.00    -0.166 F 
ATOM      4  F   UNL     1      -4.440   3.951  26.805  0.00  0.00    -0.166 F 
ATOM     31  C   UNL     1      -5.321   3.309  25.984  0.00  0.00    +0.417 C 
ENDBRANCH  28  31
ENDBRANCH   1  23
ENDBRANCH  12   1
ENDBRANCH  15  12
TORSDOF 10
ENDMDL
MODEL 8
REMARK VINA RESULT:      -3.5      3.478      7.065
REMARK  Name = 7134475
REMARK  11 active torsions:
REMARK  status: ('A' for Active; 'I' for Inactive)
REMARK    1  A    between atoms: S_1  and  N_12
REMARK    2  A    between atoms: S_1  and  C_23
REMARK    3  A    between atoms: O_5  and  C_16
REMARK    4  A    between atoms: O_6  and  C_18
REMARK    5  A    between atoms: O_7  and  C_20
REMARK    6  A    between atoms: N_12  and  C_15
REMARK    7  A    between atoms: N_13  and  C_22
REMARK    8  A    between atoms: C_16  and  C_21
REMARK    9  A    between atoms: C_22  and  C_25
REMARK   10  A    between atoms: C_22  and  C_27
REMARK   11  A    between atoms: C_28  and  C_31
REMARK                            x       y       z     vdW  Elec       q    Type
REMARK                         _______ _______ _______ _____ _____    ______ ____
ROOT
ATOM     15  C   UNL     1      -1.467  -1.473  24.937  0.00  0.00    +0.111 C 
ATOM     16  C   UNL     1      -3.783  -0.489  25.258  0.00  0.00    +0.145 C 
ATOM     17  C   UNL     1      -2.312  -0.195  24.960  0.00  0.00    +0.067 C 
ATOM     18  C   UNL     1      -2.035  -2.526  23.981  0.00  0.00    +0.162 C 
ATOM     19  C   UNL     1      -4.347  -1.522  24.286  0.00  0.00    +0.078 C 
ATOM     20  C   UNL     1      -3.516  -2.806  24.259  0.00  0.00    +0.148 C 
ENDROOT
BRANCH  16  21
ATOM      8  O   UNL     1      -5.653   0.888  25.819  0.00  0.00    -0.273 OA
ATOM     13  N   UNL     1      -4.026   1.728  24.381  0.00  0.00    -0.302 N 
ATOM     21  C   UNL     1      -4.597   0.771  25.203  0.00  0.00    +0.245 C 
ATOM     36  H   UNL     1      -3.149   1.530  23.910  0.00  0.00    +0.150 HD
BRANCH  13  22
ATOM     22  C   UNL     1      -4.623   3.021  24.139  0.00  0.00    +0.156 C 
ATOM     25  C   UNL     1      -3.795   3.832  23.155  0.00  0.00    +0.038 C 
BRANCH  22  27
ATOM     11  O   UNL     1      -3.789   4.067  26.166  0.00  0.00    -0.274 OA
ATOM     14  N   UNL     1      -6.056   4.039  25.799  0.00  0.00    -0.328 N 
ATOM     27  C   UNL     1      -4.749   3.743  25.472  0.00  0.00    +0.231 C 
ATOM     37  H   UNL     1      -6.279   4.531  26.657  0.00  0.00    +0.145 HD
ATOM     38  H   UNL     1      -6.838   3.783  25.205  0.00  0.00    +0.145 HD
ENDBRANCH  22  27
ENDBRANCH  13  22
ENDBRANCH  16  21
BRANCH  16   5
ATOM      5  O   UNL     1      -3.937  -0.969  26.589  0.00  0.00    -0.379 OA
ATOM     33  H   UNL     1      -3.326  -0.488  27.171  0.00  0.00    +0.211 HD
ENDBRANCH  16   5
BRANCH  18   6
ATOM      6  O   UNL     1      -1.297  -3.736  24.171  0.00  0.00    -0.388 OA
ATOM     34  H   UNL     1      -0.480  -3.679  23.644  0.00  0.00    +0.210 HD
ENDBRANCH  18   6
BRANCH  20   7
ATOM      7  O   UNL     1      -4.047  -3.643  23.232  0.00  0.00    -0.389 OA
ATOM     35  H   UNL     1      -4.372  -3.065  22.520  0.00  0.00    +0.210 HD
ENDBRANCH  20   7
BRANCH  15  12
ATOM     12  N   UNL     1      -0.087  -1.119  24.507  0.00  0.00    -0.184 NA
ATOM     32  H   UNL     1       0.646  -1.825  24.636  0.00  0.00    +0.148 HD
BRANCH  12   1
ATOM      1  S   UNL     1       0.158   0.216  23.491  0.00  0.00    +0.059 S 
ATOM      9  O   UNL     1      -0.884   0.256  22.483  0.00  0.00    -0.153 OA
ATOM     10  O   UNL     1       1.553   0.251  23.101  0.00  0.00    -0.153 OA
BRANCH   1  23
ATOM     23  C   UNL     1      -0.102   1.572  24.596  0.00  0.00    +0.106 A 
ATOM     24  C   UNL     1      -0.273   2.860  24.092  0.00  0.00    +0.041 A 
ATOM     26  C   UNL     1      -0.134   1.352  25.974  0.00  0.00    +0.028 A 
ATOM     28  C   UNL     1      -0.477   3.929  24.963  0.00  0.00    +0.057 A 
ATOM     29  C   UNL     1      -0.338   2.421  26.846  0.00  0.00    +0.002 A 
ATOM     30  C   UNL     1      -0.511   3.710  26.340  0.00  0.00    +0.012 A 
BRANCH  28  31
ATOM      2  F   UNL     1      -1.950   5.754  24.486  0.00  0.00    -0.166 F 
ATOM      3  F   UNL     1       0.076   6.254  25.080  0.00  0.00    -0.166 F 
ATOM      4  F   UNL     1      -0.300   5.410  23.111  0.00  0.00    -0.166 F 
ATOM     31  C   UNL     1      -0.660   5.308  24.424  0.00  0.00    +0.417 C 
ENDBRANCH  28  31
ENDBRANCH   1  23
ENDBRANCH  12   1
ENDBRANCH  15  12
TORSDOF 10
ENDMDL
MODEL 9
REMARK VINA RESULT:      -3.3      3.011      7.077
REMARK  Name = 7134475
REMARK  11 active torsions:
REMARK  status: ('A' for Active; 'I' for Inactive)
REMARK    1  A    between atoms: S_1  and  N_12
REMARK    2  A    between atoms: S_1  and  C_23
REMARK    3  A    between atoms: O_5  and  C_16
REMARK    4  A    between atoms: O_6  and  C_18
REMARK    5  A    between atoms: O_7  and  C_20
REMARK    6  A    between atoms: N_12  and  C_15
REMARK    7  A    between atoms: N_13  and  C_22
REMARK    8  A    between atoms: C_16  and  C_21
REMARK    9  A    between atoms: C_22  and  C_25
REMARK   10  A    between atoms: C_22  and  C_27
REMARK   11  A    between atoms: C_28  and  C_31
REMARK                            x       y       z     vdW  Elec       q    Type
REMARK                         _______ _______ _______ _____ _____    ______ ____
ROOT
ATOM     15  C   UNL     1      -1.576  -0.854  25.416  0.00  0.00    +0.111 C 
ATOM     16  C   UNL     1      -3.979  -0.083  25.162  0.00  0.00    +0.145 C 
ATOM     17  C   UNL     1      -2.506   0.328  25.127  0.00  0.00    +0.067 C 
ATOM     18  C   UNL     1      -1.849  -2.046  24.493  0.00  0.00    +0.162 C 
ATOM     19  C   UNL     1      -4.247  -1.256  24.222  0.00  0.00    +0.078 C 
ATOM     20  C   UNL     1      -3.329  -2.446  24.506  0.00  0.00    +0.148 C 
ENDROOT
BRANCH  16  21
ATOM      8  O   UNL     1      -6.045   0.926  24.513  0.00  0.00    -0.273 OA
ATOM     13  N   UNL     1      -4.179   2.282  24.829  0.00  0.00    -0.302 N 
ATOM     21  C   UNL     1      -4.862   1.078  24.805  0.00  0.00    +0.245 C 
ATOM     36  H   UNL     1      -3.195   2.299  25.079  0.00  0.00    +0.150 HD
BRANCH  13  22
ATOM     22  C   UNL     1      -4.795   3.547  24.502  0.00  0.00    +0.156 C 
ATOM     25  C   UNL     1      -3.746   4.619  24.251  0.00  0.00    +0.038 C 
BRANCH  22  27
ATOM     11  O   UNL     1      -6.243   5.043  25.752  0.00  0.00    -0.274 OA
ATOM     14  N   UNL     1      -5.930   2.908  26.538  0.00  0.00    -0.328 N 
ATOM     27  C   UNL     1      -5.714   3.939  25.648  0.00  0.00    +0.231 C 
ATOM     37  H   UNL     1      -6.535   3.033  27.342  0.00  0.00    +0.145 HD
ATOM     38  H   UNL     1      -5.503   1.993  26.427  0.00  0.00    +0.145 HD
ENDBRANCH  22  27
ENDBRANCH  13  22
ENDBRANCH  16  21
BRANCH  16   5
ATOM      5  O   UNL     1      -4.364  -0.447  26.483  0.00  0.00    -0.379 OA
ATOM     33  H   UNL     1      -3.758  -0.028  27.115  0.00  0.00    +0.211 HD
ENDBRANCH  16   5
BRANCH  18   6
ATOM      6  O   UNL     1      -1.072  -3.151  24.961  0.00  0.00    -0.388 OA
ATOM     34  H   UNL     1      -1.027  -3.813  24.249  0.00  0.00    +0.210 HD
ENDBRANCH  18   6
BRANCH  20   7
ATOM      7  O   UNL     1      -3.569  -3.427  23.496  0.00  0.00    -0.389 OA
ATOM     35  H   UNL     1      -4.464  -3.780  23.637  0.00  0.00    +0.210 HD
ENDBRANCH  20   7
BRANCH  15  12
ATOM     12  N   UNL     1      -0.169  -0.405  25.227  0.00  0.00    -0.184 NA
ATOM     32  H   UNL     1       0.576  -1.087  25.411  0.00  0.00    +0.148 HD
BRANCH  12   1
ATOM      1  S   UNL     1       0.148   1.019  24.363  0.00  0.00    +0.059 S 
ATOM      9  O   UNL     1       0.607   2.048  25.275  0.00  0.00    -0.153 OA
ATOM     10  O   UNL     1      -0.967   1.277  23.473  0.00  0.00    -0.153 OA
BRANCH   1  23
ATOM     23  C   UNL     1       1.515   0.538  23.350  0.00  0.00    +0.106 A 
ATOM     24  C   UNL     1       2.813   0.601  23.855  0.00  0.00    +0.041 A 
ATOM     26  C   UNL     1       1.295   0.098  22.045  0.00  0.00    +0.028 A 
ATOM     28  C   UNL     1       3.891   0.222  23.056  0.00  0.00    +0.057 A 
ATOM     29  C   UNL     1       2.372  -0.281  21.245  0.00  0.00    +0.002 A 
ATOM     30  C   UNL     1       3.671  -0.220  21.751  0.00  0.00    +0.012 A 
BRANCH  28  31
ATOM      2  F   UNL     1       5.700   1.559  23.872  0.00  0.00    -0.166 F 
ATOM      3  F   UNL     1       5.448  -0.404  24.760  0.00  0.00    -0.166 F 
ATOM      4  F   UNL     1       6.204  -0.222  22.729  0.00  0.00    -0.166 F 
ATOM     31  C   UNL     1       5.281   0.289  23.595  0.00  0.00    +0.417 C 
ENDBRANCH  28  31
ENDBRANCH   1  23
ENDBRANCH  12   1
ENDBRANCH  15  12
TORSDOF 10
ENDMDL
MODEL 10
REMARK VINA RESULT:      -3.3      3.520      7.130
REMARK  Name = 7134475
REMARK  11 active torsions:
REMARK  status: ('A' for Active; 'I' for Inactive)
REMARK    1  A    between atoms: S_1  and  N_12
REMARK    2  A    between atoms: S_1  and  C_23
REMARK    3  A    between atoms: O_5  and  C_16
REMARK    4  A    between atoms: O_6  and  C_18
REMARK    5  A    between atoms: O_7  and  C_20
REMARK    6  A    between atoms: N_12  and  C_15
REMARK    7  A    between atoms: N_13  and  C_22
REMARK    8  A    between atoms: C_16  and  C_21
REMARK    9  A    between atoms: C_22  and  C_25
REMARK   10  A    between atoms: C_22  and  C_27
REMARK   11  A    between atoms: C_28  and  C_31
REMARK                            x       y       z     vdW  Elec       q    Type
REMARK                         _______ _______ _______ _____ _____    ______ ____
ROOT
ATOM     15  C   UNL     1      -1.097  -0.907  25.488  0.00  0.00    +0.111 C 
ATOM     16  C   UNL     1      -3.628  -0.892  25.329  0.00  0.00    +0.145 C 
ATOM     17  C   UNL     1      -2.351  -0.053  25.279  0.00  0.00    +0.067 C 
ATOM     18  C   UNL     1      -1.031  -2.089  24.516  0.00  0.00    +0.162 C 
ATOM     19  C   UNL     1      -3.564  -2.054  24.340  0.00  0.00    +0.078 C 
ATOM     20  C   UNL     1      -2.319  -2.920  24.544  0.00  0.00    +0.148 C 
ENDROOT
BRANCH  16  21
ATOM      8  O   UNL     1      -5.617  -0.308  24.142  0.00  0.00    -0.273 OA
ATOM     13  N   UNL     1      -4.916   1.046  25.902  0.00  0.00    -0.302 N 
ATOM     21  C   UNL     1      -4.833  -0.042  25.049  0.00  0.00    +0.245 C 
ATOM     36  H   UNL     1      -4.209   1.180  26.619  0.00  0.00    +0.150 HD
BRANCH  13  22
ATOM     22  C   UNL     1      -5.970   2.031  25.827  0.00  0.00    +0.156 C 
ATOM     25  C   UNL     1      -6.675   1.977  24.481  0.00  0.00    +0.038 C 
BRANCH  22  27
ATOM     11  O   UNL     1      -4.220   3.575  26.498  0.00  0.00    -0.274 OA
ATOM     14  N   UNL     1      -6.198   4.434  25.710  0.00  0.00    -0.328 N 
ATOM     27  C   UNL     1      -5.358   3.402  26.068  0.00  0.00    +0.231 C 
ATOM     37  H   UNL     1      -5.907   5.401  25.808  0.00  0.00    +0.145 HD
ATOM     38  H   UNL     1      -7.129   4.275  25.336  0.00  0.00    +0.145 HD
ENDBRANCH  22  27
ENDBRANCH  13  22
ENDBRANCH  16  21
BRANCH  16   5
ATOM      5  O   UNL     1      -3.836  -1.407  26.639  0.00  0.00    -0.379 OA
ATOM     33  H   UNL     1      -3.227  -2.148  26.787  0.00  0.00    +0.211 HD
ENDBRANCH  16   5
BRANCH  18   6
ATOM      6  O   UNL     1       0.061  -2.924  24.912  0.00  0.00    -0.388 OA
ATOM     34  H   UNL     1       0.860  -2.372  24.969  0.00  0.00    +0.210 HD
ENDBRANCH  18   6
BRANCH  20   7
ATOM      7  O   UNL     1      -2.289  -3.887  23.494  0.00  0.00    -0.389 OA
ATOM     35  H   UNL     1      -2.921  -4.589  23.724  0.00  0.00    +0.210 HD
ENDBRANCH  20   7
BRANCH  15  12
ATOM     12  N   UNL     1       0.101  -0.046  25.289  0.00  0.00    -0.184 NA
ATOM     32  H   UNL     1       0.843  -0.093  25.996  0.00  0.00    +0.148 HD
BRANCH  12   1
ATOM      1  S   UNL     1       0.387   0.652  23.771  0.00  0.00    +0.059 S 
ATOM      9  O   UNL     1       0.172  -0.337  22.733  0.00  0.00    -0.153 OA
ATOM     10  O   UNL     1       1.633   1.390  23.828  0.00  0.00    -0.153 OA
BRANCH   1  23
ATOM     23  C   UNL     1      -0.914   1.845  23.664  0.00  0.00    +0.106 A 
ATOM     24  C   UNL     1      -0.790   3.072  24.315  0.00  0.00    +0.041 A 
ATOM     26  C   UNL     1      -2.064   1.559  22.928  0.00  0.00    +0.028 A 
ATOM     28  C   UNL     1      -1.816   4.012  24.231  0.00  0.00    +0.057 A 
ATOM     29  C   UNL     1      -3.090   2.499  22.843  0.00  0.00    +0.002 A 
ATOM     30  C   UNL     1      -2.966   3.726  23.494  0.00  0.00    +0.012 A 
BRANCH  28  31
ATOM      2  F   UNL     1      -2.271   6.362  24.257  0.00  0.00    -0.166 F 
ATOM      3  F   UNL     1      -2.249   5.342  26.172  0.00  0.00    -0.166 F 
ATOM      4  F   UNL     1      -0.384   5.695  25.109  0.00  0.00    -0.166 F 
ATOM     31  C   UNL     1      -1.686   5.325  24.927  0.00  0.00    +0.417 C 
ENDBRANCH  28  31
ENDBRANCH   1  23
ENDBRANCH  12   1
ENDBRANCH  15  12
TORSDOF 10
ENDMDL
