MODEL 1
REMARK VINA RESULT:      -4.4      0.000      0.000
REMARK  Name = 45784231
REMARK  2 active torsions:
REMARK  status: ('A' for Active; 'I' for Inactive)
REMARK    1  A    between atoms: N_2  and  C_5
REMARK    2  A    between atoms: C_8  and  C_13
REMARK                            x       y       z     vdW  Elec       q    Type
REMARK                         _______ _______ _______ _____ _____    ______ ____
ROOT
ATOM      1  F   UNL     1      -6.236 -10.022  19.066  0.00  0.00    -0.205 F 
ATOM      3  N   UNL     1      -6.419 -10.596  14.227  0.00  0.00    -0.341 N 
ATOM      4  N   UNL     1      -8.550  -9.977  14.087  0.00  0.00    -0.232 NA
ATOM     13  C   UNL     1      -7.495 -10.380  13.413  0.00  0.00    +0.113 A 
ATOM     14  C   UNL     1      -6.804 -10.315  15.513  0.00  0.00    +0.069 A 
ATOM     15  C   UNL     1      -8.137  -9.930  15.399  0.00  0.00    +0.089 A 
ATOM     16  C   UNL     1      -6.121 -10.361  16.729  0.00  0.00    +0.066 A 
ATOM     17  C   UNL     1      -8.846  -9.568  16.557  0.00  0.00    +0.032 A 
ATOM     18  C   UNL     1      -6.842  -9.996  17.870  0.00  0.00    +0.125 A 
ATOM     19  C   UNL     1      -8.181  -9.607  17.788  0.00  0.00    +0.040 A 
ATOM     20  H   UNL     1      -5.501 -10.909  13.937  0.00  0.00    +0.167 HD
ENDROOT
BRANCH  13   8
ATOM      2  N   UNL     1      -6.025 -10.260  10.056  0.00  0.00    -0.299 NA
ATOM      8  C   UNL     1      -7.407 -10.600  11.921  0.00  0.00    +0.070 C 
ATOM      9  C   UNL     1      -5.966 -10.781  11.426  0.00  0.00    +0.096 C 
ATOM     11  C   UNL     1      -6.823  -9.037  10.155  0.00  0.00    +0.085 C 
ATOM     12  C   UNL     1      -7.973  -9.454  11.063  0.00  0.00    +0.028 C 
BRANCH   2   5
ATOM      5  C   UNL     1      -4.679  -9.965   9.554  0.00  0.00    +0.057 C 
ATOM      6  C   UNL     1      -3.629 -10.641  10.460  0.00  0.00    +0.019 C 
ATOM      7  C   UNL     1      -4.194  -8.617  10.129  0.00  0.00    +0.019 C 
ATOM     10  C   UNL     1      -2.847  -9.311  10.417  0.00  0.00    +0.003 C 
ENDBRANCH   2   5
ENDBRANCH  13   8
TORSDOF 2
ENDMDL
MODEL 2
REMARK VINA RESULT:      -4.2     15.618     17.981
REMARK  Name = 45784231
REMARK  2 active torsions:
REMARK  status: ('A' for Active; 'I' for Inactive)
REMARK    1  A    between atoms: N_2  and  C_5
REMARK    2  A    between atoms: C_8  and  C_13
REMARK                            x       y       z     vdW  Elec       q    Type
REMARK                         _______ _______ _______ _____ _____    ______ ____
ROOT
ATOM      1  F   UNL     1       4.399   0.204  21.849  0.00  0.00    -0.205 F 
ATOM      3  N   UNL     1       0.933   2.180  24.653  0.00  0.00    -0.341 N 
ATOM      4  N   UNL     1      -0.677   0.889  23.826  0.00  0.00    -0.232 NA
ATOM     13  C   UNL     1      -0.393   1.849  24.678  0.00  0.00    +0.113 A 
ATOM     14  C   UNL     1       1.546   1.380  23.722  0.00  0.00    +0.069 A 
ATOM     15  C   UNL     1       0.521   0.583  23.221  0.00  0.00    +0.089 A 
ATOM     16  C   UNL     1       2.869   1.288  23.290  0.00  0.00    +0.066 A 
ATOM     17  C   UNL     1       0.815  -0.368  22.229  0.00  0.00    +0.032 A 
ATOM     18  C   UNL     1       3.144   0.336  22.303  0.00  0.00    +0.125 A 
ATOM     19  C   UNL     1       2.136  -0.478  21.779  0.00  0.00    +0.040 A 
ATOM     20  H   UNL     1       1.385   2.888  25.216  0.00  0.00    +0.167 HD
ENDROOT
BRANCH  13   8
ATOM      2  N   UNL     1      -3.571   3.316  25.771  0.00  0.00    -0.299 NA
ATOM      8  C   UNL     1      -1.360   2.550  25.604  0.00  0.00    +0.070 C 
ATOM      9  C   UNL     1      -2.816   2.118  25.388  0.00  0.00    +0.096 C 
ATOM     11  C   UNL     1      -2.837   4.429  25.168  0.00  0.00    +0.085 C 
ATOM     12  C   UNL     1      -1.385   4.083  25.472  0.00  0.00    +0.028 C 
BRANCH   2   5
ATOM      5  C   UNL     1      -4.942   3.254  25.253  0.00  0.00    +0.057 C 
ATOM      6  C   UNL     1      -5.820   2.425  26.214  0.00  0.00    +0.019 C 
ATOM      7  C   UNL     1      -5.067   2.085  24.254  0.00  0.00    +0.019 C 
ATOM     10  C   UNL     1      -6.386   1.719  24.964  0.00  0.00    +0.003 C 
ENDBRANCH   2   5
ENDBRANCH  13   8
TORSDOF 2
ENDMDL
MODEL 3
REMARK VINA RESULT:      -3.9     15.458     16.812
REMARK  Name = 45784231
REMARK  2 active torsions:
REMARK  status: ('A' for Active; 'I' for Inactive)
REMARK    1  A    between atoms: N_2  and  C_5
REMARK    2  A    between atoms: C_8  and  C_13
REMARK                            x       y       z     vdW  Elec       q    Type
REMARK                         _______ _______ _______ _____ _____    ______ ____
ROOT
ATOM      1  F   UNL     1      -6.219   4.988  25.551  0.00  0.00    -0.205 F 
ATOM      3  N   UNL     1      -2.263   2.144  25.354  0.00  0.00    -0.341 N 
ATOM      4  N   UNL     1      -3.436   0.284  25.033  0.00  0.00    -0.232 NA
ATOM     13  C   UNL     1      -2.231   0.791  25.166  0.00  0.00    +0.113 A 
ATOM     14  C   UNL     1      -3.577   2.537  25.343  0.00  0.00    +0.069 A 
ATOM     15  C   UNL     1      -4.289   1.359  25.140  0.00  0.00    +0.089 A 
ATOM     16  C   UNL     1      -4.184   3.785  25.487  0.00  0.00    +0.066 A 
ATOM     17  C   UNL     1      -5.692   1.408  25.075  0.00  0.00    +0.032 A 
ATOM     18  C   UNL     1      -5.581   3.816  25.419  0.00  0.00    +0.125 A 
ATOM     19  C   UNL     1      -6.324   2.650  25.218  0.00  0.00    +0.040 A 
ATOM     20  H   UNL     1      -1.463   2.751  25.481  0.00  0.00    +0.167 HD
ENDROOT
BRANCH  13   8
ATOM      2  N   UNL     1       0.987  -0.335  23.817  0.00  0.00    -0.299 NA
ATOM      8  C   UNL     1      -0.923   0.034  25.127  0.00  0.00    +0.070 C 
ATOM      9  C   UNL     1       0.168   0.766  24.334  0.00  0.00    +0.096 C 
ATOM     11  C   UNL     1       0.023  -1.335  23.357  0.00  0.00    +0.085 C 
ATOM     12  C   UNL     1      -1.002  -1.361  24.483  0.00  0.00    +0.028 C 
BRANCH   2   5
ATOM      5  C   UNL     1       1.833   0.122  22.708  0.00  0.00    +0.057 C 
ATOM      6  C   UNL     1       3.225  -0.534  22.816  0.00  0.00    +0.019 C 
ATOM      7  C   UNL     1       2.514   1.452  23.090  0.00  0.00    +0.019 C 
ATOM     10  C   UNL     1       3.819   0.859  22.520  0.00  0.00    +0.003 C 
ENDBRANCH   2   5
ENDBRANCH  13   8
TORSDOF 2
ENDMDL
MODEL 4
REMARK VINA RESULT:      -3.8     23.492     25.761
REMARK  Name = 45784231
REMARK  2 active torsions:
REMARK  status: ('A' for Active; 'I' for Inactive)
REMARK    1  A    between atoms: N_2  and  C_5
REMARK    2  A    between atoms: C_8  and  C_13
REMARK                            x       y       z     vdW  Elec       q    Type
REMARK                         _______ _______ _______ _____ _____    ______ ____
ROOT
ATOM      1  F   UNL     1       5.092  -8.154  32.873  0.00  0.00    -0.205 F 
ATOM      3  N   UNL     1       9.927  -7.621  32.545  0.00  0.00    -0.341 N 
ATOM      4  N   UNL     1      10.270  -9.742  31.976  0.00  0.00    -0.232 NA
ATOM     13  C   UNL     1      10.841  -8.582  32.215  0.00  0.00    +0.113 A 
ATOM     14  C   UNL     1       8.684  -8.198  32.519  0.00  0.00    +0.069 A 
ATOM     15  C   UNL     1       8.924  -9.522  32.160  0.00  0.00    +0.089 A 
ATOM     16  C   UNL     1       7.408  -7.692  32.769  0.00  0.00    +0.066 A 
ATOM     17  C   UNL     1       7.839 -10.407  32.041  0.00  0.00    +0.032 A 
ATOM     18  C   UNL     1       6.340  -8.586  32.645  0.00  0.00    +0.125 A 
ATOM     19  C   UNL     1       6.549  -9.920  32.287  0.00  0.00    +0.040 A 
ATOM     20  H   UNL     1      10.128  -6.655  32.771  0.00  0.00    +0.167 HD
ENDROOT
BRANCH  13   8
ATOM      2  N   UNL     1      13.867  -6.683  31.392  0.00  0.00    -0.299 NA
ATOM      8  C   UNL     1      12.319  -8.273  32.152  0.00  0.00    +0.070 C 
ATOM      9  C   UNL     1      12.615  -6.767  32.151  0.00  0.00    +0.096 C 
ATOM     11  C   UNL     1      13.680  -7.590  30.259  0.00  0.00    +0.085 C 
ATOM     12  C   UNL     1      13.040  -8.813  30.904  0.00  0.00    +0.028 C 
BRANCH   2   5
ATOM      5  C   UNL     1      14.104  -5.312  30.928  0.00  0.00    +0.057 C 
ATOM      6  C   UNL     1      15.620  -5.025  30.914  0.00  0.00    +0.019 C 
ATOM      7  C   UNL     1      14.008  -4.337  32.121  0.00  0.00    +0.019 C 
ATOM     10  C   UNL     1      15.292  -3.673  31.583  0.00  0.00    +0.003 C 
ENDBRANCH   2   5
ENDBRANCH  13   8
TORSDOF 2
ENDMDL
MODEL 5
REMARK VINA RESULT:      -3.4      1.672      2.146
REMARK  Name = 45784231
REMARK  2 active torsions:
REMARK  status: ('A' for Active; 'I' for Inactive)
REMARK    1  A    between atoms: N_2  and  C_5
REMARK    2  A    between atoms: C_8  and  C_13
REMARK                            x       y       z     vdW  Elec       q    Type
REMARK                         _______ _______ _______ _____ _____    ______ ____
ROOT
ATOM      1  F   UNL     1      -9.388  -9.394  17.463  0.00  0.00    -0.205 F 
ATOM      3  N   UNL     1      -7.530  -9.545  12.957  0.00  0.00    -0.341 N 
ATOM      4  N   UNL     1      -9.415 -10.294  12.048  0.00  0.00    -0.232 NA
ATOM     13  C   UNL     1      -8.172  -9.936  11.816  0.00  0.00    +0.113 A 
ATOM     14  C   UNL     1      -8.419  -9.657  13.996  0.00  0.00    +0.069 A 
ATOM     15  C   UNL     1      -9.588 -10.125  13.402  0.00  0.00    +0.089 A 
ATOM     16  C   UNL     1      -8.305  -9.396  15.362  0.00  0.00    +0.066 A 
ATOM     17  C   UNL     1     -10.719 -10.353  14.204  0.00  0.00    +0.032 A 
ATOM     18  C   UNL     1      -9.441  -9.627  16.144  0.00  0.00    +0.125 A 
ATOM     19  C   UNL     1     -10.628 -10.098  15.578  0.00  0.00    +0.040 A 
ATOM     20  H   UNL     1      -6.572  -9.229  13.028  0.00  0.00    +0.167 HD
ENDROOT
BRANCH  13   8
ATOM      2  N   UNL     1      -5.349 -10.061   9.479  0.00  0.00    -0.299 NA
ATOM      8  C   UNL     1      -7.467  -9.933  10.479  0.00  0.00    +0.070 C 
ATOM      9  C   UNL     1      -6.166 -10.747  10.486  0.00  0.00    +0.096 C 
ATOM     11  C   UNL     1      -5.550  -8.636   9.741  0.00  0.00    +0.085 C 
ATOM     12  C   UNL     1      -7.053  -8.541   9.970  0.00  0.00    +0.028 C 
BRANCH   2   5
ATOM      5  C   UNL     1      -3.934 -10.423   9.623  0.00  0.00    +0.057 C 
ATOM      6  C   UNL     1      -3.607 -10.646  11.114  0.00  0.00    +0.019 C 
ATOM      7  C   UNL     1      -3.077  -9.143   9.706  0.00  0.00    +0.019 C 
ATOM     10  C   UNL     1      -2.332  -9.809  10.880  0.00  0.00    +0.003 C 
ENDBRANCH   2   5
ENDBRANCH  13   8
TORSDOF 2
ENDMDL
MODEL 6
REMARK VINA RESULT:      -3.3     15.386     17.156
REMARK  Name = 45784231
REMARK  2 active torsions:
REMARK  status: ('A' for Active; 'I' for Inactive)
REMARK    1  A    between atoms: N_2  and  C_5
REMARK    2  A    between atoms: C_8  and  C_13
REMARK                            x       y       z     vdW  Elec       q    Type
REMARK                         _______ _______ _______ _____ _____    ______ ____
ROOT
ATOM      1  F   UNL     1      -5.187   4.195  25.446  0.00  0.00    -0.205 F 
ATOM      3  N   UNL     1      -1.943   0.850  24.009  0.00  0.00    -0.341 N 
ATOM      4  N   UNL     1      -0.191   2.087  24.593  0.00  0.00    -0.232 NA
ATOM     13  C   UNL     1      -0.581   0.943  24.075  0.00  0.00    +0.113 A 
ATOM     14  C   UNL     1      -2.467   2.011  24.518  0.00  0.00    +0.069 A 
ATOM     15  C   UNL     1      -1.353   2.765  24.876  0.00  0.00    +0.089 A 
ATOM     16  C   UNL     1      -3.779   2.452  24.691  0.00  0.00    +0.066 A 
ATOM     17  C   UNL     1      -1.541   4.038  25.442  0.00  0.00    +0.032 A 
ATOM     18  C   UNL     1      -3.948   3.720  25.256  0.00  0.00    +0.125 A 
ATOM     19  C   UNL     1      -2.850   4.502  25.625  0.00  0.00    +0.040 A 
ATOM     20  H   UNL     1      -2.474   0.068  23.648  0.00  0.00    +0.167 HD
ENDROOT
BRANCH  13   8
ATOM      2  N   UNL     1       2.420  -0.632  22.677  0.00  0.00    -0.299 NA
ATOM      8  C   UNL     1       0.307  -0.179  23.588  0.00  0.00    +0.070 C 
ATOM      9  C   UNL     1       1.801   0.116  23.776  0.00  0.00    +0.096 C 
ATOM     11  C   UNL     1       1.564  -0.374  21.519  0.00  0.00    +0.085 C 
ATOM     12  C   UNL     1       0.161  -0.518  22.095  0.00  0.00    +0.028 C 
BRANCH   2   5
ATOM      5  C   UNL     1       3.786  -0.160  22.430  0.00  0.00    +0.057 C 
ATOM      6  C   UNL     1       4.727  -0.702  23.527  0.00  0.00    +0.019 C 
ATOM      7  C   UNL     1       3.976   1.234  23.065  0.00  0.00    +0.019 C 
ATOM     10  C   UNL     1       5.323   0.718  23.610  0.00  0.00    +0.003 C 
ENDBRANCH   2   5
ENDBRANCH  13   8
TORSDOF 2
ENDMDL
MODEL 7
REMARK VINA RESULT:      -2.9     24.908     26.286
REMARK  Name = 45784231
REMARK  2 active torsions:
REMARK  status: ('A' for Active; 'I' for Inactive)
REMARK    1  A    between atoms: N_2  and  C_5
REMARK    2  A    between atoms: C_8  and  C_13
REMARK                            x       y       z     vdW  Elec       q    Type
REMARK                         _______ _______ _______ _____ _____    ______ ____
ROOT
ATOM      1  F   UNL     1       7.612  -9.461  32.873  0.00  0.00    -0.205 F 
ATOM      3  N   UNL     1      11.641  -6.979  31.696  0.00  0.00    -0.341 N 
ATOM      4  N   UNL     1      12.811  -8.812  31.233  0.00  0.00    -0.232 NA
ATOM     13  C   UNL     1      12.837  -7.499  31.287  0.00  0.00    +0.113 A 
ATOM     14  C   UNL     1      10.785  -8.027  31.922  0.00  0.00    +0.069 A 
ATOM     15  C   UNL     1      11.538  -9.160  31.625  0.00  0.00    +0.089 A 
ATOM     16  C   UNL     1       9.457  -8.080  32.346  0.00  0.00    +0.066 A 
ATOM     17  C   UNL     1      10.948 -10.428  31.755  0.00  0.00    +0.032 A 
ATOM     18  C   UNL     1       8.885  -9.350  32.469  0.00  0.00    +0.125 A 
ATOM     19  C   UNL     1       9.616 -10.505  32.180  0.00  0.00    +0.040 A 
ATOM     20  H   UNL     1      11.422  -5.999  31.813  0.00  0.00    +0.167 HD
ENDROOT
BRANCH  13   8
ATOM      2  N   UNL     1      15.853  -6.392  29.519  0.00  0.00    -0.299 NA
ATOM      8  C   UNL     1      14.008  -6.604  30.953  0.00  0.00    +0.070 C 
ATOM      9  C   UNL     1      14.415  -6.676  29.475  0.00  0.00    +0.096 C 
ATOM     11  C   UNL     1      16.353  -7.168  30.655  0.00  0.00    +0.085 C 
ATOM     12  C   UNL     1      15.301  -6.916  31.728  0.00  0.00    +0.028 C 
BRANCH   2   5
ATOM      5  C   UNL     1      16.505  -6.812  28.274  0.00  0.00    +0.057 C 
ATOM      6  C   UNL     1      17.089  -5.579  27.555  0.00  0.00    +0.019 C 
ATOM      7  C   UNL     1      15.460  -6.883  27.140  0.00  0.00    +0.019 C 
ATOM     10  C   UNL     1      16.486  -6.148  26.253  0.00  0.00    +0.003 C 
ENDBRANCH   2   5
ENDBRANCH  13   8
TORSDOF 2
ENDMDL
MODEL 8
REMARK VINA RESULT:      -2.9     25.077     27.093
REMARK  Name = 45784231
REMARK  2 active torsions:
REMARK  status: ('A' for Active; 'I' for Inactive)
REMARK    1  A    between atoms: N_2  and  C_5
REMARK    2  A    between atoms: C_8  and  C_13
REMARK                            x       y       z     vdW  Elec       q    Type
REMARK                         _______ _______ _______ _____ _____    ______ ____
ROOT
ATOM      1  F   UNL     1       7.912  -8.558  32.759  0.00  0.00    -0.205 F 
ATOM      3  N   UNL     1      12.486  -7.480  31.457  0.00  0.00    -0.341 N 
ATOM      4  N   UNL     1      13.072  -9.610  31.207  0.00  0.00    -0.232 NA
ATOM     13  C   UNL     1      13.479  -8.362  31.133  0.00  0.00    +0.113 A 
ATOM     14  C   UNL     1      11.364  -8.207  31.760  0.00  0.00    +0.069 A 
ATOM     15  C   UNL     1      11.755  -9.533  31.595  0.00  0.00    +0.089 A 
ATOM     16  C   UNL     1      10.079  -7.830  32.151  0.00  0.00    +0.066 A 
ATOM     17  C   UNL     1      10.822 -10.557  31.831  0.00  0.00    +0.032 A 
ATOM     18  C   UNL     1       9.162  -8.862  32.381  0.00  0.00    +0.125 A 
ATOM     19  C   UNL     1       9.525 -10.202  32.225  0.00  0.00    +0.040 A 
ATOM     20  H   UNL     1      12.562  -6.471  31.473  0.00  0.00    +0.167 HD
ENDROOT
BRANCH  13   8
ATOM      2  N   UNL     1      16.300  -6.035  30.864  0.00  0.00    -0.299 NA
ATOM      8  C   UNL     1      14.859  -7.883  30.747  0.00  0.00    +0.070 C 
ATOM      9  C   UNL     1      15.427  -6.842  31.722  0.00  0.00    +0.096 C 
ATOM     11  C   UNL     1      15.532  -5.830  29.636  0.00  0.00    +0.085 C 
ATOM     12  C   UNL     1      14.947  -7.210  29.366  0.00  0.00    +0.028 C 
BRANCH   2   5
ATOM      5  C   UNL     1      16.615  -4.753  31.502  0.00  0.00    +0.057 C 
ATOM      6  C   UNL     1      15.517  -4.402  32.528  0.00  0.00    +0.019 C 
ATOM      7  C   UNL     1      16.070  -3.596  30.639  0.00  0.00    +0.019 C 
ATOM     10  C   UNL     1      15.537  -2.974  31.945  0.00  0.00    +0.003 C 
ENDBRANCH   2   5
ENDBRANCH  13   8
TORSDOF 2
ENDMDL
MODEL 9
REMARK VINA RESULT:      -2.6     25.609     27.859
REMARK  Name = 45784231
REMARK  2 active torsions:
REMARK  status: ('A' for Active; 'I' for Inactive)
REMARK    1  A    between atoms: N_2  and  C_5
REMARK    2  A    between atoms: C_8  and  C_13
REMARK                            x       y       z     vdW  Elec       q    Type
REMARK                         _______ _______ _______ _____ _____    ______ ____
ROOT
ATOM      1  F   UNL     1       8.729 -10.212  31.795  0.00  0.00    -0.205 F 
ATOM      3  N   UNL     1      12.277  -6.999  32.723  0.00  0.00    -0.341 N 
ATOM      4  N   UNL     1      13.894  -8.371  32.057  0.00  0.00    -0.232 NA
ATOM     13  C   UNL     1      13.619  -7.179  32.538  0.00  0.00    +0.113 A 
ATOM     14  C   UNL     1      11.643  -8.152  32.336  0.00  0.00    +0.069 A 
ATOM     15  C   UNL     1      12.673  -8.992  31.923  0.00  0.00    +0.089 A 
ATOM     16  C   UNL     1      10.298  -8.520  32.310  0.00  0.00    +0.066 A 
ATOM     17  C   UNL     1      12.362 -10.280  31.456  0.00  0.00    +0.032 A 
ATOM     18  C   UNL     1      10.005  -9.805  31.841  0.00  0.00    +0.125 A 
ATOM     19  C   UNL     1      11.017 -10.671  31.422  0.00  0.00    +0.040 A 
ATOM     20  H   UNL     1      11.828  -6.167  33.082  0.00  0.00    +0.167 HD
ENDROOT
BRANCH  13   8
ATOM      2  N   UNL     1      15.708  -4.218  31.977  0.00  0.00    -0.299 NA
ATOM      8  C   UNL     1      14.611  -6.089  32.872  0.00  0.00    +0.070 C 
ATOM      9  C   UNL     1      14.363  -4.794  32.087  0.00  0.00    +0.096 C 
ATOM     11  C   UNL     1      16.573  -5.350  31.645  0.00  0.00    +0.085 C 
ATOM     12  C   UNL     1      16.081  -6.442  32.586  0.00  0.00    +0.028 C 
BRANCH   2   5
ATOM      5  C   UNL     1      15.753  -3.200  30.922  0.00  0.00    +0.057 C 
ATOM      6  C   UNL     1      17.086  -3.311  30.154  0.00  0.00    +0.019 C 
ATOM      7  C   UNL     1      16.287  -1.874  31.503  0.00  0.00    +0.019 C 
ATOM     10  C   UNL     1      17.182  -1.774  30.251  0.00  0.00    +0.003 C 
ENDBRANCH   2   5
ENDBRANCH  13   8
TORSDOF 2
ENDMDL
MODEL 10
REMARK VINA RESULT:      -2.4     15.571     17.278
REMARK  Name = 45784231
REMARK  2 active torsions:
REMARK  status: ('A' for Active; 'I' for Inactive)
REMARK    1  A    between atoms: N_2  and  C_5
REMARK    2  A    between atoms: C_8  and  C_13
REMARK                            x       y       z     vdW  Elec       q    Type
REMARK                         _______ _______ _______ _____ _____    ______ ____
ROOT
ATOM      1  F   UNL     1       6.264  -1.071  23.702  0.00  0.00    -0.205 F 
ATOM      3  N   UNL     1       1.391  -1.202  23.821  0.00  0.00    -0.341 N 
ATOM      4  N   UNL     1       1.169   0.834  22.958  0.00  0.00    -0.232 NA
ATOM     13  C   UNL     1       0.531  -0.221  23.414  0.00  0.00    +0.113 A 
ATOM     14  C   UNL     1       2.669  -0.751  23.613  0.00  0.00    +0.069 A 
ATOM     15  C   UNL     1       2.504   0.521  23.073  0.00  0.00    +0.089 A 
ATOM     16  C   UNL     1       3.918  -1.330  23.843  0.00  0.00    +0.066 A 
ATOM     17  C   UNL     1       3.641   1.276  22.737  0.00  0.00    +0.032 A 
ATOM     18  C   UNL     1       5.038  -0.565  23.502  0.00  0.00    +0.125 A 
ATOM     19  C   UNL     1       4.905   0.715  22.960  0.00  0.00    +0.040 A 
ATOM     20  H   UNL     1       1.134  -2.101  24.208  0.00  0.00    +0.167 HD
ENDROOT
BRANCH  13   8
ATOM      2  N   UNL     1      -2.897   0.482  24.511  0.00  0.00    -0.299 NA
ATOM      8  C   UNL     1      -0.967  -0.399  23.510  0.00  0.00    +0.070 C 
ATOM      9  C   UNL     1      -1.712   0.918  23.764  0.00  0.00    +0.096 C 
ATOM     11  C   UNL     1      -2.393  -0.497  25.474  0.00  0.00    +0.085 C 
ATOM     12  C   UNL     1      -1.435  -1.336  24.638  0.00  0.00    +0.028 C 
BRANCH   2   5
ATOM      5  C   UNL     1      -3.524   1.616  25.199  0.00  0.00    +0.057 C 
ATOM      6  C   UNL     1      -5.048   1.391  25.281  0.00  0.00    +0.019 C 
ATOM      7  C   UNL     1      -3.822   2.739  24.184  0.00  0.00    +0.019 C 
ATOM     10  C   UNL     1      -5.211   2.861  24.842  0.00  0.00    +0.003 C 
ENDBRANCH   2   5
ENDBRANCH  13   8
TORSDOF 2
ENDMDL
