MODEL 1
REMARK VINA RESULT:      -2.8      0.000      0.000
REMARK  Name = 51137599
REMARK  6 active torsions:
REMARK  status: ('A' for Active; 'I' for Inactive)
REMARK    1  A    between atoms: O_5  and  C_22
REMARK    2  A    between atoms: O_5  and  C_24
REMARK    3  A    between atoms: N_6  and  C_13
REMARK    4  A    between atoms: C_9  and  C_14
REMARK    5  A    between atoms: C_13  and  C_15
REMARK    6  A    between atoms: C_18  and  C_22
REMARK                            x       y       z     vdW  Elec       q    Type
REMARK                         _______ _______ _______ _____ _____    ______ ____
ROOT
ATOM      6  N   UNL     1       0.278   1.879  23.825  0.00  0.00    -0.297 NA
ATOM      9  C   UNL     1      -1.409   3.361  24.502  0.00  0.00    +0.092 C 
ATOM     10  C   UNL     1      -1.079   2.289  23.454  0.00  0.00    +0.097 C 
ATOM     11  C   UNL     1      -0.509   3.022  25.703  0.00  0.00    +0.029 C 
ATOM     12  C   UNL     1       0.254   1.772  25.283  0.00  0.00    +0.085 C 
ENDROOT
BRANCH   9  14
ATOM      2  O   UNL     1      -3.599   2.287  24.714  0.00  0.00    -0.421 OA
ATOM      7  N   UNL     1      -3.606   4.474  25.188  0.00  0.00    -0.112 NA
ATOM      8  N   UNL     1      -4.894   3.997  25.348  0.00  0.00    -0.109 NA
ATOM     14  C   UNL     1      -2.885   3.442  24.818  0.00  0.00    +0.222 A 
ATOM     18  C   UNL     1      -4.843   2.718  25.060  0.00  0.00    +0.254 A 
BRANCH  18  22
ATOM     22  C   UNL     1      -5.915   1.715  25.065  0.00  0.00    +0.326 C 
BRANCH  22   5
ATOM      5  O   UNL     1      -5.554   0.607  25.894  0.00  0.00    -0.483 OA
BRANCH   5  24
ATOM      1  F   UNL     1      -1.778  -2.841  23.880  0.00  0.00    -0.205 F 
ATOM     24  C   UNL     1      -4.616  -0.250  25.392  0.00  0.00    +0.121 A 
ATOM     25  C   UNL     1      -3.465  -0.534  26.130  0.00  0.00    +0.048 A 
ATOM     26  C   UNL     1      -4.806  -0.843  24.144  0.00  0.00    +0.048 A 
ATOM     27  C   UNL     1      -2.508  -1.408  25.619  0.00  0.00    +0.042 A 
ATOM     28  C   UNL     1      -3.849  -1.717  23.633  0.00  0.00    +0.042 A 
ATOM     29  C   UNL     1      -2.698  -2.001  24.371  0.00  0.00    +0.124 A 
ENDBRANCH   5  24
ENDBRANCH  22   5
ENDBRANCH  18  22
ENDBRANCH   9  14
BRANCH   6  13
ATOM     13  C   UNL     1       0.674   0.633  23.184  0.00  0.00    +0.119 C 
BRANCH  13  15
ATOM      3  O   UNL     1       4.817  -1.955  23.980  0.00  0.00    -0.453 OA
ATOM      4  O   UNL     1       6.228  -0.157  23.218  0.00  0.00    -0.453 OA
ATOM     15  C   UNL     1       2.169   0.457  23.181  0.00  0.00    -0.030 A 
ATOM     16  C   UNL     1       2.726  -0.749  23.617  0.00  0.00    +0.054 A 
ATOM     17  C   UNL     1       2.993   1.506  22.738  0.00  0.00    +0.009 A 
ATOM     19  C   UNL     1       4.101  -0.863  23.594  0.00  0.00    +0.167 A 
ATOM     20  C   UNL     1       4.382   1.363  22.723  0.00  0.00    +0.050 A 
ATOM     21  C   UNL     1       4.907   0.163  23.159  0.00  0.00    +0.166 A 
ATOM     23  C   UNL     1       6.164  -1.499  23.737  0.00  0.00    +0.466 C 
ENDBRANCH  13  15
ENDBRANCH   6  13
TORSDOF 6
ENDMDL
MODEL 2
REMARK VINA RESULT:      -2.6      2.790      7.578
REMARK  Name = 51137599
REMARK  6 active torsions:
REMARK  status: ('A' for Active; 'I' for Inactive)
REMARK    1  A    between atoms: O_5  and  C_22
REMARK    2  A    between atoms: O_5  and  C_24
REMARK    3  A    between atoms: N_6  and  C_13
REMARK    4  A    between atoms: C_9  and  C_14
REMARK    5  A    between atoms: C_13  and  C_15
REMARK    6  A    between atoms: C_18  and  C_22
REMARK                            x       y       z     vdW  Elec       q    Type
REMARK                         _______ _______ _______ _____ _____    ______ ____
ROOT
ATOM      6  N   UNL     1      -5.215   0.420  24.920  0.00  0.00    -0.297 NA
ATOM      9  C   UNL     1      -3.479  -1.112  24.547  0.00  0.00    +0.092 C 
ATOM     10  C   UNL     1      -4.066   0.211  24.036  0.00  0.00    +0.097 C 
ATOM     11  C   UNL     1      -3.940  -1.202  26.012  0.00  0.00    +0.029 C 
ATOM     12  C   UNL     1      -4.731   0.077  26.256  0.00  0.00    +0.085 C 
ENDROOT
BRANCH   9  14
ATOM      2  O   UNL     1      -1.357  -0.110  23.850  0.00  0.00    -0.421 OA
ATOM      7  N   UNL     1      -1.175  -2.218  24.577  0.00  0.00    -0.112 NA
ATOM      8  N   UNL     1       0.086  -1.778  24.221  0.00  0.00    -0.109 NA
ATOM     14  C   UNL     1      -1.985  -1.212  24.345  0.00  0.00    +0.222 A 
ATOM     18  C   UNL     1      -0.068  -0.544  23.802  0.00  0.00    +0.254 A 
BRANCH  18  22
ATOM     22  C   UNL     1       0.934   0.408  23.306  0.00  0.00    +0.326 C 
BRANCH  22   5
ATOM      5  O   UNL     1       1.895  -0.265  22.489  0.00  0.00    -0.483 OA
BRANCH   5  24
ATOM      1  F   UNL     1       7.101  -0.177  24.248  0.00  0.00    -0.205 F 
ATOM     24  C   UNL     1       3.189  -0.244  22.926  0.00  0.00    +0.121 A 
ATOM     25  C   UNL     1       3.966   0.902  22.750  0.00  0.00    +0.048 A 
ATOM     26  C   UNL     1       3.735  -1.367  23.549  0.00  0.00    +0.048 A 
ATOM     27  C   UNL     1       5.287   0.924  23.196  0.00  0.00    +0.042 A 
ATOM     28  C   UNL     1       5.055  -1.344  23.996  0.00  0.00    +0.042 A 
ATOM     29  C   UNL     1       5.832  -0.199  23.819  0.00  0.00    +0.124 A 
ENDBRANCH   5  24
ENDBRANCH  22   5
ENDBRANCH  18  22
ENDBRANCH   9  14
BRANCH   6  13
ATOM     13  C   UNL     1      -5.728   1.781  24.848  0.00  0.00    +0.119 C 
BRANCH  13  15
ATOM      3  O   UNL     1      -1.135   3.500  24.182  0.00  0.00    -0.453 OA
ATOM      4  O   UNL     1      -1.576   5.505  25.444  0.00  0.00    -0.453 OA
ATOM     15  C   UNL     1      -4.637   2.801  25.030  0.00  0.00    -0.030 A 
ATOM     16  C   UNL     1      -3.379   2.579  24.463  0.00  0.00    +0.054 A 
ATOM     17  C   UNL     1      -4.893   3.970  25.767  0.00  0.00    +0.009 A 
ATOM     19  C   UNL     1      -2.412   3.544  24.655  0.00  0.00    +0.167 A 
ATOM     20  C   UNL     1      -3.896   4.932  25.944  0.00  0.00    +0.050 A 
ATOM     21  C   UNL     1      -2.662   4.689  25.376  0.00  0.00    +0.166 A 
ATOM     23  C   UNL     1      -0.613   4.746  24.686  0.00  0.00    +0.466 C 
ENDBRANCH  13  15
ENDBRANCH   6  13
TORSDOF 6
ENDMDL
MODEL 3
REMARK VINA RESULT:      -2.2      2.268      3.665
REMARK  Name = 51137599
REMARK  6 active torsions:
REMARK  status: ('A' for Active; 'I' for Inactive)
REMARK    1  A    between atoms: O_5  and  C_22
REMARK    2  A    between atoms: O_5  and  C_24
REMARK    3  A    between atoms: N_6  and  C_13
REMARK    4  A    between atoms: C_9  and  C_14
REMARK    5  A    between atoms: C_13  and  C_15
REMARK    6  A    between atoms: C_18  and  C_22
REMARK                            x       y       z     vdW  Elec       q    Type
REMARK                         _______ _______ _______ _____ _____    ______ ____
ROOT
ATOM      6  N   UNL     1       0.051  -0.507  23.793  0.00  0.00    -0.297 NA
ATOM      9  C   UNL     1      -1.906  -0.264  25.062  0.00  0.00    +0.092 C 
ATOM     10  C   UNL     1      -1.079   0.410  23.960  0.00  0.00    +0.097 C 
ATOM     11  C   UNL     1      -1.531  -1.754  24.974  0.00  0.00    +0.029 C 
ATOM     12  C   UNL     1      -0.541  -1.844  23.819  0.00  0.00    +0.085 C 
ENDROOT
BRANCH   9  14
ATOM      2  O   UNL     1      -3.864   1.071  25.677  0.00  0.00    -0.421 OA
ATOM      7  N   UNL     1      -4.306  -0.587  24.242  0.00  0.00    -0.112 NA
ATOM      8  N   UNL     1      -5.488   0.081  24.500  0.00  0.00    -0.109 NA
ATOM     14  C   UNL     1      -3.385   0.025  24.949  0.00  0.00    +0.222 A 
ATOM     18  C   UNL     1      -5.183   1.039  25.342  0.00  0.00    +0.254 A 
BRANCH  18  22
ATOM     22  C   UNL     1      -6.047   2.057  25.954  0.00  0.00    +0.326 C 
BRANCH  22   5
ATOM      5  O   UNL     1      -5.780   3.342  25.384  0.00  0.00    -0.483 OA
BRANCH   5  24
ATOM      1  F   UNL     1      -0.498   4.807  24.997  0.00  0.00    -0.205 F 
ATOM     24  C   UNL     1      -4.467   3.706  25.289  0.00  0.00    +0.121 A 
ATOM     25  C   UNL     1      -3.828   3.694  24.048  0.00  0.00    +0.048 A 
ATOM     26  C   UNL     1      -3.763   4.090  26.431  0.00  0.00    +0.048 A 
ATOM     27  C   UNL     1      -2.488   4.065  23.950  0.00  0.00    +0.042 A 
ATOM     28  C   UNL     1      -2.424   4.463  26.332  0.00  0.00    +0.042 A 
ATOM     29  C   UNL     1      -1.785   4.450  25.092  0.00  0.00    +0.124 A 
ENDBRANCH   5  24
ENDBRANCH  22   5
ENDBRANCH  18  22
ENDBRANCH   9  14
BRANCH   6  13
ATOM     13  C   UNL     1       0.795  -0.254  22.568  0.00  0.00    +0.119 C 
BRANCH  13  15
ATOM      3  O   UNL     1       5.228  -1.753  24.180  0.00  0.00    -0.453 OA
ATOM      4  O   UNL     1       6.275   0.340  23.607  0.00  0.00    -0.453 OA
ATOM     15  C   UNL     1       2.264  -0.059  22.834  0.00  0.00    -0.030 A 
ATOM     16  C   UNL     1       3.007  -1.093  23.408  0.00  0.00    +0.054 A 
ATOM     17  C   UNL     1       2.875   1.162  22.501  0.00  0.00    +0.009 A 
ATOM     19  C   UNL     1       4.350  -0.868  23.631  0.00  0.00    +0.167 A 
ATOM     20  C   UNL     1       4.237   1.364  22.736  0.00  0.00    +0.050 A 
ATOM     21  C   UNL     1       4.949   0.327  23.305  0.00  0.00    +0.166 A 
ATOM     23  C   UNL     1       6.445  -0.980  24.160  0.00  0.00    +0.466 C 
ENDBRANCH  13  15
ENDBRANCH   6  13
TORSDOF 6
ENDMDL
MODEL 4
REMARK VINA RESULT:      -1.6      2.797      6.584
REMARK  Name = 51137599
REMARK  6 active torsions:
REMARK  status: ('A' for Active; 'I' for Inactive)
REMARK    1  A    between atoms: O_5  and  C_22
REMARK    2  A    between atoms: O_5  and  C_24
REMARK    3  A    between atoms: N_6  and  C_13
REMARK    4  A    between atoms: C_9  and  C_14
REMARK    5  A    between atoms: C_13  and  C_15
REMARK    6  A    between atoms: C_18  and  C_22
REMARK                            x       y       z     vdW  Elec       q    Type
REMARK                         _______ _______ _______ _____ _____    ______ ____
ROOT
ATOM      6  N   UNL     1      -5.119   2.301  24.410  0.00  0.00    -0.297 NA
ATOM      9  C   UNL     1      -4.513   0.067  24.028  0.00  0.00    +0.092 C 
ATOM     10  C   UNL     1      -4.045   1.511  23.802  0.00  0.00    +0.097 C 
ATOM     11  C   UNL     1      -5.444   0.147  25.251  0.00  0.00    +0.029 C 
ATOM     12  C   UNL     1      -5.429   1.614  25.663  0.00  0.00    +0.085 C 
ENDROOT
BRANCH   9  14
ATOM      2  O   UNL     1      -2.115  -0.381  24.233  0.00  0.00    -0.421 OA
ATOM      7  N   UNL     1      -3.390  -2.220  24.233  0.00  0.00    -0.112 NA
ATOM      8  N   UNL     1      -2.071  -2.614  24.356  0.00  0.00    -0.109 NA
ATOM     14  C   UNL     1      -3.369  -0.909  24.165  0.00  0.00    +0.222 A 
ATOM     18  C   UNL     1      -1.363  -1.510  24.350  0.00  0.00    +0.254 A 
BRANCH  18  22
ATOM     22  C   UNL     1       0.090  -1.330  24.454  0.00  0.00    +0.326 C 
BRANCH  22   5
ATOM      5  O   UNL     1       0.578  -0.578  23.339  0.00  0.00    -0.483 OA
BRANCH   5  24
ATOM      1  F   UNL     1       6.003   0.281  23.145  0.00  0.00    -0.205 F 
ATOM     24  C   UNL     1       1.927  -0.364  23.291  0.00  0.00    +0.121 A 
ATOM     25  C   UNL     1       2.808  -1.380  23.662  0.00  0.00    +0.048 A 
ATOM     26  C   UNL     1       2.423   0.870  22.870  0.00  0.00    +0.048 A 
ATOM     27  C   UNL     1       4.184  -1.162  23.613  0.00  0.00    +0.042 A 
ATOM     28  C   UNL     1       3.799   1.088  22.821  0.00  0.00    +0.042 A 
ATOM     29  C   UNL     1       4.681   0.072  23.192  0.00  0.00    +0.124 A 
ENDBRANCH   5  24
ENDBRANCH  22   5
ENDBRANCH  18  22
ENDBRANCH   9  14
BRANCH   6  13
ATOM     13  C   UNL     1      -4.735   3.689  24.619  0.00  0.00    +0.119 C 
BRANCH  13  15
ATOM      3  O   UNL     1      -0.447   2.012  26.434  0.00  0.00    -0.453 OA
ATOM      4  O   UNL     1       0.715   4.053  25.897  0.00  0.00    -0.453 OA
ATOM     15  C   UNL     1      -3.272   3.822  24.949  0.00  0.00    -0.030 A 
ATOM     16  C   UNL     1      -2.600   2.761  25.561  0.00  0.00    +0.054 A 
ATOM     17  C   UNL     1      -2.595   5.014  24.637  0.00  0.00    +0.009 A 
ATOM     19  C   UNL     1      -1.260   2.930  25.842  0.00  0.00    +0.167 A 
ATOM     20  C   UNL     1      -1.236   5.157  24.931  0.00  0.00    +0.050 A 
ATOM     21  C   UNL     1      -0.596   4.095  25.536  0.00  0.00    +0.166 A 
ATOM     23  C   UNL     1       0.803   2.731  26.464  0.00  0.00    +0.466 C 
ENDBRANCH  13  15
ENDBRANCH   6  13
TORSDOF 6
ENDMDL
MODEL 5
REMARK VINA RESULT:      -1.5      3.348      7.521
REMARK  Name = 51137599
REMARK  6 active torsions:
REMARK  status: ('A' for Active; 'I' for Inactive)
REMARK    1  A    between atoms: O_5  and  C_22
REMARK    2  A    between atoms: O_5  and  C_24
REMARK    3  A    between atoms: N_6  and  C_13
REMARK    4  A    between atoms: C_9  and  C_14
REMARK    5  A    between atoms: C_13  and  C_15
REMARK    6  A    between atoms: C_18  and  C_22
REMARK                            x       y       z     vdW  Elec       q    Type
REMARK                         _______ _______ _______ _____ _____    ______ ____
ROOT
ATOM      6  N   UNL     1      -2.947  -1.962  24.773  0.00  0.00    -0.297 NA
ATOM      9  C   UNL     1      -0.677  -1.723  24.234  0.00  0.00    +0.092 C 
ATOM     10  C   UNL     1      -2.090  -1.486  23.685  0.00  0.00    +0.097 C 
ATOM     11  C   UNL     1      -0.847  -1.711  25.764  0.00  0.00    +0.029 C 
ATOM     12  C   UNL     1      -2.329  -1.444  25.993  0.00  0.00    +0.085 C 
ENDROOT
BRANCH   9  14
ATOM      2  O   UNL     1       0.284   0.529  24.205  0.00  0.00    -0.421 OA
ATOM      7  N   UNL     1       1.283  -0.907  22.810  0.00  0.00    -0.112 NA
ATOM      8  N   UNL     1       1.921   0.314  22.696  0.00  0.00    -0.109 NA
ATOM     14  C   UNL     1       0.336  -0.735  23.702  0.00  0.00    +0.222 A 
ATOM     18  C   UNL     1       1.305   1.121  23.526  0.00  0.00    +0.254 A 
BRANCH  18  22
ATOM     22  C   UNL     1       1.561   2.537  23.818  0.00  0.00    +0.326 C 
BRANCH  22   5
ATOM      5  O   UNL     1       0.440   3.335  23.428  0.00  0.00    -0.483 OA
BRANCH   5  24
ATOM      1  F   UNL     1      -3.205   4.533  27.362  0.00  0.00    -0.205 F 
ATOM     24  C   UNL     1      -0.466   3.634  24.405  0.00  0.00    +0.121 A 
ATOM     25  C   UNL     1      -0.802   2.674  25.362  0.00  0.00    +0.048 A 
ATOM     26  C   UNL     1      -1.057   4.897  24.449  0.00  0.00    +0.048 A 
ATOM     27  C   UNL     1      -1.727   2.978  26.359  0.00  0.00    +0.042 A 
ATOM     28  C   UNL     1      -1.981   5.200  25.447  0.00  0.00    +0.042 A 
ATOM     29  C   UNL     1      -2.317   4.241  26.403  0.00  0.00    +0.124 A 
ENDBRANCH   5  24
ENDBRANCH  22   5
ENDBRANCH  18  22
ENDBRANCH   9  14
BRANCH   6  13
ATOM     13  C   UNL     1      -4.328  -1.527  24.622  0.00  0.00    +0.119 C 
BRANCH  13  15
ATOM      3  O   UNL     1      -6.071   2.858  26.113  0.00  0.00    -0.453 OA
ATOM      4  O   UNL     1      -4.819   4.058  24.439  0.00  0.00    -0.453 OA
ATOM     15  C   UNL     1      -4.437  -0.028  24.543  0.00  0.00    -0.030 A 
ATOM     16  C   UNL     1      -5.260   0.656  25.441  0.00  0.00    +0.054 A 
ATOM     17  C   UNL     1      -3.707   0.672  23.566  0.00  0.00    +0.009 A 
ATOM     19  C   UNL     1      -5.326   2.029  25.331  0.00  0.00    +0.167 A 
ATOM     20  C   UNL     1      -3.791   2.064  23.477  0.00  0.00    +0.050 A 
ATOM     21  C   UNL     1      -4.611   2.715  24.375  0.00  0.00    +0.166 A 
ATOM     23  C   UNL     1      -5.744   4.142  25.542  0.00  0.00    +0.466 C 
ENDBRANCH  13  15
ENDBRANCH   6  13
TORSDOF 6
ENDMDL
MODEL 6
REMARK VINA RESULT:      -1.4      2.963      6.843
REMARK  Name = 51137599
REMARK  6 active torsions:
REMARK  status: ('A' for Active; 'I' for Inactive)
REMARK    1  A    between atoms: O_5  and  C_22
REMARK    2  A    between atoms: O_5  and  C_24
REMARK    3  A    between atoms: N_6  and  C_13
REMARK    4  A    between atoms: C_9  and  C_14
REMARK    5  A    between atoms: C_13  and  C_15
REMARK    6  A    between atoms: C_18  and  C_22
REMARK                            x       y       z     vdW  Elec       q    Type
REMARK                         _______ _______ _______ _____ _____    ______ ____
ROOT
ATOM      6  N   UNL     1      -0.927   4.549  25.236  0.00  0.00    -0.297 NA
ATOM      9  C   UNL     1       0.316   2.621  24.749  0.00  0.00    +0.092 C 
ATOM     10  C   UNL     1      -0.960   3.101  25.453  0.00  0.00    +0.097 C 
ATOM     11  C   UNL     1       0.609   3.703  23.695  0.00  0.00    +0.029 C 
ATOM     12  C   UNL     1      -0.523   4.712  23.840  0.00  0.00    +0.085 C 
ENDROOT
BRANCH   9  14
ATOM      2  O   UNL     1       0.313   0.197  25.095  0.00  0.00    -0.421 OA
ATOM      7  N   UNL     1      -0.011   0.815  22.969  0.00  0.00    -0.112 NA
ATOM      8  N   UNL     1      -0.038  -0.566  23.022  0.00  0.00    -0.109 NA
ATOM     14  C   UNL     1       0.196   1.218  24.201  0.00  0.00    +0.222 A 
ATOM     18  C   UNL     1       0.156  -0.882  24.280  0.00  0.00    +0.254 A 
BRANCH  18  22
ATOM     22  C   UNL     1       0.221  -2.205  24.913  0.00  0.00    +0.326 C 
BRANCH  22   5
ATOM      5  O   UNL     1      -0.898  -2.396  25.782  0.00  0.00    -0.483 OA
BRANCH   5  24
ATOM      1  F   UNL     1      -5.789  -0.767  23.878  0.00  0.00    -0.205 F 
ATOM     24  C   UNL     1      -2.114  -1.990  25.309  0.00  0.00    +0.121 A 
ATOM     25  C   UNL     1      -2.764  -2.738  24.326  0.00  0.00    +0.048 A 
ATOM     26  C   UNL     1      -2.706  -0.830  25.807  0.00  0.00    +0.048 A 
ATOM     27  C   UNL     1      -4.005  -2.324  23.843  0.00  0.00    +0.042 A 
ATOM     28  C   UNL     1      -3.946  -0.417  25.325  0.00  0.00    +0.042 A 
ATOM     29  C   UNL     1      -4.597  -1.164  24.342  0.00  0.00    +0.124 A 
ENDBRANCH   5  24
ENDBRANCH  22   5
ENDBRANCH  18  22
ENDBRANCH   9  14
BRANCH   6  13
ATOM     13  C   UNL     1      -2.207   5.181  25.520  0.00  0.00    +0.119 C 
BRANCH  13  15
ATOM      3  O   UNL     1      -6.057   2.492  27.083  0.00  0.00    -0.453 OA
ATOM      4  O   UNL     1      -6.529   1.663  24.870  0.00  0.00    -0.453 OA
ATOM     15  C   UNL     1      -3.359   4.234  25.309  0.00  0.00    -0.030 A 
ATOM     16  C   UNL     1      -4.145   3.846  26.396  0.00  0.00    +0.054 A 
ATOM     17  C   UNL     1      -3.633   3.750  24.018  0.00  0.00    +0.009 A 
ATOM     19  C   UNL     1      -5.190   2.978  26.153  0.00  0.00    +0.167 A 
ATOM     20  C   UNL     1      -4.699   2.873  23.799  0.00  0.00    +0.050 A 
ATOM     21  C   UNL     1      -5.460   2.504  24.890  0.00  0.00    +0.166 A 
ATOM     23  C   UNL     1      -6.903   1.660  26.262  0.00  0.00    +0.466 C 
ENDBRANCH  13  15
ENDBRANCH   6  13
TORSDOF 6
ENDMDL
MODEL 7
REMARK VINA RESULT:      -1.4      2.664      5.838
REMARK  Name = 51137599
REMARK  6 active torsions:
REMARK  status: ('A' for Active; 'I' for Inactive)
REMARK    1  A    between atoms: O_5  and  C_22
REMARK    2  A    between atoms: O_5  and  C_24
REMARK    3  A    between atoms: N_6  and  C_13
REMARK    4  A    between atoms: C_9  and  C_14
REMARK    5  A    between atoms: C_13  and  C_15
REMARK    6  A    between atoms: C_18  and  C_22
REMARK                            x       y       z     vdW  Elec       q    Type
REMARK                         _______ _______ _______ _____ _____    ______ ____
ROOT
ATOM      6  N   UNL     1      -5.541   1.364  25.377  0.00  0.00    -0.297 NA
ATOM      9  C   UNL     1      -4.166   3.147  26.034  0.00  0.00    +0.092 C 
ATOM     10  C   UNL     1      -4.128   1.675  25.602  0.00  0.00    +0.097 C 
ATOM     11  C   UNL     1      -5.467   3.697  25.424  0.00  0.00    +0.029 C 
ATOM     12  C   UNL     1      -6.073   2.525  24.663  0.00  0.00    +0.085 C 
ENDROOT
BRANCH   9  14
ATOM      2  O   UNL     1      -1.797   3.168  25.420  0.00  0.00    -0.421 OA
ATOM      7  N   UNL     1      -2.733   5.198  25.509  0.00  0.00    -0.112 NA
ATOM      8  N   UNL     1      -1.407   5.354  25.152  0.00  0.00    -0.109 NA
ATOM     14  C   UNL     1      -2.917   3.906  25.654  0.00  0.00    +0.222 A 
ATOM     18  C   UNL     1      -0.900   4.145  25.113  0.00  0.00    +0.254 A 
BRANCH  18  22
ATOM     22  C   UNL     1       0.466   3.713  24.789  0.00  0.00    +0.326 C 
BRANCH  22   5
ATOM      5  O   UNL     1       0.644   2.336  25.129  0.00  0.00    -0.483 OA
BRANCH   5  24
ATOM      1  F   UNL     1       1.297  -1.161  20.940  0.00  0.00    -0.205 F 
ATOM     24  C   UNL     1       0.807   1.466  24.088  0.00  0.00    +0.121 A 
ATOM     25  C   UNL     1      -0.304   0.837  23.524  0.00  0.00    +0.048 A 
ATOM     26  C   UNL     1       2.083   1.208  23.587  0.00  0.00    +0.048 A 
ATOM     27  C   UNL     1      -0.138  -0.050  22.462  0.00  0.00    +0.042 A 
ATOM     28  C   UNL     1       2.248   0.321  22.524  0.00  0.00    +0.042 A 
ATOM     29  C   UNL     1       1.138  -0.309  21.961  0.00  0.00    +0.124 A 
ENDBRANCH   5  24
ENDBRANCH  22   5
ENDBRANCH  18  22
ENDBRANCH   9  14
BRANCH   6  13
ATOM     13  C   UNL     1      -5.725   0.125  24.635  0.00  0.00    +0.119 C 
BRANCH  13  15
ATOM      3  O   UNL     1      -1.089  -0.901  26.032  0.00  0.00    -0.453 OA
ATOM      4  O   UNL     1      -1.021  -2.929  24.733  0.00  0.00    -0.453 OA
ATOM     15  C   UNL     1      -4.478  -0.718  24.637  0.00  0.00    -0.030 A 
ATOM     16  C   UNL     1      -3.373  -0.320  25.393  0.00  0.00    +0.054 A 
ATOM     17  C   UNL     1      -4.437  -1.901  23.877  0.00  0.00    +0.009 A 
ATOM     19  C   UNL     1      -2.254  -1.127  25.364  0.00  0.00    +0.167 A 
ATOM     20  C   UNL     1      -3.292  -2.700  23.867  0.00  0.00    +0.050 A 
ATOM     21  C   UNL     1      -2.214  -2.285  24.622  0.00  0.00    +0.166 A 
ATOM     23  C   UNL     1      -0.313  -2.048  25.627  0.00  0.00    +0.466 C 
ENDBRANCH  13  15
ENDBRANCH   6  13
TORSDOF 6
ENDMDL
MODEL 8
REMARK VINA RESULT:      -1.3      2.302      4.507
REMARK  Name = 51137599
REMARK  6 active torsions:
REMARK  status: ('A' for Active; 'I' for Inactive)
REMARK    1  A    between atoms: O_5  and  C_22
REMARK    2  A    between atoms: O_5  and  C_24
REMARK    3  A    between atoms: N_6  and  C_13
REMARK    4  A    between atoms: C_9  and  C_14
REMARK    5  A    between atoms: C_13  and  C_15
REMARK    6  A    between atoms: C_18  and  C_22
REMARK                            x       y       z     vdW  Elec       q    Type
REMARK                         _______ _______ _______ _____ _____    ______ ____
ROOT
ATOM      6  N   UNL     1      -2.804  -2.124  25.130  0.00  0.00    -0.297 NA
ATOM      9  C   UNL     1      -4.593  -0.608  25.192  0.00  0.00    +0.092 C 
ATOM     10  C   UNL     1      -3.206  -0.880  25.790  0.00  0.00    +0.097 C 
ATOM     11  C   UNL     1      -4.581  -1.337  23.837  0.00  0.00    +0.029 C 
ATOM     12  C   UNL     1      -3.191  -1.951  23.731  0.00  0.00    +0.085 C 
ENDROOT
BRANCH   9  14
ATOM      2  O   UNL     1      -4.171   1.622  24.274  0.00  0.00    -0.421 OA
ATOM      7  N   UNL     1      -5.850   1.546  25.752  0.00  0.00    -0.112 NA
ATOM      8  N   UNL     1      -5.722   2.852  25.316  0.00  0.00    -0.109 NA
ATOM     14  C   UNL     1      -4.925   0.864  25.118  0.00  0.00    +0.222 A 
ATOM     18  C   UNL     1      -4.731   2.850  24.456  0.00  0.00    +0.254 A 
BRANCH  18  22
ATOM     22  C   UNL     1      -4.161   3.959  23.682  0.00  0.00    +0.326 C 
BRANCH  22   5
ATOM      5  O   UNL     1      -3.379   4.805  24.529  0.00  0.00    -0.483 OA
BRANCH   5  24
ATOM      1  F   UNL     1       1.108   2.556  26.768  0.00  0.00    -0.205 F 
ATOM     24  C   UNL     1      -2.263   4.246  25.085  0.00  0.00    +0.121 A 
ATOM     25  C   UNL     1      -2.379   3.431  26.212  0.00  0.00    +0.048 A 
ATOM     26  C   UNL     1      -1.008   4.489  24.528  0.00  0.00    +0.048 A 
ATOM     27  C   UNL     1      -1.241   2.861  26.780  0.00  0.00    +0.042 A 
ATOM     28  C   UNL     1       0.130   3.918  25.095  0.00  0.00    +0.042 A 
ATOM     29  C   UNL     1       0.015   3.104  26.222  0.00  0.00    +0.124 A 
ENDBRANCH   5  24
ENDBRANCH  22   5
ENDBRANCH  18  22
ENDBRANCH   9  14
BRANCH   6  13
ATOM     13  C   UNL     1      -1.383  -2.399  25.282  0.00  0.00    +0.119 C 
BRANCH  13  15
ATOM      3  O   UNL     1       2.777  -0.739  23.177  0.00  0.00    -0.453 OA
ATOM      4  O   UNL     1       1.880   1.477  22.875  0.00  0.00    -0.453 OA
ATOM     15  C   UNL     1      -0.535  -1.333  24.641  0.00  0.00    -0.030 A 
ATOM     16  C   UNL     1       0.764  -1.638  24.224  0.00  0.00    +0.054 A 
ATOM     17  C   UNL     1      -1.057  -0.040  24.466  0.00  0.00    +0.009 A 
ATOM     19  C   UNL     1       1.501  -0.629  23.640  0.00  0.00    +0.167 A 
ATOM     20  C   UNL     1      -0.289   0.963  23.870  0.00  0.00    +0.050 A 
ATOM     21  C   UNL     1       0.990   0.636  23.468  0.00  0.00    +0.166 A 
ATOM     23  C   UNL     1       3.009   0.600  22.693  0.00  0.00    +0.466 C 
ENDBRANCH  13  15
ENDBRANCH   6  13
TORSDOF 6
ENDMDL
MODEL 9
REMARK VINA RESULT:      -1.0      1.662      2.434
REMARK  Name = 51137599
REMARK  6 active torsions:
REMARK  status: ('A' for Active; 'I' for Inactive)
REMARK    1  A    between atoms: O_5  and  C_22
REMARK    2  A    between atoms: O_5  and  C_24
REMARK    3  A    between atoms: N_6  and  C_13
REMARK    4  A    between atoms: C_9  and  C_14
REMARK    5  A    between atoms: C_13  and  C_15
REMARK    6  A    between atoms: C_18  and  C_22
REMARK                            x       y       z     vdW  Elec       q    Type
REMARK                         _______ _______ _______ _____ _____    ______ ____
ROOT
ATOM      6  N   UNL     1       0.350  -0.018  24.351  0.00  0.00    -0.297 NA
ATOM      9  C   UNL     1      -0.606   1.636  25.712  0.00  0.00    +0.092 C 
ATOM     10  C   UNL     1       0.380   1.432  24.553  0.00  0.00    +0.097 C 
ATOM     11  C   UNL     1      -1.547   0.421  25.640  0.00  0.00    +0.029 C 
ATOM     12  C   UNL     1      -1.064  -0.382  24.439  0.00  0.00    +0.085 C 
ENDROOT
BRANCH   9  14
ATOM      2  O   UNL     1      -2.598   3.012  26.074  0.00  0.00    -0.421 OA
ATOM      7  N   UNL     1      -0.836   4.147  25.292  0.00  0.00    -0.112 NA
ATOM      8  N   UNL     1      -1.881   5.037  25.451  0.00  0.00    -0.109 NA
ATOM     14  C   UNL     1      -1.299   2.978  25.668  0.00  0.00    +0.222 A 
ATOM     18  C   UNL     1      -2.888   4.332  25.908  0.00  0.00    +0.254 A 
BRANCH  18  22
ATOM     22  C   UNL     1      -4.248   4.761  26.260  0.00  0.00    +0.326 C 
BRANCH  22   5
ATOM      5  O   UNL     1      -5.195   4.211  25.340  0.00  0.00    -0.483 OA
BRANCH   5  24
ATOM      1  F   UNL     1      -4.356  -0.989  23.771  0.00  0.00    -0.205 F 
ATOM     24  C   UNL     1      -4.987   2.918  24.950  0.00  0.00    +0.121 A 
ATOM     25  C   UNL     1      -4.233   2.647  23.807  0.00  0.00    +0.048 A 
ATOM     26  C   UNL     1      -5.526   1.869  25.694  0.00  0.00    +0.048 A 
ATOM     27  C   UNL     1      -4.021   1.328  23.409  0.00  0.00    +0.042 A 
ATOM     28  C   UNL     1      -5.313   0.550  25.296  0.00  0.00    +0.042 A 
ATOM     29  C   UNL     1      -4.561   0.278  24.153  0.00  0.00    +0.124 A 
ENDBRANCH   5  24
ENDBRANCH  22   5
ENDBRANCH  18  22
ENDBRANCH   9  14
BRANCH   6  13
ATOM     13  C   UNL     1       0.946  -0.414  23.084  0.00  0.00    +0.119 C 
BRANCH  13  15
ATOM      3  O   UNL     1       5.585  -1.713  24.220  0.00  0.00    -0.453 OA
ATOM      4  O   UNL     1       6.519   0.225  23.134  0.00  0.00    -0.453 OA
ATOM     15  C   UNL     1       2.438  -0.210  23.079  0.00  0.00    -0.030 A 
ATOM     16  C   UNL     1       3.268  -1.146  23.701  0.00  0.00    +0.054 A 
ATOM     17  C   UNL     1       2.983   0.921  22.447  0.00  0.00    +0.009 A 
ATOM     19  C   UNL     1       4.628  -0.916  23.669  0.00  0.00    +0.167 A 
ATOM     20  C   UNL     1       4.365   1.129  22.428  0.00  0.00    +0.050 A 
ATOM     21  C   UNL     1       5.162   0.190  23.050  0.00  0.00    +0.166 A 
ATOM     23  C   UNL     1       6.780  -0.983  23.876  0.00  0.00    +0.466 C 
ENDBRANCH  13  15
ENDBRANCH   6  13
TORSDOF 6
ENDMDL
MODEL 10
REMARK VINA RESULT:      -0.8      2.614      7.857
REMARK  Name = 51137599
REMARK  6 active torsions:
REMARK  status: ('A' for Active; 'I' for Inactive)
REMARK    1  A    between atoms: O_5  and  C_22
REMARK    2  A    between atoms: O_5  and  C_24
REMARK    3  A    between atoms: N_6  and  C_13
REMARK    4  A    between atoms: C_9  and  C_14
REMARK    5  A    between atoms: C_13  and  C_15
REMARK    6  A    between atoms: C_18  and  C_22
REMARK                            x       y       z     vdW  Elec       q    Type
REMARK                         _______ _______ _______ _____ _____    ______ ____
ROOT
ATOM      6  N   UNL     1      -1.508   4.398  25.838  0.00  0.00    -0.297 NA
ATOM      9  C   UNL     1      -0.038   2.662  25.265  0.00  0.00    +0.092 C 
ATOM     10  C   UNL     1      -1.376   2.944  25.961  0.00  0.00    +0.097 C 
ATOM     11  C   UNL     1       0.149   3.839  24.291  0.00  0.00    +0.029 C 
ATOM     12  C   UNL     1      -1.096   4.699  24.468  0.00  0.00    +0.085 C 
ENDROOT
BRANCH   9  14
ATOM      2  O   UNL     1       0.661   1.203  23.428  0.00  0.00    -0.421 OA
ATOM      7  N   UNL     1      -0.466   0.151  25.050  0.00  0.00    -0.112 NA
ATOM      8  N   UNL     1      -0.133  -0.782  24.086  0.00  0.00    -0.109 NA
ATOM     14  C   UNL     1       0.018   1.295  24.625  0.00  0.00    +0.222 A 
ATOM     18  C   UNL     1       0.522  -0.125  23.159  0.00  0.00    +0.254 A 
BRANCH  18  22
ATOM     22  C   UNL     1       1.113  -0.612  21.907  0.00  0.00    +0.326 C 
BRANCH  22   5
ATOM      5  O   UNL     1       2.325   0.091  21.623  0.00  0.00    -0.483 OA
BRANCH   5  24
ATOM      1  F   UNL     1       6.511  -0.731  25.087  0.00  0.00    -0.205 F 
ATOM     24  C   UNL     1       3.365  -0.114  22.484  0.00  0.00    +0.121 A 
ATOM     25  C   UNL     1       4.272   0.916  22.741  0.00  0.00    +0.048 A 
ATOM     26  C   UNL     1       3.523  -1.352  23.108  0.00  0.00    +0.048 A 
ATOM     27  C   UNL     1       5.334   0.707  23.619  0.00  0.00    +0.042 A 
ATOM     28  C   UNL     1       4.584  -1.560  23.987  0.00  0.00    +0.042 A 
ATOM     29  C   UNL     1       5.491  -0.531  24.243  0.00  0.00    +0.124 A 
ENDBRANCH   5  24
ENDBRANCH  22   5
ENDBRANCH  18  22
ENDBRANCH   9  14
BRANCH   6  13
ATOM     13  C   UNL     1      -2.859   4.858  26.125  0.00  0.00    +0.119 C 
BRANCH  13  15
ATOM      3  O   UNL     1      -4.268   0.376  24.567  0.00  0.00    -0.453 OA
ATOM      4  O   UNL     1      -6.608   0.941  24.685  0.00  0.00    -0.453 OA
ATOM     15  C   UNL     1      -3.893   3.832  25.744  0.00  0.00    -0.030 A 
ATOM     16  C   UNL     1      -3.488   2.560  25.329  0.00  0.00    +0.054 A 
ATOM     17  C   UNL     1      -5.258   4.161  25.812  0.00  0.00    +0.009 A 
ATOM     19  C   UNL     1      -4.472   1.654  24.992  0.00  0.00    +0.167 A 
ATOM     20  C   UNL     1      -6.234   3.223  25.467  0.00  0.00    +0.050 A 
ATOM     21  C   UNL     1      -5.808   1.975  25.059  0.00  0.00    +0.166 A 
ATOM     23  C   UNL     1      -5.627  -0.069  24.375  0.00  0.00    +0.466 C 
ENDBRANCH  13  15
ENDBRANCH   6  13
TORSDOF 6
ENDMDL
