MODEL 1
REMARK VINA RESULT:      -5.8      0.000      0.000
REMARK  Name = 45784175
REMARK  3 active torsions:
REMARK  status: ('A' for Active; 'I' for Inactive)
REMARK    1  A    between atoms: N_4  and  C_10
REMARK    2  A    between atoms: C_6  and  C_11
REMARK    3  A    between atoms: C_10  and  C_12
REMARK                            x       y       z     vdW  Elec       q    Type
REMARK                         _______ _______ _______ _____ _____    ______ ____
ROOT
ATOM      4  N   UNL     1      17.374  -6.148  25.328  0.00  0.00    -0.297 NA
ATOM      6  C   UNL     1      16.930  -6.473  27.607  0.00  0.00    +0.090 C 
ATOM      7  C   UNL     1      16.949  -7.832  26.888  0.00  0.00    +0.029 C 
ATOM      8  C   UNL     1      16.813  -5.438  26.480  0.00  0.00    +0.097 C 
ATOM      9  C   UNL     1      16.815  -7.498  25.409  0.00  0.00    +0.085 C 
ENDROOT
BRANCH   6  11
ATOM      1 CL   UNL     1      11.166  -6.341  32.548  0.00  0.00    -0.083 Cl
ATOM      3  O   UNL     1      16.018  -5.299  29.538  0.00  0.00    -0.439 OA
ATOM      5  N   UNL     1      14.773  -7.055  28.830  0.00  0.00    -0.213 NA
ATOM     11  C   UNL     1      15.852  -6.324  28.656  0.00  0.00    +0.201 A 
ATOM     13  C   UNL     1      14.167  -6.472  29.916  0.00  0.00    +0.111 A 
ATOM     14  C   UNL     1      14.926  -5.396  30.353  0.00  0.00    +0.155 A 
ATOM     17  C   UNL     1      12.980  -6.784  30.595  0.00  0.00    +0.051 A 
ATOM     18  C   UNL     1      14.601  -4.584  31.432  0.00  0.00    +0.050 A 
ATOM     21  C   UNL     1      12.618  -5.987  31.690  0.00  0.00    +0.043 A 
ATOM     22  C   UNL     1      13.413  -4.909  32.099  0.00  0.00    +0.024 A 
ENDBRANCH   6  11
BRANCH   4  10
ATOM     10  C   UNL     1      17.060  -5.493  24.066  0.00  0.00    +0.119 C 
BRANCH  10  12
ATOM      2  F   UNL     1      16.872   0.113  24.605  0.00  0.00    -0.205 F 
ATOM     12  C   UNL     1      17.009  -3.995  24.210  0.00  0.00    -0.033 A 
ATOM     15  C   UNL     1      16.567  -3.206  23.148  0.00  0.00    +0.008 A 
ATOM     16  C   UNL     1      17.405  -3.395  25.406  0.00  0.00    +0.008 A 
ATOM     19  C   UNL     1      16.521  -1.819  23.281  0.00  0.00    +0.038 A 
ATOM     20  C   UNL     1      17.359  -2.008  25.539  0.00  0.00    +0.038 A 
ATOM     23  C   UNL     1      16.917  -1.220  24.476  0.00  0.00    +0.123 A 
ENDBRANCH  10  12
ENDBRANCH   4  10
TORSDOF 3
ENDMDL
MODEL 2
REMARK VINA RESULT:      -5.4      2.422      3.633
REMARK  Name = 45784175
REMARK  3 active torsions:
REMARK  status: ('A' for Active; 'I' for Inactive)
REMARK    1  A    between atoms: N_4  and  C_10
REMARK    2  A    between atoms: C_6  and  C_11
REMARK    3  A    between atoms: C_10  and  C_12
REMARK                            x       y       z     vdW  Elec       q    Type
REMARK                         _______ _______ _______ _____ _____    ______ ____
ROOT
ATOM      4  N   UNL     1      16.511  -6.124  28.024  0.00  0.00    -0.297 NA
ATOM      6  C   UNL     1      14.769  -6.160  29.594  0.00  0.00    +0.090 C 
ATOM      7  C   UNL     1      16.117  -6.023  30.323  0.00  0.00    +0.029 C 
ATOM      8  C   UNL     1      15.139  -6.615  28.176  0.00  0.00    +0.097 C 
ATOM      9  C   UNL     1      17.164  -6.432  29.296  0.00  0.00    +0.085 C 
ENDROOT
BRANCH   6  11
ATOM      1 CL   UNL     1       9.243 -10.205  32.873  0.00  0.00    -0.083 Cl
ATOM      3  O   UNL     1      14.256  -8.289  30.663  0.00  0.00    -0.439 OA
ATOM      5  N   UNL     1      12.502  -6.861  30.519  0.00  0.00    -0.213 NA
ATOM     11  C   UNL     1      13.774  -7.078  30.265  0.00  0.00    +0.201 A 
ATOM     13  C   UNL     1      12.100  -8.021  31.136  0.00  0.00    +0.111 A 
ATOM     14  C   UNL     1      13.171  -8.898  31.225  0.00  0.00    +0.155 A 
ATOM     17  C   UNL     1      10.855  -8.415  31.649  0.00  0.00    +0.051 A 
ATOM     18  C   UNL     1      13.112 -10.164  31.795  0.00  0.00    +0.050 A 
ATOM     21  C   UNL     1      10.757  -9.687  32.231  0.00  0.00    +0.043 A 
ATOM     22  C   UNL     1      11.863 -10.542  32.302  0.00  0.00    +0.024 A 
ENDBRANCH   6  11
BRANCH   4  10
ATOM     10  C   UNL     1      17.194  -6.727  26.889  0.00  0.00    +0.119 C 
BRANCH  10  12
ATOM      2  F   UNL     1      17.405  -3.235  22.472  0.00  0.00    -0.205 F 
ATOM     12  C   UNL     1      17.251  -5.794  25.709  0.00  0.00    -0.033 A 
ATOM     15  C   UNL     1      17.338  -4.417  25.912  0.00  0.00    +0.008 A 
ATOM     16  C   UNL     1      17.216  -6.307  24.412  0.00  0.00    +0.008 A 
ATOM     19  C   UNL     1      17.390  -3.553  24.819  0.00  0.00    +0.038 A 
ATOM     20  C   UNL     1      17.268  -5.442  23.318  0.00  0.00    +0.038 A 
ATOM     23  C   UNL     1      17.354  -4.065  23.522  0.00  0.00    +0.123 A 
ENDBRANCH  10  12
ENDBRANCH   4  10
TORSDOF 3
ENDMDL
MODEL 3
REMARK VINA RESULT:      -5.0     17.166     18.192
REMARK  Name = 45784175
REMARK  3 active torsions:
REMARK  status: ('A' for Active; 'I' for Inactive)
REMARK    1  A    between atoms: N_4  and  C_10
REMARK    2  A    between atoms: C_6  and  C_11
REMARK    3  A    between atoms: C_10  and  C_12
REMARK                            x       y       z     vdW  Elec       q    Type
REMARK                         _______ _______ _______ _____ _____    ______ ____
ROOT
ATOM      4  N   UNL     1       0.658  -0.572  23.729  0.00  0.00    -0.297 NA
ATOM      6  C   UNL     1      -1.056   0.170  25.148  0.00  0.00    +0.090 C 
ATOM      7  C   UNL     1      -1.382  -1.247  24.645  0.00  0.00    +0.029 C 
ATOM      8  C   UNL     1       0.049   0.671  24.209  0.00  0.00    +0.097 C 
ATOM      9  C   UNL     1      -0.471  -1.457  23.442  0.00  0.00    +0.085 C 
ENDROOT
BRANCH   6  11
ATOM      1 CL   UNL     1      -6.488   5.464  25.503  0.00  0.00    -0.083 Cl
ATOM      3  O   UNL     1      -3.466   0.515  25.241  0.00  0.00    -0.439 OA
ATOM      5  N   UNL     1      -2.241   2.422  25.259  0.00  0.00    -0.213 NA
ATOM     11  C   UNL     1      -2.239   1.107  25.217  0.00  0.00    +0.201 A 
ATOM     13  C   UNL     1      -3.577   2.735  25.315  0.00  0.00    +0.111 A 
ATOM     14  C   UNL     1      -4.331   1.570  25.303  0.00  0.00    +0.155 A 
ATOM     17  C   UNL     1      -4.239   3.970  25.377  0.00  0.00    +0.051 A 
ATOM     18  C   UNL     1      -5.718   1.525  25.350  0.00  0.00    +0.050 A 
ATOM     21  C   UNL     1      -5.640   3.965  25.425  0.00  0.00    +0.043 A 
ATOM     22  C   UNL     1      -6.363   2.766  25.412  0.00  0.00    +0.024 A 
ENDBRANCH   6  11
BRANCH   4  10
ATOM     10  C   UNL     1       1.507  -0.362  22.566  0.00  0.00    +0.119 C 
BRANCH  10  12
ATOM      2  F   UNL     1       6.944   0.042  23.988  0.00  0.00    -0.205 F 
ATOM     12  C   UNL     1       2.960  -0.254  22.945  0.00  0.00    -0.033 A 
ATOM     15  C   UNL     1       3.606  -1.334  23.547  0.00  0.00    +0.008 A 
ATOM     16  C   UNL     1       3.661   0.926  22.695  0.00  0.00    +0.008 A 
ATOM     19  C   UNL     1       4.951  -1.234  23.899  0.00  0.00    +0.038 A 
ATOM     20  C   UNL     1       5.006   1.026  23.048  0.00  0.00    +0.038 A 
ATOM     23  C   UNL     1       5.651  -0.054  23.650  0.00  0.00    +0.123 A 
ENDBRANCH  10  12
ENDBRANCH   4  10
TORSDOF 3
ENDMDL
MODEL 4
REMARK VINA RESULT:      -4.6      4.067      5.778
REMARK  Name = 45784175
REMARK  3 active torsions:
REMARK  status: ('A' for Active; 'I' for Inactive)
REMARK    1  A    between atoms: N_4  and  C_10
REMARK    2  A    between atoms: C_6  and  C_11
REMARK    3  A    between atoms: C_10  and  C_12
REMARK                            x       y       z     vdW  Elec       q    Type
REMARK                         _______ _______ _______ _____ _____    ______ ____
ROOT
ATOM      4  N   UNL     1      16.167  -5.759  29.526  0.00  0.00    -0.297 NA
ATOM      6  C   UNL     1      14.096  -5.883  30.618  0.00  0.00    +0.090 C 
ATOM      7  C   UNL     1      15.215  -5.696  31.657  0.00  0.00    +0.029 C 
ATOM      8  C   UNL     1      14.823  -6.309  29.336  0.00  0.00    +0.097 C 
ATOM      9  C   UNL     1      16.500  -6.051  30.921  0.00  0.00    +0.085 C 
ENDROOT
BRANCH   6  11
ATOM      1 CL   UNL     1       8.203 -10.109  32.872  0.00  0.00    -0.083 Cl
ATOM      3  O   UNL     1      13.287  -8.170  30.850  0.00  0.00    -0.439 OA
ATOM      5  N   UNL     1      11.822  -6.580  31.529  0.00  0.00    -0.213 NA
ATOM     11  C   UNL     1      13.007  -6.848  31.025  0.00  0.00    +0.201 A 
ATOM     13  C   UNL     1      11.264  -7.823  31.705  0.00  0.00    +0.111 A 
ATOM     14  C   UNL     1      12.157  -8.799  31.289  0.00  0.00    +0.155 A 
ATOM     17  C   UNL     1      10.014  -8.216  32.206  0.00  0.00    +0.051 A 
ATOM     18  C   UNL     1      11.912 -10.166  31.330  0.00  0.00    +0.050 A 
ATOM     21  C   UNL     1       9.729  -9.588  32.262  0.00  0.00    +0.043 A 
ATOM     22  C   UNL     1      10.660 -10.542  31.833  0.00  0.00    +0.024 A 
ENDBRANCH   6  11
BRANCH   4  10
ATOM     10  C   UNL     1      17.135  -6.323  28.596  0.00  0.00    +0.119 C 
BRANCH  10  12
ATOM      2  F   UNL     1      14.930 -10.535  25.572  0.00  0.00    -0.205 F 
ATOM     12  C   UNL     1      16.546  -7.448  27.789  0.00  0.00    -0.033 A 
ATOM     15  C   UNL     1      16.540  -8.746  28.300  0.00  0.00    +0.008 A 
ATOM     16  C   UNL     1      16.005  -7.194  26.527  0.00  0.00    +0.008 A 
ATOM     19  C   UNL     1      15.995  -9.788  27.552  0.00  0.00    +0.038 A 
ATOM     20  C   UNL     1      15.460  -8.237  25.779  0.00  0.00    +0.038 A 
ATOM     23  C   UNL     1      15.455  -9.534  26.291  0.00  0.00    +0.123 A 
ENDBRANCH  10  12
ENDBRANCH   4  10
TORSDOF 3
ENDMDL
MODEL 5
REMARK VINA RESULT:      -4.3      3.099      4.895
REMARK  Name = 45784175
REMARK  3 active torsions:
REMARK  status: ('A' for Active; 'I' for Inactive)
REMARK    1  A    between atoms: N_4  and  C_10
REMARK    2  A    between atoms: C_6  and  C_11
REMARK    3  A    between atoms: C_10  and  C_12
REMARK                            x       y       z     vdW  Elec       q    Type
REMARK                         _______ _______ _______ _____ _____    ______ ____
ROOT
ATOM      4  N   UNL     1      15.471  -6.074  29.581  0.00  0.00    -0.297 NA
ATOM      6  C   UNL     1      13.307  -6.167  30.477  0.00  0.00    +0.090 C 
ATOM      7  C   UNL     1      14.283  -5.645  31.544  0.00  0.00    +0.029 C 
ATOM      8  C   UNL     1      14.205  -6.786  29.398  0.00  0.00    +0.097 C 
ATOM      9  C   UNL     1      15.667  -6.019  31.030  0.00  0.00    +0.085 C 
ENDROOT
BRANCH   6  11
ATOM      1 CL   UNL     1       7.506 -10.441  32.873  0.00  0.00    -0.083 Cl
ATOM      3  O   UNL     1      12.721  -8.313  31.473  0.00  0.00    -0.439 OA
ATOM      5  N   UNL     1      10.953  -6.964  31.035  0.00  0.00    -0.213 NA
ATOM     11  C   UNL     1      12.257  -7.125  30.990  0.00  0.00    +0.201 A 
ATOM     13  C   UNL     1      10.507  -8.138  31.592  0.00  0.00    +0.111 A 
ATOM     14  C   UNL     1      11.587  -8.966  31.861  0.00  0.00    +0.155 A 
ATOM     17  C   UNL     1       9.215  -8.585  31.904  0.00  0.00    +0.051 A 
ATOM     18  C   UNL     1      11.492 -10.232  32.427  0.00  0.00    +0.050 A 
ATOM     21  C   UNL     1       9.079  -9.858  32.476  0.00  0.00    +0.043 A 
ATOM     22  C   UNL     1      10.195 -10.663  32.732  0.00  0.00    +0.024 A 
ENDBRANCH   6  11
BRANCH   4  10
ATOM     10  C   UNL     1      16.579  -6.726  28.897  0.00  0.00    +0.119 C 
BRANCH  10  12
ATOM      2  F   UNL     1      17.071  -4.976  23.563  0.00  0.00    -0.205 F 
ATOM     12  C   UNL     1      16.710  -6.259  27.472  0.00  0.00    -0.033 A 
ATOM     15  C   UNL     1      16.419  -7.130  26.422  0.00  0.00    +0.008 A 
ATOM     16  C   UNL     1      17.123  -4.954  27.201  0.00  0.00    +0.008 A 
ATOM     19  C   UNL     1      16.541  -6.697  25.102  0.00  0.00    +0.038 A 
ATOM     20  C   UNL     1      17.246  -4.521  25.881  0.00  0.00    +0.038 A 
ATOM     23  C   UNL     1      16.955  -5.393  24.831  0.00  0.00    +0.123 A 
ENDBRANCH  10  12
ENDBRANCH   4  10
TORSDOF 3
ENDMDL
MODEL 6
REMARK VINA RESULT:      -4.0     17.706     19.521
REMARK  Name = 45784175
REMARK  3 active torsions:
REMARK  status: ('A' for Active; 'I' for Inactive)
REMARK    1  A    between atoms: N_4  and  C_10
REMARK    2  A    between atoms: C_6  and  C_11
REMARK    3  A    between atoms: C_10  and  C_12
REMARK                            x       y       z     vdW  Elec       q    Type
REMARK                         _______ _______ _______ _____ _____    ______ ____
ROOT
ATOM      4  N   UNL     1      -3.881   2.200  25.124  0.00  0.00    -0.297 NA
ATOM      6  C   UNL     1      -1.627   2.681  24.694  0.00  0.00    +0.090 C 
ATOM      7  C   UNL     1      -2.508   3.350  23.625  0.00  0.00    +0.029 C 
ATOM      8  C   UNL     1      -2.545   1.653  25.367  0.00  0.00    +0.097 C 
ATOM      9  C   UNL     1      -3.856   2.650  23.732  0.00  0.00    +0.085 C 
ENDROOT
BRANCH   6  11
ATOM      1 CL   UNL     1       5.187   0.195  22.448  0.00  0.00    -0.083 Cl
ATOM      3  O   UNL     1      -0.489   0.975  23.378  0.00  0.00    -0.439 OA
ATOM      5  N   UNL     1       0.892   2.468  24.381  0.00  0.00    -0.213 NA
ATOM     11  C   UNL     1      -0.346   2.074  24.172  0.00  0.00    +0.201 A 
ATOM     13  C   UNL     1       1.637   1.559  23.670  0.00  0.00    +0.111 A 
ATOM     14  C   UNL     1       0.796   0.643  23.055  0.00  0.00    +0.155 A 
ATOM     17  C   UNL     1       3.023   1.433  23.490  0.00  0.00    +0.051 A 
ATOM     18  C   UNL     1       1.221  -0.411  22.257  0.00  0.00    +0.050 A 
ATOM     21  C   UNL     1       3.491   0.380  22.692  0.00  0.00    +0.043 A 
ATOM     22  C   UNL     1       2.607  -0.523  22.088  0.00  0.00    +0.024 A 
ENDBRANCH   6  11
BRANCH   4  10
ATOM     10  C   UNL     1      -4.935   1.227  25.374  0.00  0.00    +0.119 C 
BRANCH  10  12
ATOM      2  F   UNL     1      -3.228  -4.031  24.286  0.00  0.00    -0.205 F 
ATOM     12  C   UNL     1      -4.479  -0.178  25.084  0.00  0.00    -0.033 A 
ATOM     15  C   UNL     1      -3.752  -0.888  26.040  0.00  0.00    +0.008 A 
ATOM     16  C   UNL     1      -4.783  -0.771  23.858  0.00  0.00    +0.008 A 
ATOM     19  C   UNL     1      -3.329  -2.188  25.770  0.00  0.00    +0.038 A 
ATOM     20  C   UNL     1      -4.360  -2.072  23.588  0.00  0.00    +0.038 A 
ATOM     23  C   UNL     1      -3.633  -2.781  24.545  0.00  0.00    +0.123 A 
ENDBRANCH  10  12
ENDBRANCH   4  10
TORSDOF 3
ENDMDL
MODEL 7
REMARK VINA RESULT:      -2.6     16.870     18.350
REMARK  Name = 45784175
REMARK  3 active torsions:
REMARK  status: ('A' for Active; 'I' for Inactive)
REMARK    1  A    between atoms: N_4  and  C_10
REMARK    2  A    between atoms: C_6  and  C_11
REMARK    3  A    between atoms: C_10  and  C_12
REMARK                            x       y       z     vdW  Elec       q    Type
REMARK                         _______ _______ _______ _____ _____    ______ ____
ROOT
ATOM      4  N   UNL     1      -3.355  -0.104  24.668  0.00  0.00    -0.297 NA
ATOM      6  C   UNL     1      -1.365  -0.991  23.800  0.00  0.00    +0.090 C 
ATOM      7  C   UNL     1      -1.746  -1.744  25.086  0.00  0.00    +0.029 C 
ATOM      8  C   UNL     1      -2.219   0.283  23.828  0.00  0.00    +0.097 C 
ATOM      9  C   UNL     1      -2.764  -0.849  25.780  0.00  0.00    +0.085 C 
ENDROOT
BRANCH   6  11
ATOM      1 CL   UNL     1       6.177  -0.292  23.264  0.00  0.00    -0.083 Cl
ATOM      3  O   UNL     1       0.433   0.541  23.203  0.00  0.00    -0.439 OA
ATOM      5  N   UNL     1       1.128  -1.508  23.878  0.00  0.00    -0.213 NA
ATOM     11  C   UNL     1       0.111  -0.708  23.643  0.00  0.00    +0.201 A 
ATOM     13  C   UNL     1       2.219  -0.733  23.569  0.00  0.00    +0.111 A 
ATOM     14  C   UNL     1       1.798   0.523  23.155  0.00  0.00    +0.155 A 
ATOM     17  C   UNL     1       3.594  -1.008  23.610  0.00  0.00    +0.051 A 
ATOM     18  C   UNL     1       2.645   1.554  22.769  0.00  0.00    +0.050 A 
ATOM     21  C   UNL     1       4.480   0.009  23.226  0.00  0.00    +0.043 A 
ATOM     22  C   UNL     1       4.013   1.263  22.815  0.00  0.00    +0.024 A 
ENDBRANCH   6  11
BRANCH   4  10
ATOM     10  C   UNL     1      -4.129   1.043  25.118  0.00  0.00    +0.119 C 
BRANCH  10  12
ATOM      2  F   UNL     1      -1.066   5.772  25.123  0.00  0.00    -0.205 F 
ATOM     12  C   UNL     1      -3.311   2.306  25.119  0.00  0.00    -0.033 A 
ATOM     15  C   UNL     1      -2.071   2.334  25.758  0.00  0.00    +0.008 A 
ATOM     16  C   UNL     1      -3.792   3.450  24.482  0.00  0.00    +0.008 A 
ATOM     19  C   UNL     1      -1.313   3.504  25.759  0.00  0.00    +0.038 A 
ATOM     20  C   UNL     1      -3.034   4.621  24.484  0.00  0.00    +0.038 A 
ATOM     23  C   UNL     1      -1.794   4.648  25.123  0.00  0.00    +0.123 A 
ENDBRANCH  10  12
ENDBRANCH   4  10
TORSDOF 3
ENDMDL
