MODEL 1
REMARK VINA RESULT:      14.6      0.000      0.000
REMARK  Name = 7144117
REMARK  7 active torsions:
REMARK  status: ('A' for Active; 'I' for Inactive)
REMARK    1  A    between atoms: S_1  and  N_7
REMARK    2  A    between atoms: S_1  and  C_21
REMARK    3  A    between atoms: O_5  and  C_32
REMARK    4  A    between atoms: O_5  and  C_34
REMARK    5  A    between atoms: N_9  and  C_31
REMARK    6  A    between atoms: C_17  and  C_22
REMARK    7  A    between atoms: C_33  and  C_35
REMARK                            x       y       z     vdW  Elec       q    Type
REMARK                         _______ _______ _______ _____ _____    ______ ____
ROOT
ATOM      4  O   UNL     1      -5.921   2.724  28.206  0.00  0.00    -0.268 OA
ATOM      7  N   UNL     1      -3.805   0.069  24.599  0.00  0.00    -0.176 NA
ATOM      8  N   UNL     1      -4.921   2.608  26.090  0.00  0.00    -0.311 N 
ATOM     10  C   UNL     1      -5.961   1.243  24.186  0.00  0.00    +0.025 C 
ATOM     11  C   UNL     1      -3.845   2.433  23.825  0.00  0.00    +0.053 C 
ATOM     12  C   UNL     1      -5.258   2.243  23.281  0.00  0.00    +0.017 C 
ATOM     13  C   UNL     1      -5.226  -0.105  24.187  0.00  0.00    +0.114 C 
ATOM     14  C   UNL     1      -3.092   1.089  23.777  0.00  0.00    +0.119 C 
ATOM     15  C   UNL     1      -6.072   1.846  25.587  0.00  0.00    +0.130 C 
ATOM     16  C   UNL     1      -3.860   2.997  25.249  0.00  0.00    +0.034 A 
ATOM     17  C   UNL     1      -2.890   3.824  25.721  0.00  0.00    +0.002 A 
ATOM     18  C   UNL     1      -5.010   3.021  27.432  0.00  0.00    +0.252 A 
ATOM     19  C   UNL     1      -2.947   4.266  27.101  0.00  0.00    +0.015 A 
ATOM     20  C   UNL     1      -3.923   3.894  27.928  0.00  0.00    +0.071 A 
ENDROOT
BRANCH  17  22
ATOM     22  C   UNL     1      -1.768   4.275  24.869  0.00  0.00    -0.016 A 
ATOM     25  C   UNL     1      -1.540   5.636  24.691  0.00  0.00    +0.012 A 
ATOM     26  C   UNL     1      -0.950   3.335  24.251  0.00  0.00    +0.012 A 
ATOM     29  C   UNL     1      -0.482   6.060  23.886  0.00  0.00    +0.046 A 
ATOM     30  C   UNL     1       0.109   3.759  23.447  0.00  0.00    +0.046 A 
ATOM     32  C   UNL     1       0.342   5.123  23.265  0.00  0.00    +0.120 A 
BRANCH  32   5
ATOM      5  O   UNL     1       1.374   5.537  22.481  0.00  0.00    -0.495 OA
ATOM     34  C   UNL     1       1.043   6.100  21.213  0.00  0.00    +0.277 C 
ENDBRANCH  32   5
ENDBRANCH  17  22
BRANCH   7   1
ATOM      1  S   UNL     1      -2.938  -1.374  24.904  0.00  0.00    +0.061 S 
ATOM      2  O   UNL     1      -3.395  -2.403  23.993  0.00  0.00    -0.153 OA
ATOM      3  O   UNL     1      -2.898  -1.608  26.331  0.00  0.00    -0.153 OA
BRANCH   1  21
ATOM     21  C   UNL     1      -1.323  -0.880  24.389  0.00  0.00    +0.106 A 
ATOM     23  C   UNL     1      -0.746  -1.489  23.287  0.00  0.00    +0.030 A 
ATOM     24  C   UNL     1      -0.660   0.110  25.096  0.00  0.00    +0.030 A 
ATOM     27  C   UNL     1       0.530  -1.098  22.881  0.00  0.00    +0.025 A 
ATOM     28  C   UNL     1       0.616   0.501  24.689  0.00  0.00    +0.025 A 
ATOM     31  C   UNL     1       1.211  -0.103  23.581  0.00  0.00    +0.033 A 
BRANCH  31   9
ATOM      6  O   UNL     1       3.855  -1.526  23.805  0.00  0.00    -0.276 OA
ATOM      9  N   UNL     1       2.486   0.287  23.174  0.00  0.00    -0.286 N 
ATOM     33  C   UNL     1       3.691  -0.418  23.305  0.00  0.00    +0.214 C 
ATOM     35  C   UNL     1       4.855   0.353  22.735  0.00  0.00    +0.109 C 
ATOM     36  H   UNL     1       2.539   1.201  22.727  0.00  0.00    +0.155 HD
ENDBRANCH  31   9
ENDBRANCH   1  21
ENDBRANCH   7   1
TORSDOF 5
ENDMDL
MODEL 2
REMARK VINA RESULT:      14.9      2.949      6.541
REMARK  Name = 7144117
REMARK  7 active torsions:
REMARK  status: ('A' for Active; 'I' for Inactive)
REMARK    1  A    between atoms: S_1  and  N_7
REMARK    2  A    between atoms: S_1  and  C_21
REMARK    3  A    between atoms: O_5  and  C_32
REMARK    4  A    between atoms: O_5  and  C_34
REMARK    5  A    between atoms: N_9  and  C_31
REMARK    6  A    between atoms: C_17  and  C_22
REMARK    7  A    between atoms: C_33  and  C_35
REMARK                            x       y       z     vdW  Elec       q    Type
REMARK                         _______ _______ _______ _____ _____    ______ ____
ROOT
ATOM      4  O   UNL     1      -1.490   2.827  21.701  0.00  0.00    -0.268 OA
ATOM      7  N   UNL     1      -1.971  -0.955  24.864  0.00  0.00    -0.176 NA
ATOM      8  N   UNL     1      -0.620   1.498  23.423  0.00  0.00    -0.311 N 
ATOM     10  C   UNL     1      -0.209  -1.013  23.105  0.00  0.00    +0.025 C 
ATOM     11  C   UNL     1       0.272   0.043  25.269  0.00  0.00    +0.053 C 
ATOM     12  C   UNL     1       0.868  -0.822  24.161  0.00  0.00    +0.017 C 
ATOM     13  C   UNL     1      -1.438  -1.716  23.699  0.00  0.00    +0.114 C 
ATOM     14  C   UNL     1      -0.930  -0.688  25.898  0.00  0.00    +0.119 C 
ATOM     15  C   UNL     1      -0.553   0.352  22.506  0.00  0.00    +0.130 C 
ATOM     16  C   UNL     1      -0.144   1.421  24.747  0.00  0.00    +0.034 A 
ATOM     17  C   UNL     1      -0.089   2.543  25.513  0.00  0.00    +0.002 A 
ATOM     18  C   UNL     1      -1.078   2.700  22.855  0.00  0.00    +0.252 A 
ATOM     19  C   UNL     1      -0.557   3.800  24.962  0.00  0.00    +0.015 A 
ATOM     20  C   UNL     1      -1.038   3.899  23.723  0.00  0.00    +0.071 A 
ENDROOT
BRANCH  17  22
ATOM     22  C   UNL     1       0.422   2.514  26.901  0.00  0.00    -0.016 A 
ATOM     25  C   UNL     1       1.770   2.756  27.145  0.00  0.00    +0.012 A 
ATOM     26  C   UNL     1      -0.449   2.246  27.951  0.00  0.00    +0.012 A 
ATOM     29  C   UNL     1       2.252   2.728  28.455  0.00  0.00    +0.046 A 
ATOM     30  C   UNL     1       0.032   2.218  29.261  0.00  0.00    +0.046 A 
ATOM     32  C   UNL     1       1.383   2.460  29.512  0.00  0.00    +0.120 A 
BRANCH  32   5
ATOM      5  O   UNL     1       1.852   2.433  30.789  0.00  0.00    -0.495 OA
ATOM     34  C   UNL     1       0.907   2.170  31.824  0.00  0.00    +0.277 C 
ENDBRANCH  32   5
ENDBRANCH  17  22
BRANCH   7   1
ATOM      1  S   UNL     1      -3.490  -1.473  25.457  0.00  0.00    +0.061 S 
ATOM      2  O   UNL     1      -3.339  -1.910  26.829  0.00  0.00    -0.153 OA
ATOM      3  O   UNL     1      -4.117  -2.325  24.469  0.00  0.00    -0.153 OA
BRANCH   1  21
ATOM     21  C   UNL     1      -4.357   0.065  25.475  0.00  0.00    +0.106 A 
ATOM     23  C   UNL     1      -3.988   1.061  24.585  0.00  0.00    +0.030 A 
ATOM     24  C   UNL     1      -5.391   0.250  26.377  0.00  0.00    +0.030 A 
ATOM     27  C   UNL     1      -4.673   2.276  24.600  0.00  0.00    +0.025 A 
ATOM     28  C   UNL     1      -6.076   1.465  26.390  0.00  0.00    +0.025 A 
ATOM     31  C   UNL     1      -5.717   2.479  25.501  0.00  0.00    +0.033 A 
BRANCH  31   9
ATOM      6  O   UNL     1      -4.687   5.304  25.351  0.00  0.00    -0.276 OA
ATOM      9  N   UNL     1      -6.401   3.694  25.514  0.00  0.00    -0.286 N 
ATOM     33  C   UNL     1      -5.869   4.988  25.443  0.00  0.00    +0.214 C 
ATOM     35  C   UNL     1      -6.948   6.041  25.487  0.00  0.00    +0.109 C 
ATOM     36  H   UNL     1      -7.415   3.621  25.585  0.00  0.00    +0.155 HD
ENDBRANCH  31   9
ENDBRANCH   1  21
ENDBRANCH   7   1
TORSDOF 5
ENDMDL
MODEL 3
REMARK VINA RESULT:      15.1      2.558      4.076
REMARK  Name = 7144117
REMARK  7 active torsions:
REMARK  status: ('A' for Active; 'I' for Inactive)
REMARK    1  A    between atoms: S_1  and  N_7
REMARK    2  A    between atoms: S_1  and  C_21
REMARK    3  A    between atoms: O_5  and  C_32
REMARK    4  A    between atoms: O_5  and  C_34
REMARK    5  A    between atoms: N_9  and  C_31
REMARK    6  A    between atoms: C_17  and  C_22
REMARK    7  A    between atoms: C_33  and  C_35
REMARK                            x       y       z     vdW  Elec       q    Type
REMARK                         _______ _______ _______ _____ _____    ______ ____
ROOT
ATOM      4  O   UNL     1      -2.750   4.487  28.965  0.00  0.00    -0.268 OA
ATOM      7  N   UNL     1      -4.788   2.384  24.970  0.00  0.00    -0.176 NA
ATOM      8  N   UNL     1      -2.672   3.968  26.682  0.00  0.00    -0.311 N 
ATOM     10  C   UNL     1      -4.436   4.848  25.043  0.00  0.00    +0.025 C 
ATOM     11  C   UNL     1      -2.634   3.391  24.235  0.00  0.00    +0.053 C 
ATOM     12  C   UNL     1      -3.325   4.733  24.012  0.00  0.00    +0.017 C 
ATOM     13  C   UNL     1      -5.457   3.712  24.876  0.00  0.00    +0.114 C 
ATOM     14  C   UNL     1      -3.647   2.250  24.017  0.00  0.00    +0.119 C 
ATOM     15  C   UNL     1      -3.809   4.866  26.438  0.00  0.00    +0.130 C 
ATOM     16  C   UNL     1      -2.010   3.303  25.631  0.00  0.00    +0.034 A 
ATOM     17  C   UNL     1      -0.875   2.600  25.884  0.00  0.00    +0.002 A 
ATOM     18  C   UNL     1      -2.220   3.914  28.013  0.00  0.00    +0.252 A 
ATOM     19  C   UNL     1      -0.381   2.518  27.246  0.00  0.00    +0.015 A 
ATOM     20  C   UNL     1      -1.001   3.114  28.264  0.00  0.00    +0.071 A 
ENDROOT
BRANCH  17  22
ATOM     22  C   UNL     1      -0.134   1.902  24.810  0.00  0.00    -0.016 A 
ATOM     25  C   UNL     1       0.976   2.508  24.231  0.00  0.00    +0.012 A 
ATOM     26  C   UNL     1      -0.554   0.646  24.387  0.00  0.00    +0.012 A 
ATOM     29  C   UNL     1       1.673   1.850  23.217  0.00  0.00    +0.046 A 
ATOM     30  C   UNL     1       0.143  -0.013  23.374  0.00  0.00    +0.046 A 
ATOM     32  C   UNL     1       1.257   0.590  22.789  0.00  0.00    +0.120 A 
BRANCH  32   5
ATOM      5  O   UNL     1       1.938  -0.053  21.801  0.00  0.00    -0.495 OA
ATOM     34  C   UNL     1       3.361   0.042  21.825  0.00  0.00    +0.277 C 
ENDBRANCH  32   5
ENDBRANCH  17  22
BRANCH   7   1
ATOM      1  S   UNL     1      -5.832   1.033  25.070  0.00  0.00    +0.061 S 
ATOM      2  O   UNL     1      -6.599   0.934  23.846  0.00  0.00    -0.153 OA
ATOM      3  O   UNL     1      -6.487   1.037  26.361  0.00  0.00    -0.153 OA
BRANCH   1  21
ATOM     21  C   UNL     1      -4.646  -0.276  25.068  0.00  0.00    +0.106 A 
ATOM     23  C   UNL     1      -4.595  -1.143  23.989  0.00  0.00    +0.030 A 
ATOM     24  C   UNL     1      -3.785  -0.412  26.145  0.00  0.00    +0.030 A 
ATOM     27  C   UNL     1      -3.658  -2.176  23.988  0.00  0.00    +0.025 A 
ATOM     28  C   UNL     1      -2.848  -1.446  26.143  0.00  0.00    +0.025 A 
ATOM     31  C   UNL     1      -2.785  -2.328  25.064  0.00  0.00    +0.033 A 
BRANCH  31   9
ATOM      6  O   UNL     1       0.168  -2.291  25.656  0.00  0.00    -0.276 OA
ATOM      9  N   UNL     1      -1.848  -3.361  25.062  0.00  0.00    -0.286 N 
ATOM     33  C   UNL     1      -0.477  -3.288  25.345  0.00  0.00    +0.214 C 
ATOM     35  C   UNL     1       0.191  -4.635  25.233  0.00  0.00    +0.109 C 
ATOM     36  H   UNL     1      -2.215  -4.281  24.823  0.00  0.00    +0.155 HD
ENDBRANCH  31   9
ENDBRANCH   1  21
ENDBRANCH   7   1
TORSDOF 5
ENDMDL
MODEL 4
REMARK VINA RESULT:      15.5      2.328      5.406
REMARK  Name = 7144117
REMARK  7 active torsions:
REMARK  status: ('A' for Active; 'I' for Inactive)
REMARK    1  A    between atoms: S_1  and  N_7
REMARK    2  A    between atoms: S_1  and  C_21
REMARK    3  A    between atoms: O_5  and  C_32
REMARK    4  A    between atoms: O_5  and  C_34
REMARK    5  A    between atoms: N_9  and  C_31
REMARK    6  A    between atoms: C_17  and  C_22
REMARK    7  A    between atoms: C_33  and  C_35
REMARK                            x       y       z     vdW  Elec       q    Type
REMARK                         _______ _______ _______ _____ _____    ______ ____
ROOT
ATOM      4  O   UNL     1      -5.818   4.957  25.527  0.00  0.00    -0.268 OA
ATOM      7  N   UNL     1      -1.303   3.205  24.487  0.00  0.00    -0.176 NA
ATOM      8  N   UNL     1      -4.166   3.317  25.794  0.00  0.00    -0.311 N 
ATOM     10  C   UNL     1      -1.880   3.868  26.817  0.00  0.00    +0.025 C 
ATOM     11  C   UNL     1      -2.362   1.586  26.052  0.00  0.00    +0.053 C 
ATOM     12  C   UNL     1      -1.883   2.409  27.245  0.00  0.00    +0.017 C 
ATOM     13  C   UNL     1      -0.932   4.087  25.629  0.00  0.00    +0.114 C 
ATOM     14  C   UNL     1      -1.381   1.767  24.877  0.00  0.00    +0.119 C 
ATOM     15  C   UNL     1      -3.317   4.287  26.500  0.00  0.00    +0.130 C 
ATOM     16  C   UNL     1      -3.785   1.971  25.635  0.00  0.00    +0.034 A 
ATOM     17  C   UNL     1      -4.662   1.076  25.108  0.00  0.00    +0.002 A 
ATOM     18  C   UNL     1      -5.428   3.796  25.398  0.00  0.00    +0.252 A 
ATOM     19  C   UNL     1      -5.971   1.535  24.684  0.00  0.00    +0.015 A 
ATOM     20  C   UNL     1      -6.351   2.807  24.796  0.00  0.00    +0.071 A 
ENDROOT
BRANCH  17  22
ATOM     22  C   UNL     1      -4.313  -0.352  24.940  0.00  0.00    -0.016 A 
ATOM     25  C   UNL     1      -4.632  -1.006  23.755  0.00  0.00    +0.012 A 
ATOM     26  C   UNL     1      -3.670  -1.030  25.970  0.00  0.00    +0.012 A 
ATOM     29  C   UNL     1      -4.304  -2.353  23.598  0.00  0.00    +0.046 A 
ATOM     30  C   UNL     1      -3.341  -2.377  25.814  0.00  0.00    +0.046 A 
ATOM     32  C   UNL     1      -3.658  -3.038  24.626  0.00  0.00    +0.120 A 
BRANCH  32   5
ATOM      5  O   UNL     1      -3.337  -4.351  24.473  0.00  0.00    -0.495 OA
ATOM     34  C   UNL     1      -2.775  -4.741  23.221  0.00  0.00    +0.277 C 
ENDBRANCH  32   5
ENDBRANCH  17  22
BRANCH   7   1
ATOM      1  S   UNL     1      -0.506   3.529  23.008  0.00  0.00    +0.061 S 
ATOM      2  O   UNL     1       0.145   4.820  23.094  0.00  0.00    -0.153 OA
ATOM      3  O   UNL     1      -1.399   3.217  21.913  0.00  0.00    -0.153 OA
BRANCH   1  21
ATOM     21  C   UNL     1       0.750   2.289  23.056  0.00  0.00    +0.106 A 
ATOM     23  C   UNL     1       0.383   0.953  23.079  0.00  0.00    +0.030 A 
ATOM     24  C   UNL     1       2.081   2.672  23.067  0.00  0.00    +0.030 A 
ATOM     27  C   UNL     1       1.375  -0.026  23.117  0.00  0.00    +0.025 A 
ATOM     28  C   UNL     1       3.072   1.692  23.104  0.00  0.00    +0.025 A 
ATOM     31  C   UNL     1       2.720   0.343  23.129  0.00  0.00    +0.033 A 
BRANCH  31   9
ATOM      6  O   UNL     1       5.422   0.345  24.456  0.00  0.00    -0.276 OA
ATOM      9  N   UNL     1       3.711  -0.638  23.166  0.00  0.00    -0.286 N 
ATOM     33  C   UNL     1       4.959  -0.584  23.801  0.00  0.00    +0.214 C 
ATOM     35  C   UNL     1       5.744  -1.856  23.603  0.00  0.00    +0.109 C 
ATOM     36  H   UNL     1       3.492  -1.497  22.665  0.00  0.00    +0.155 HD
ENDBRANCH  31   9
ENDBRANCH   1  21
ENDBRANCH   7   1
TORSDOF 5
ENDMDL
MODEL 5
REMARK VINA RESULT:      18.4      2.605      5.527
REMARK  Name = 7144117
REMARK  7 active torsions:
REMARK  status: ('A' for Active; 'I' for Inactive)
REMARK    1  A    between atoms: S_1  and  N_7
REMARK    2  A    between atoms: S_1  and  C_21
REMARK    3  A    between atoms: O_5  and  C_32
REMARK    4  A    between atoms: O_5  and  C_34
REMARK    5  A    between atoms: N_9  and  C_31
REMARK    6  A    between atoms: C_17  and  C_22
REMARK    7  A    between atoms: C_33  and  C_35
REMARK                            x       y       z     vdW  Elec       q    Type
REMARK                         _______ _______ _______ _____ _____    ______ ____
ROOT
ATOM      4  O   UNL     1      -4.515   4.190  20.919  0.00  0.00    -0.268 OA
ATOM      7  N   UNL     1      -3.565   3.618  25.747  0.00  0.00    -0.176 NA
ATOM      8  N   UNL     1      -4.560   2.870  22.854  0.00  0.00    -0.311 N 
ATOM     10  C   UNL     1      -5.913   3.559  24.919  0.00  0.00    +0.025 C 
ATOM     11  C   UNL     1      -4.589   1.493  24.957  0.00  0.00    +0.053 C 
ATOM     12  C   UNL     1      -5.985   2.065  25.191  0.00  0.00    +0.017 C 
ATOM     13  C   UNL     1      -4.914   4.240  25.867  0.00  0.00    +0.114 C 
ATOM     14  C   UNL     1      -3.597   2.140  25.943  0.00  0.00    +0.119 C 
ATOM     15  C   UNL     1      -5.556   3.772  23.447  0.00  0.00    +0.130 C 
ATOM     16  C   UNL     1      -4.129   1.700  23.511  0.00  0.00    +0.034 A 
ATOM     17  C   UNL     1      -3.320   0.820  22.865  0.00  0.00    +0.002 A 
ATOM     18  C   UNL     1      -4.159   3.191  21.545  0.00  0.00    +0.252 A 
ATOM     19  C   UNL     1      -2.882   1.120  21.515  0.00  0.00    +0.015 A 
ATOM     20  C   UNL     1      -3.250   2.231  20.878  0.00  0.00    +0.071 A 
ENDROOT
BRANCH  17  22
ATOM     22  C   UNL     1      -2.859  -0.431  23.507  0.00  0.00    -0.016 A 
ATOM     25  C   UNL     1      -3.738  -1.501  23.642  0.00  0.00    +0.012 A 
ATOM     26  C   UNL     1      -1.552  -0.527  23.971  0.00  0.00    +0.012 A 
ATOM     29  C   UNL     1      -3.303  -2.680  24.248  0.00  0.00    +0.046 A 
ATOM     30  C   UNL     1      -1.116  -1.706  24.577  0.00  0.00    +0.046 A 
ATOM     32  C   UNL     1      -1.993  -2.783  24.715  0.00  0.00    +0.120 A 
BRANCH  32   5
ATOM      5  O   UNL     1      -1.569  -3.933  25.305  0.00  0.00    -0.495 OA
ATOM     34  C   UNL     1      -0.187  -4.016  25.651  0.00  0.00    +0.277 C 
ENDBRANCH  32   5
ENDBRANCH  17  22
BRANCH   7   1
ATOM      1  S   UNL     1      -2.294   4.444  26.541  0.00  0.00    +0.061 S 
ATOM      2  O   UNL     1      -2.274   4.054  27.935  0.00  0.00    -0.153 OA
ATOM      3  O   UNL     1      -2.326   5.839  26.158  0.00  0.00    -0.153 OA
BRANCH   1  21
ATOM     21  C   UNL     1      -0.901   3.697  25.753  0.00  0.00    +0.106 A 
ATOM     23  C   UNL     1      -0.169   2.739  26.437  0.00  0.00    +0.030 A 
ATOM     24  C   UNL     1      -0.564   4.081  24.466  0.00  0.00    +0.030 A 
ATOM     27  C   UNL     1       0.931   2.150  25.814  0.00  0.00    +0.025 A 
ATOM     28  C   UNL     1       0.536   3.490  23.845  0.00  0.00    +0.025 A 
ATOM     31  C   UNL     1       1.284   2.525  24.519  0.00  0.00    +0.033 A 
BRANCH  31   9
ATOM      6  O   UNL     1       1.468   0.063  22.794  0.00  0.00    -0.276 OA
ATOM      9  N   UNL     1       2.385   1.934  23.897  0.00  0.00    -0.286 N 
ATOM     33  C   UNL     1       2.414   0.781  23.102  0.00  0.00    +0.214 C 
ATOM     35  C   UNL     1       3.808   0.472  22.616  0.00  0.00    +0.109 C 
ATOM     36  H   UNL     1       3.274   2.408  24.046  0.00  0.00    +0.155 HD
ENDBRANCH  31   9
ENDBRANCH   1  21
ENDBRANCH   7   1
TORSDOF 5
ENDMDL
