MODEL 1
REMARK VINA RESULT:      -5.3      0.000      0.000
REMARK  Name = 40781520
REMARK  8 active torsions:
REMARK  status: ('A' for Active; 'I' for Inactive)
REMARK    1  A    between atoms: S_1  and  N_9
REMARK    2  A    between atoms: S_1  and  C_21
REMARK    3  A    between atoms: O_3  and  C_11
REMARK    4  A    between atoms: O_4  and  C_12
REMARK    5  A    between atoms: N_9  and  C_15
REMARK    6  A    between atoms: C_10  and  C_14
REMARK    7  A    between atoms: C_13  and  C_15
REMARK    8  A    between atoms: C_14  and  C_16
REMARK                            x       y       z     vdW  Elec       q    Type
REMARK                         _______ _______ _______ _____ _____    ______ ____
ROOT
ATOM      2  O   UNL     1      -2.587  -0.363  25.542  0.00  0.00    -0.366 OA
ATOM     10  C   UNL     1      -3.746  -0.544  24.710  0.00  0.00    +0.158 C 
ATOM     11  C   UNL     1      -3.452  -1.766  23.855  0.00  0.00    +0.175 C 
ATOM     12  C   UNL     1      -2.666  -2.629  24.821  0.00  0.00    +0.175 C 
ATOM     13  C   UNL     1      -1.827  -1.593  25.562  0.00  0.00    +0.165 C 
ENDROOT
BRANCH  11   3
ATOM      3  O   UNL     1      -4.632  -2.382  23.388  0.00  0.00    -0.387 OA
ATOM     22  H   UNL     1      -4.460  -2.693  22.483  0.00  0.00    +0.210 HD
ENDBRANCH  11   3
BRANCH  12   4
ATOM      4  O   UNL     1      -3.544  -3.243  25.764  0.00  0.00    -0.387 OA
ATOM     23  H   UNL     1      -3.128  -3.169  26.639  0.00  0.00    +0.210 HD
ENDBRANCH  12   4
BRANCH  10  14
ATOM     14  C   UNL     1      -3.993   0.714  23.896  0.00  0.00    +0.130 C 
BRANCH  14  16
ATOM      5  O   UNL     1      -5.889   1.662  24.981  0.00  0.00    -0.276 OA
ATOM      8  N   UNL     1      -3.882   2.790  25.186  0.00  0.00    -0.301 N 
ATOM     16  C   UNL     1      -4.685   1.757  24.737  0.00  0.00    +0.218 C 
ATOM     17  C   UNL     1      -4.401   3.877  26.002  0.00  0.00    +0.108 C 
ATOM     18  C   UNL     1      -2.455   2.957  24.936  0.00  0.00    +0.108 C 
ATOM     19  C   UNL     1      -3.161   4.581  26.530  0.00  0.00    +0.020 C 
ATOM     20  C   UNL     1      -2.150   4.371  25.410  0.00  0.00    +0.020 C 
ENDBRANCH  14  16
ENDBRANCH  10  14
BRANCH  13  15
ATOM     15  C   UNL     1      -0.486  -1.322  24.892  0.00  0.00    +0.139 C 
BRANCH  15   9
ATOM      9  N   UNL     1      -0.090   0.044  25.060  0.00  0.00    -0.192 NA
ATOM     24  H   UNL     1       0.491   0.217  25.891  0.00  0.00    +0.148 HD
BRANCH   9   1
ATOM      1  S   UNL     1       0.277   1.024  23.686  0.00  0.00    +0.027 S 
ATOM      6  O   UNL     1       1.024   2.187  24.121  0.00  0.00    -0.158 OA
ATOM      7  O   UNL     1      -0.906   1.168  22.859  0.00  0.00    -0.158 OA
ATOM     21  C   UNL     1       1.398  -0.055  22.824  0.00  0.00    +0.214 C 
ENDBRANCH   9   1
ENDBRANCH  15   9
ENDBRANCH  13  15
TORSDOF 7
ENDMDL
MODEL 2
REMARK VINA RESULT:      -5.2      2.365      5.688
REMARK  Name = 40781520
REMARK  8 active torsions:
REMARK  status: ('A' for Active; 'I' for Inactive)
REMARK    1  A    between atoms: S_1  and  N_9
REMARK    2  A    between atoms: S_1  and  C_21
REMARK    3  A    between atoms: O_3  and  C_11
REMARK    4  A    between atoms: O_4  and  C_12
REMARK    5  A    between atoms: N_9  and  C_15
REMARK    6  A    between atoms: C_10  and  C_14
REMARK    7  A    between atoms: C_13  and  C_15
REMARK    8  A    between atoms: C_14  and  C_16
REMARK                            x       y       z     vdW  Elec       q    Type
REMARK                         _______ _______ _______ _____ _____    ______ ____
ROOT
ATOM      2  O   UNL     1      -0.717   2.546  26.227  0.00  0.00    -0.366 OA
ATOM     10  C   UNL     1      -0.548   1.278  25.572  0.00  0.00    +0.158 C 
ATOM     11  C   UNL     1      -0.860   1.526  24.106  0.00  0.00    +0.175 C 
ATOM     12  C   UNL     1      -0.315   2.927  23.913  0.00  0.00    +0.175 C 
ATOM     13  C   UNL     1      -0.685   3.596  25.232  0.00  0.00    +0.165 C 
ENDROOT
BRANCH  11   3
ATOM      3  O   UNL     1      -0.253   0.570  23.265  0.00  0.00    -0.387 OA
ATOM     22  H   UNL     1      -0.965   0.081  22.818  0.00  0.00    +0.210 HD
ENDBRANCH  11   3
BRANCH  12   4
ATOM      4  O   UNL     1       1.109   2.895  23.818  0.00  0.00    -0.387 OA
ATOM     23  H   UNL     1       1.362   3.443  23.056  0.00  0.00    +0.210 HD
ENDBRANCH  12   4
BRANCH  10  14
ATOM     14  C   UNL     1      -1.457   0.245  26.215  0.00  0.00    +0.130 C 
BRANCH  14  16
ATOM      5  O   UNL     1      -0.195  -1.672  25.578  0.00  0.00    -0.276 OA
ATOM      8  N   UNL     1      -2.409  -1.598  24.917  0.00  0.00    -0.301 N 
ATOM     16  C   UNL     1      -1.284  -1.096  25.547  0.00  0.00    +0.218 C 
ATOM     17  C   UNL     1      -2.403  -2.876  24.221  0.00  0.00    +0.108 C 
ATOM     18  C   UNL     1      -3.723  -0.968  24.846  0.00  0.00    +0.108 C 
ATOM     19  C   UNL     1      -3.872  -3.182  23.976  0.00  0.00    +0.020 C 
ATOM     20  C   UNL     1      -4.485  -1.795  23.821  0.00  0.00    +0.020 C 
ENDBRANCH  14  16
ENDBRANCH  10  14
BRANCH  13  15
ATOM     15  C   UNL     1      -2.060   4.251  25.203  0.00  0.00    +0.139 C 
BRANCH  15   9
ATOM      9  N   UNL     1      -3.014   3.489  25.953  0.00  0.00    -0.192 NA
ATOM     24  H   UNL     1      -3.023   3.696  26.960  0.00  0.00    +0.148 HD
BRANCH   9   1
ATOM      1  S   UNL     1      -4.548   3.089  25.267  0.00  0.00    +0.027 S 
ATOM      6  O   UNL     1      -5.463   4.191  25.483  0.00  0.00    -0.158 OA
ATOM      7  O   UNL     1      -4.913   1.736  25.643  0.00  0.00    -0.158 OA
ATOM     21  C   UNL     1      -4.120   3.063  23.541  0.00  0.00    +0.214 C 
ENDBRANCH   9   1
ENDBRANCH  15   9
ENDBRANCH  13  15
TORSDOF 7
ENDMDL
MODEL 3
REMARK VINA RESULT:      -5.2      2.156      4.382
REMARK  Name = 40781520
REMARK  8 active torsions:
REMARK  status: ('A' for Active; 'I' for Inactive)
REMARK    1  A    between atoms: S_1  and  N_9
REMARK    2  A    between atoms: S_1  and  C_21
REMARK    3  A    between atoms: O_3  and  C_11
REMARK    4  A    between atoms: O_4  and  C_12
REMARK    5  A    between atoms: N_9  and  C_15
REMARK    6  A    between atoms: C_10  and  C_14
REMARK    7  A    between atoms: C_13  and  C_15
REMARK    8  A    between atoms: C_14  and  C_16
REMARK                            x       y       z     vdW  Elec       q    Type
REMARK                         _______ _______ _______ _____ _____    ______ ____
ROOT
ATOM      2  O   UNL     1      -1.416   0.635  23.523  0.00  0.00    -0.366 OA
ATOM     10  C   UNL     1      -1.409   2.052  23.277  0.00  0.00    +0.158 C 
ATOM     11  C   UNL     1      -0.843   2.686  24.535  0.00  0.00    +0.175 C 
ATOM     12  C   UNL     1       0.183   1.655  24.960  0.00  0.00    +0.175 C 
ATOM     13  C   UNL     1      -0.525   0.347  24.625  0.00  0.00    +0.165 C 
ENDROOT
BRANCH  11   3
ATOM      3  O   UNL     1      -0.286   3.958  24.284  0.00  0.00    -0.387 OA
ATOM     22  H   UNL     1       0.245   3.889  23.472  0.00  0.00    +0.210 HD
ENDBRANCH  11   3
BRANCH  12   4
ATOM      4  O   UNL     1       1.348   1.750  24.139  0.00  0.00    -0.387 OA
ATOM     23  H   UNL     1       1.242   1.115  23.410  0.00  0.00    +0.210 HD
ENDBRANCH  12   4
BRANCH  10  14
ATOM     14  C   UNL     1      -2.816   2.520  22.947  0.00  0.00    +0.130 C 
BRANCH  14  16
ATOM      5  O   UNL     1      -2.953   4.433  24.358  0.00  0.00    -0.276 OA
ATOM      8  N   UNL     1      -4.402   2.688  24.801  0.00  0.00    -0.301 N 
ATOM     16  C   UNL     1      -3.389   3.312  24.095  0.00  0.00    +0.218 C 
ATOM     17  C   UNL     1      -5.054   3.317  25.940  0.00  0.00    +0.108 C 
ATOM     18  C   UNL     1      -4.964   1.367  24.539  0.00  0.00    +0.108 C 
ATOM     19  C   UNL     1      -6.284   2.459  26.195  0.00  0.00    +0.020 C 
ATOM     20  C   UNL     1      -5.826   1.073  25.758  0.00  0.00    +0.020 C 
ENDBRANCH  14  16
ENDBRANCH  10  14
BRANCH  13  15
ATOM     15  C   UNL     1      -1.367  -0.186  25.777  0.00  0.00    +0.139 C 
BRANCH  15   9
ATOM      9  N   UNL     1      -2.656  -0.616  25.322  0.00  0.00    -0.192 NA
ATOM     24  H   UNL     1      -3.176   0.096  24.792  0.00  0.00    +0.148 HD
BRANCH   9   1
ATOM      1  S   UNL     1      -2.904  -2.246  24.808  0.00  0.00    +0.027 S 
ATOM      6  O   UNL     1      -3.385  -3.027  25.930  0.00  0.00    -0.158 OA
ATOM      7  O   UNL     1      -1.765  -2.691  24.028  0.00  0.00    -0.158 OA
ATOM     21  C   UNL     1      -4.260  -2.015  23.681  0.00  0.00    +0.214 C 
ENDBRANCH   9   1
ENDBRANCH  15   9
ENDBRANCH  13  15
TORSDOF 7
ENDMDL
MODEL 4
REMARK VINA RESULT:      -5.1      2.545      5.640
REMARK  Name = 40781520
REMARK  8 active torsions:
REMARK  status: ('A' for Active; 'I' for Inactive)
REMARK    1  A    between atoms: S_1  and  N_9
REMARK    2  A    between atoms: S_1  and  C_21
REMARK    3  A    between atoms: O_3  and  C_11
REMARK    4  A    between atoms: O_4  and  C_12
REMARK    5  A    between atoms: N_9  and  C_15
REMARK    6  A    between atoms: C_10  and  C_14
REMARK    7  A    between atoms: C_13  and  C_15
REMARK    8  A    between atoms: C_14  and  C_16
REMARK                            x       y       z     vdW  Elec       q    Type
REMARK                         _______ _______ _______ _____ _____    ______ ____
ROOT
ATOM      2  O   UNL     1      -1.658   1.533  25.467  0.00  0.00    -0.366 OA
ATOM     10  C   UNL     1      -0.553   1.077  24.668  0.00  0.00    +0.158 C 
ATOM     11  C   UNL     1       0.335   2.293  24.463  0.00  0.00    +0.175 C 
ATOM     12  C   UNL     1       0.180   3.009  25.789  0.00  0.00    +0.175 C 
ATOM     13  C   UNL     1      -1.295   2.780  26.102  0.00  0.00    +0.165 C 
ENDROOT
BRANCH  11   3
ATOM      3  O   UNL     1       1.669   1.933  24.175  0.00  0.00    -0.387 OA
ATOM     22  H   UNL     1       2.013   2.577  23.533  0.00  0.00    +0.210 HD
ENDBRANCH  11   3
BRANCH  12   4
ATOM      4  O   UNL     1       0.952   2.356  26.797  0.00  0.00    -0.387 OA
ATOM     23  H   UNL     1       0.367   2.206  27.559  0.00  0.00    +0.210 HD
ENDBRANCH  12   4
BRANCH  10  14
ATOM     14  C   UNL     1      -1.072   0.485  23.369  0.00  0.00    +0.130 C 
BRANCH  14  16
ATOM      5  O   UNL     1      -3.328   1.203  23.110  0.00  0.00    -0.276 OA
ATOM      8  N   UNL     1      -2.986  -0.945  23.892  0.00  0.00    -0.301 N 
ATOM     16  C   UNL     1      -2.565   0.292  23.438  0.00  0.00    +0.218 C 
ATOM     17  C   UNL     1      -4.395  -1.286  24.023  0.00  0.00    +0.108 C 
ATOM     18  C   UNL     1      -2.137  -2.063  24.292  0.00  0.00    +0.108 C 
ATOM     19  C   UNL     1      -4.404  -2.793  24.224  0.00  0.00    +0.020 C 
ATOM     20  C   UNL     1      -3.092  -3.045  24.955  0.00  0.00    +0.020 C 
ENDBRANCH  14  16
ENDBRANCH  10  14
BRANCH  13  15
ATOM     15  C   UNL     1      -2.199   3.869  25.540  0.00  0.00    +0.139 C 
BRANCH  15   9
ATOM      9  N   UNL     1      -3.490   3.843  26.162  0.00  0.00    -0.192 NA
ATOM     24  H   UNL     1      -3.580   4.467  26.975  0.00  0.00    +0.148 HD
BRANCH   9   1
ATOM      1  S   UNL     1      -4.918   3.664  25.207  0.00  0.00    +0.027 S 
ATOM      6  O   UNL     1      -4.557   3.708  23.804  0.00  0.00    -0.158 OA
ATOM      7  O   UNL     1      -5.966   4.520  25.730  0.00  0.00    -0.158 OA
ATOM     21  C   UNL     1      -5.353   1.987  25.608  0.00  0.00    +0.214 C 
ENDBRANCH   9   1
ENDBRANCH  15   9
ENDBRANCH  13  15
TORSDOF 7
ENDMDL
MODEL 5
REMARK VINA RESULT:      -5.0      2.203      4.500
REMARK  Name = 40781520
REMARK  8 active torsions:
REMARK  status: ('A' for Active; 'I' for Inactive)
REMARK    1  A    between atoms: S_1  and  N_9
REMARK    2  A    between atoms: S_1  and  C_21
REMARK    3  A    between atoms: O_3  and  C_11
REMARK    4  A    between atoms: O_4  and  C_12
REMARK    5  A    between atoms: N_9  and  C_15
REMARK    6  A    between atoms: C_10  and  C_14
REMARK    7  A    between atoms: C_13  and  C_15
REMARK    8  A    between atoms: C_14  and  C_16
REMARK                            x       y       z     vdW  Elec       q    Type
REMARK                         _______ _______ _______ _____ _____    ______ ____
ROOT
ATOM      2  O   UNL     1      -1.750   2.772  23.520  0.00  0.00    -0.366 OA
ATOM     10  C   UNL     1      -3.056   3.116  24.013  0.00  0.00    +0.158 C 
ATOM     11  C   UNL     1      -2.901   3.265  25.517  0.00  0.00    +0.175 C 
ATOM     12  C   UNL     1      -1.512   3.862  25.621  0.00  0.00    +0.175 C 
ATOM     13  C   UNL     1      -0.765   3.118  24.520  0.00  0.00    +0.165 C 
ENDROOT
BRANCH  11   3
ATOM      3  O   UNL     1      -3.905   4.086  26.074  0.00  0.00    -0.387 OA
ATOM     22  H   UNL     1      -3.491   4.616  26.777  0.00  0.00    +0.210 HD
ENDBRANCH  11   3
BRANCH  12   4
ATOM      4  O   UNL     1      -1.542   5.247  25.278  0.00  0.00    -0.387 OA
ATOM     23  H   UNL     1      -2.406   5.427  24.870  0.00  0.00    +0.210 HD
ENDBRANCH  12   4
BRANCH  10  14
ATOM     14  C   UNL     1      -4.052   2.041  23.615  0.00  0.00    +0.130 C 
BRANCH  14  16
ATOM      5  O   UNL     1      -5.177   1.543  25.654  0.00  0.00    -0.276 OA
ATOM      8  N   UNL     1      -3.724  -0.056  24.832  0.00  0.00    -0.301 N 
ATOM     16  C   UNL     1      -4.379   1.162  24.796  0.00  0.00    +0.218 C 
ATOM     17  C   UNL     1      -3.925  -1.013  25.910  0.00  0.00    +0.108 C 
ATOM     18  C   UNL     1      -2.773  -0.564  23.850  0.00  0.00    +0.108 C 
ATOM     19  C   UNL     1      -3.295  -2.299  25.398  0.00  0.00    +0.020 C 
ATOM     20  C   UNL     1      -2.164  -1.792  24.512  0.00  0.00    +0.020 C 
ENDBRANCH  14  16
ENDBRANCH  10  14
BRANCH  13  15
ATOM     15  C   UNL     1      -0.121   1.825  25.005  0.00  0.00    +0.139 C 
BRANCH  15   9
ATOM      9  N   UNL     1       1.025   1.489  24.214  0.00  0.00    -0.192 NA
ATOM     24  H   UNL     1       1.925   1.747  24.641  0.00  0.00    +0.148 HD
BRANCH   9   1
ATOM      1  S   UNL     1       1.044   0.041  23.272  0.00  0.00    +0.027 S 
ATOM      6  O   UNL     1       0.115   0.183  22.168  0.00  0.00    -0.158 OA
ATOM      7  O   UNL     1       0.982  -1.113  24.149  0.00  0.00    -0.158 OA
ATOM     21  C   UNL     1       2.694   0.118  22.613  0.00  0.00    +0.214 C 
ENDBRANCH   9   1
ENDBRANCH  15   9
ENDBRANCH  13  15
TORSDOF 7
ENDMDL
MODEL 6
REMARK VINA RESULT:      -4.9      2.044      2.864
REMARK  Name = 40781520
REMARK  8 active torsions:
REMARK  status: ('A' for Active; 'I' for Inactive)
REMARK    1  A    between atoms: S_1  and  N_9
REMARK    2  A    between atoms: S_1  and  C_21
REMARK    3  A    between atoms: O_3  and  C_11
REMARK    4  A    between atoms: O_4  and  C_12
REMARK    5  A    between atoms: N_9  and  C_15
REMARK    6  A    between atoms: C_10  and  C_14
REMARK    7  A    between atoms: C_13  and  C_15
REMARK    8  A    between atoms: C_14  and  C_16
REMARK                            x       y       z     vdW  Elec       q    Type
REMARK                         _______ _______ _______ _____ _____    ______ ____
ROOT
ATOM      2  O   UNL     1      -1.921   0.249  25.380  0.00  0.00    -0.366 OA
ATOM     10  C   UNL     1      -2.610  -0.936  24.945  0.00  0.00    +0.158 C 
ATOM     11  C   UNL     1      -1.635  -1.670  24.041  0.00  0.00    +0.175 C 
ATOM     12  C   UNL     1      -0.312  -1.373  24.717  0.00  0.00    +0.175 C 
ATOM     13  C   UNL     1      -0.502   0.073  25.165  0.00  0.00    +0.165 C 
ENDROOT
BRANCH  11   3
ATOM      3  O   UNL     1      -1.923  -3.049  23.960  0.00  0.00    -0.387 OA
ATOM     22  H   UNL     1      -2.253  -3.330  24.830  0.00  0.00    +0.210 HD
ENDBRANCH  11   3
BRANCH  12   4
ATOM      4  O   UNL     1      -0.160  -2.181  25.885  0.00  0.00    -0.387 OA
ATOM     23  H   UNL     1      -0.326  -1.611  26.655  0.00  0.00    +0.210 HD
ENDBRANCH  12   4
BRANCH  10  14
ATOM     14  C   UNL     1      -3.903  -0.549  24.248  0.00  0.00    +0.130 C 
BRANCH  14  16
ATOM      5  O   UNL     1      -3.192   1.145  22.732  0.00  0.00    -0.276 OA
ATOM      8  N   UNL     1      -4.501   1.808  24.517  0.00  0.00    -0.301 N 
ATOM     16  C   UNL     1      -3.827   0.873  23.752  0.00  0.00    +0.218 C 
ATOM     17  C   UNL     1      -4.518   3.223  24.177  0.00  0.00    +0.108 C 
ATOM     18  C   UNL     1      -5.270   1.551  25.730  0.00  0.00    +0.108 C 
ATOM     19  C   UNL     1      -5.608   3.813  25.059  0.00  0.00    +0.020 C 
ATOM     20  C   UNL     1      -5.549   2.934  26.302  0.00  0.00    +0.020 C 
ENDBRANCH  14  16
ENDBRANCH  10  14
BRANCH  13  15
ATOM     15  C   UNL     1      -0.062   1.085  24.115  0.00  0.00    +0.139 C 
BRANCH  15   9
ATOM      9  N   UNL     1      -0.846   2.282  24.188  0.00  0.00    -0.192 NA
ATOM     24  H   UNL     1      -1.787   2.196  23.781  0.00  0.00    +0.148 HD
BRANCH   9   1
ATOM      1  S   UNL     1      -0.726   3.324  25.560  0.00  0.00    +0.027 S 
ATOM      6  O   UNL     1       0.524   3.063  26.244  0.00  0.00    -0.158 OA
ATOM      7  O   UNL     1      -1.983   3.323  26.286  0.00  0.00    -0.158 OA
ATOM     21  C   UNL     1      -0.587   4.898  24.745  0.00  0.00    +0.214 C 
ENDBRANCH   9   1
ENDBRANCH  15   9
ENDBRANCH  13  15
TORSDOF 7
ENDMDL
MODEL 7
REMARK VINA RESULT:      -4.8      2.195      4.307
REMARK  Name = 40781520
REMARK  8 active torsions:
REMARK  status: ('A' for Active; 'I' for Inactive)
REMARK    1  A    between atoms: S_1  and  N_9
REMARK    2  A    between atoms: S_1  and  C_21
REMARK    3  A    between atoms: O_3  and  C_11
REMARK    4  A    between atoms: O_4  and  C_12
REMARK    5  A    between atoms: N_9  and  C_15
REMARK    6  A    between atoms: C_10  and  C_14
REMARK    7  A    between atoms: C_13  and  C_15
REMARK    8  A    between atoms: C_14  and  C_16
REMARK                            x       y       z     vdW  Elec       q    Type
REMARK                         _______ _______ _______ _____ _____    ______ ____
ROOT
ATOM      2  O   UNL     1      -2.624  -0.298  23.686  0.00  0.00    -0.366 OA
ATOM     10  C   UNL     1      -2.070  -1.532  24.172  0.00  0.00    +0.158 C 
ATOM     11  C   UNL     1      -3.082  -2.074  25.167  0.00  0.00    +0.175 C 
ATOM     12  C   UNL     1      -4.390  -1.649  24.532  0.00  0.00    +0.175 C 
ATOM     13  C   UNL     1      -4.040  -0.272  23.977  0.00  0.00    +0.165 C 
ENDROOT
BRANCH  11   3
ATOM      3  O   UNL     1      -2.969  -3.471  25.332  0.00  0.00    -0.387 OA
ATOM     22  H   UNL     1      -3.366  -3.697  26.190  0.00  0.00    +0.210 HD
ENDBRANCH  11   3
BRANCH  12   4
ATOM      4  O   UNL     1      -4.706  -2.502  23.432  0.00  0.00    -0.387 OA
ATOM     23  H   UNL     1      -3.866  -2.825  23.064  0.00  0.00    +0.210 HD
ENDBRANCH  12   4
BRANCH  10  14
ATOM     14  C   UNL     1      -0.703  -1.275  24.782  0.00  0.00    +0.130 C 
BRANCH  14  16
ATOM      5  O   UNL     1       0.541  -0.318  22.991  0.00  0.00    -0.276 OA
ATOM      8  N   UNL     1      -0.062   1.085  24.726  0.00  0.00    -0.301 N 
ATOM     16  C   UNL     1      -0.017  -0.134  24.074  0.00  0.00    +0.218 C 
ATOM     17  C   UNL     1       0.558   2.282  24.177  0.00  0.00    +0.108 C 
ATOM     18  C   UNL     1      -0.707   1.368  26.004  0.00  0.00    +0.108 C 
ATOM     19  C   UNL     1      -0.000   3.419  25.018  0.00  0.00    +0.020 C 
ATOM     20  C   UNL     1      -0.218   2.761  26.375  0.00  0.00    +0.020 C 
ENDBRANCH  14  16
ENDBRANCH  10  14
BRANCH  13  15
ATOM     15  C   UNL     1      -4.291   0.853  24.972  0.00  0.00    +0.139 C 
BRANCH  15   9
ATOM      9  N   UNL     1      -3.457   1.985  24.695  0.00  0.00    -0.192 NA
ATOM     24  H   UNL     1      -2.911   1.906  23.827  0.00  0.00    +0.148 HD
BRANCH   9   1
ATOM      1  S   UNL     1      -3.988   3.580  25.092  0.00  0.00    +0.027 S 
ATOM      6  O   UNL     1      -4.052   4.372  23.880  0.00  0.00    -0.158 OA
ATOM      7  O   UNL     1      -3.264   4.061  26.254  0.00  0.00    -0.158 OA
ATOM     21  C   UNL     1      -5.654   3.235  25.609  0.00  0.00    +0.214 C 
ENDBRANCH   9   1
ENDBRANCH  15   9
ENDBRANCH  13  15
TORSDOF 7
ENDMDL
MODEL 8
REMARK VINA RESULT:      -4.5      2.118      2.795
REMARK  Name = 40781520
REMARK  8 active torsions:
REMARK  status: ('A' for Active; 'I' for Inactive)
REMARK    1  A    between atoms: S_1  and  N_9
REMARK    2  A    between atoms: S_1  and  C_21
REMARK    3  A    between atoms: O_3  and  C_11
REMARK    4  A    between atoms: O_4  and  C_12
REMARK    5  A    between atoms: N_9  and  C_15
REMARK    6  A    between atoms: C_10  and  C_14
REMARK    7  A    between atoms: C_13  and  C_15
REMARK    8  A    between atoms: C_14  and  C_16
REMARK                            x       y       z     vdW  Elec       q    Type
REMARK                         _______ _______ _______ _____ _____    ______ ____
ROOT
ATOM      2  O   UNL     1      -1.584   0.676  25.002  0.00  0.00    -0.366 OA
ATOM     10  C   UNL     1      -2.401  -0.482  24.759  0.00  0.00    +0.158 C 
ATOM     11  C   UNL     1      -1.511  -1.465  24.017  0.00  0.00    +0.175 C 
ATOM     12  C   UNL     1      -0.166  -1.204  24.664  0.00  0.00    +0.175 C 
ATOM     13  C   UNL     1      -0.193   0.308  24.853  0.00  0.00    +0.165 C 
ENDROOT
BRANCH  11   3
ATOM      3  O   UNL     1      -1.954  -2.796  24.166  0.00  0.00    -0.387 OA
ATOM     22  H   UNL     1      -2.318  -2.885  25.063  0.00  0.00    +0.210 HD
ENDBRANCH  11   3
BRANCH  12   4
ATOM      4  O   UNL     1      -0.112  -1.811  25.956  0.00  0.00    -0.387 OA
ATOM     23  H   UNL     1      -0.216  -1.102  26.613  0.00  0.00    +0.210 HD
ENDBRANCH  12   4
BRANCH  10  14
ATOM     14  C   UNL     1      -3.638  -0.079  23.975  0.00  0.00    +0.130 C 
BRANCH  14  16
ATOM      5  O   UNL     1      -2.940   1.810  22.703  0.00  0.00    -0.276 OA
ATOM      8  N   UNL     1      -4.342   2.205  24.498  0.00  0.00    -0.301 N 
ATOM     16  C   UNL     1      -3.602   1.394  23.656  0.00  0.00    +0.218 C 
ATOM     17  C   UNL     1      -4.405   3.648  24.328  0.00  0.00    +0.108 C 
ATOM     18  C   UNL     1      -5.146   1.775  25.638  0.00  0.00    +0.108 C 
ATOM     19  C   UNL     1      -5.551   4.087  25.227  0.00  0.00    +0.020 C 
ATOM     20  C   UNL     1      -5.503   3.068  26.358  0.00  0.00    +0.020 C 
ENDBRANCH  14  16
ENDBRANCH  10  14
BRANCH  13  15
ATOM     15  C   UNL     1       0.364   1.069  23.657  0.00  0.00    +0.139 C 
BRANCH  15   9
ATOM      9  N   UNL     1       1.794   1.144  23.711  0.00  0.00    -0.192 NA
ATOM     24  H   UNL     1       2.171   1.366  24.643  0.00  0.00    +0.148 HD
BRANCH   9   1
ATOM      1  S   UNL     1       2.763   0.081  22.756  0.00  0.00    +0.027 S 
ATOM      6  O   UNL     1       2.122  -0.118  21.472  0.00  0.00    -0.158 OA
ATOM      7  O   UNL     1       3.182  -1.052  23.560  0.00  0.00    -0.158 OA
ATOM     21  C   UNL     1       4.194   1.106  22.501  0.00  0.00    +0.214 C 
ENDBRANCH   9   1
ENDBRANCH  15   9
ENDBRANCH  13  15
TORSDOF 7
ENDMDL
MODEL 9
REMARK VINA RESULT:      -4.0      2.132      4.748
REMARK  Name = 40781520
REMARK  8 active torsions:
REMARK  status: ('A' for Active; 'I' for Inactive)
REMARK    1  A    between atoms: S_1  and  N_9
REMARK    2  A    between atoms: S_1  and  C_21
REMARK    3  A    between atoms: O_3  and  C_11
REMARK    4  A    between atoms: O_4  and  C_12
REMARK    5  A    between atoms: N_9  and  C_15
REMARK    6  A    between atoms: C_10  and  C_14
REMARK    7  A    between atoms: C_13  and  C_15
REMARK    8  A    between atoms: C_14  and  C_16
REMARK                            x       y       z     vdW  Elec       q    Type
REMARK                         _______ _______ _______ _____ _____    ______ ____
ROOT
ATOM      2  O   UNL     1      -2.815   0.197  24.137  0.00  0.00    -0.366 OA
ATOM     10  C   UNL     1      -2.310  -0.968  24.812  0.00  0.00    +0.158 C 
ATOM     11  C   UNL     1      -3.525  -1.658  25.407  0.00  0.00    +0.175 C 
ATOM     12  C   UNL     1      -4.576  -1.389  24.348  0.00  0.00    +0.175 C 
ATOM     13  C   UNL     1      -4.235   0.034  23.919  0.00  0.00    +0.165 C 
ENDROOT
BRANCH  11   3
ATOM      3  O   UNL     1      -3.298  -3.033  25.631  0.00  0.00    -0.387 OA
ATOM     22  H   UNL     1      -4.164  -3.475  25.634  0.00  0.00    +0.210 HD
ENDBRANCH  11   3
BRANCH  12   4
ATOM      4  O   UNL     1      -4.379  -2.249  23.225  0.00  0.00    -0.387 OA
ATOM     23  H   UNL     1      -3.704  -1.837  22.659  0.00  0.00    +0.210 HD
ENDBRANCH  12   4
BRANCH  10  14
ATOM     14  C   UNL     1      -1.284  -0.553  25.852  0.00  0.00    +0.130 C 
BRANCH  14  16
ATOM      5  O   UNL     1      -0.864   1.787  26.001  0.00  0.00    -0.276 OA
ATOM      8  N   UNL     1       0.308   0.603  24.398  0.00  0.00    -0.301 N 
ATOM     16  C   UNL     1      -0.600   0.724  25.435  0.00  0.00    +0.218 C 
ATOM     17  C   UNL     1       1.046   1.743  23.876  0.00  0.00    +0.108 C 
ATOM     18  C   UNL     1       0.666  -0.622  23.691  0.00  0.00    +0.108 C 
ATOM     19  C   UNL     1       2.133   1.127  23.009  0.00  0.00    +0.020 C 
ATOM     20  C   UNL     1       1.474  -0.146  22.493  0.00  0.00    +0.020 C 
ENDBRANCH  14  16
ENDBRANCH  10  14
BRANCH  13  15
ATOM     15  C   UNL     1      -4.957   1.094  24.740  0.00  0.00    +0.139 C 
BRANCH  15   9
ATOM      9  N   UNL     1      -4.030   1.897  25.480  0.00  0.00    -0.192 NA
ATOM     24  H   UNL     1      -3.126   1.440  25.662  0.00  0.00    +0.148 HD
BRANCH   9   1
ATOM      1  S   UNL     1      -3.957   3.605  25.230  0.00  0.00    +0.027 S 
ATOM      6  O   UNL     1      -3.697   3.866  23.829  0.00  0.00    -0.158 OA
ATOM      7  O   UNL     1      -3.141   4.215  26.263  0.00  0.00    -0.158 OA
ATOM     21  C   UNL     1      -5.648   4.041  25.564  0.00  0.00    +0.214 C 
ENDBRANCH   9   1
ENDBRANCH  15   9
ENDBRANCH  13  15
TORSDOF 7
ENDMDL
MODEL 10
REMARK VINA RESULT:      -4.0      2.531      3.685
REMARK  Name = 40781520
REMARK  8 active torsions:
REMARK  status: ('A' for Active; 'I' for Inactive)
REMARK    1  A    between atoms: S_1  and  N_9
REMARK    2  A    between atoms: S_1  and  C_21
REMARK    3  A    between atoms: O_3  and  C_11
REMARK    4  A    between atoms: O_4  and  C_12
REMARK    5  A    between atoms: N_9  and  C_15
REMARK    6  A    between atoms: C_10  and  C_14
REMARK    7  A    between atoms: C_13  and  C_15
REMARK    8  A    between atoms: C_14  and  C_16
REMARK                            x       y       z     vdW  Elec       q    Type
REMARK                         _______ _______ _______ _____ _____    ______ ____
ROOT
ATOM      2  O   UNL     1       0.715   1.431  24.377  0.00  0.00    -0.366 OA
ATOM     10  C   UNL     1      -0.719   1.341  24.433  0.00  0.00    +0.158 C 
ATOM     11  C   UNL     1      -1.078   0.047  23.722  0.00  0.00    +0.175 C 
ATOM     12  C   UNL     1       0.080  -0.847  24.116  0.00  0.00    +0.175 C 
ATOM     13  C   UNL     1       1.256   0.123  24.081  0.00  0.00    +0.165 C 
ENDROOT
BRANCH  11   3
ATOM      3  O   UNL     1      -2.333  -0.452  24.130  0.00  0.00    -0.387 OA
ATOM     22  H   UNL     1      -2.174  -1.093  24.844  0.00  0.00    +0.210 HD
ENDBRANCH  11   3
BRANCH  12   4
ATOM      4  O   UNL     1      -0.080  -1.300  25.461  0.00  0.00    -0.387 OA
ATOM     23  H   UNL     1      -0.901  -0.909  25.803  0.00  0.00    +0.210 HD
ENDBRANCH  12   4
BRANCH  10  14
ATOM     14  C   UNL     1      -1.334   2.572  23.790  0.00  0.00    +0.130 C 
BRANCH  14  16
ATOM      5  O   UNL     1      -1.463   4.251  25.474  0.00  0.00    -0.276 OA
ATOM      8  N   UNL     1      -3.408   3.109  24.970  0.00  0.00    -0.301 N 
ATOM     16  C   UNL     1      -2.063   3.395  24.822  0.00  0.00    +0.218 C 
ATOM     17  C   UNL     1      -4.249   3.810  25.929  0.00  0.00    +0.108 C 
ATOM     18  C   UNL     1      -4.175   2.113  24.230  0.00  0.00    +0.108 C 
ATOM     19  C   UNL     1      -5.669   3.431  25.537  0.00  0.00    +0.020 C 
ATOM     20  C   UNL     1      -5.500   2.026  24.973  0.00  0.00    +0.020 C 
ENDBRANCH  14  16
ENDBRANCH  10  14
BRANCH  13  15
ATOM     15  C   UNL     1       1.928   0.196  22.716  0.00  0.00    +0.139 C 
BRANCH  15   9
ATOM      9  N   UNL     1       3.155   0.932  22.780  0.00  0.00    -0.192 NA
ATOM     24  H   UNL     1       3.045   1.912  23.075  0.00  0.00    +0.148 HD
BRANCH   9   1
ATOM      1  S   UNL     1       4.611   0.162  23.301  0.00  0.00    +0.027 S 
ATOM      6  O   UNL     1       5.065   0.789  24.526  0.00  0.00    -0.158 OA
ATOM      7  O   UNL     1       5.509   0.003  22.172  0.00  0.00    -0.158 OA
ATOM     21  C   UNL     1       3.982  -1.450  23.710  0.00  0.00    +0.214 C 
ENDBRANCH   9   1
ENDBRANCH  15   9
ENDBRANCH  13  15
TORSDOF 7
ENDMDL
