MODEL 1
REMARK VINA RESULT:       0.3      0.000      0.000
REMARK  Name = 51136967
REMARK  5 active torsions:
REMARK  status: ('A' for Active; 'I' for Inactive)
REMARK    1  A    between atoms: N_2  and  C_13
REMARK    2  A    between atoms: C_9  and  C_14
REMARK    3  A    between atoms: C_13  and  C_15
REMARK    4  A    between atoms: C_16  and  C_18
REMARK    5  A    between atoms: C_23  and  C_24
REMARK                            x       y       z     vdW  Elec       q    Type
REMARK                         _______ _______ _______ _____ _____    ______ ____
ROOT
ATOM      1  O   UNL     1      -3.378   2.668  22.399  0.00  0.00    -0.336 OA
ATOM      3  N   UNL     1      -2.453   1.582  24.127  0.00  0.00    -0.190 NA
ATOM      6  N   UNL     1      -2.065   2.365  22.013  0.00  0.00    -0.056 NA
ATOM     14  C   UNL     1      -3.523   2.172  23.656  0.00  0.00    +0.245 A 
ATOM     16  C   UNL     1      -1.586   1.726  23.084  0.00  0.00    +0.204 A 
ENDROOT
BRANCH  16  18
ATOM      7  N   UNL     1       2.041   1.509  23.873  0.00  0.00    -0.254 NA
ATOM     18  C   UNL     1      -0.245   1.220  23.144  0.00  0.00    +0.041 A 
ATOM     20  C   UNL     1       0.087   0.001  22.562  0.00  0.00    +0.015 A 
ATOM     21  C   UNL     1       0.759   1.929  23.782  0.00  0.00    +0.123 A 
ATOM     22  C   UNL     1       1.395  -0.464  22.635  0.00  0.00    +0.029 A 
ATOM     23  C   UNL     1       2.327   0.321  23.297  0.00  0.00    +0.071 A 
BRANCH  23  24
ATOM      8  N   UNL     1       6.367  -0.915  23.640  0.00  0.00    -0.263 NA
ATOM     24  C   UNL     1       3.703  -0.099  23.413  0.00  0.00    +0.003 A 
ATOM     25  C   UNL     1       4.732   0.787  23.118  0.00  0.00    +0.030 A 
ATOM     26  C   UNL     1       4.004  -1.394  23.821  0.00  0.00    +0.030 A 
ATOM     27  C   UNL     1       6.036   0.335  23.246  0.00  0.00    +0.111 A 
ATOM     28  C   UNL     1       5.340  -1.749  23.918  0.00  0.00    +0.111 A 
ENDBRANCH  23  24
ENDBRANCH  16  18
BRANCH  14   9
ATOM      2  N   UNL     1      -5.099   1.455  25.445  0.00  0.00    -0.284 NA
ATOM      9  C   UNL     1      -4.876   2.371  24.308  0.00  0.00    +0.146 C 
ATOM     10  C   UNL     1      -5.047   3.781  24.902  0.00  0.00    +0.030 C 
ATOM     11  C   UNL     1      -5.425   3.555  26.359  0.00  0.00    +0.017 C 
ATOM     12  C   UNL     1      -5.997   2.152  26.367  0.00  0.00    +0.085 C 
BRANCH   2  13
ATOM     13  C   UNL     1      -5.627   0.158  25.042  0.00  0.00    +0.159 C 
BRANCH  13  15
ATOM      4  N   UNL     1      -3.485  -0.950  25.728  0.00  0.00    -0.347 N 
ATOM      5  N   UNL     1      -4.434  -1.739  23.881  0.00  0.00    -0.239 NA
ATOM     15  C   UNL     1      -4.531  -0.858  24.851  0.00  0.00    +0.121 A 
ATOM     17  C   UNL     1      -2.669  -1.953  25.287  0.00  0.00    +0.104 A 
ATOM     19  C   UNL     1      -3.275  -2.425  24.147  0.00  0.00    +0.130 A 
ATOM     29  H   UNL     1      -3.340  -0.378  26.549  0.00  0.00    +0.167 HD
ENDBRANCH  13  15
ENDBRANCH   2  13
ENDBRANCH  14   9
TORSDOF 5
ENDMDL
MODEL 2
REMARK VINA RESULT:       2.7      1.652      3.036
REMARK  Name = 51136967
REMARK  5 active torsions:
REMARK  status: ('A' for Active; 'I' for Inactive)
REMARK    1  A    between atoms: N_2  and  C_13
REMARK    2  A    between atoms: C_9  and  C_14
REMARK    3  A    between atoms: C_13  and  C_15
REMARK    4  A    between atoms: C_16  and  C_18
REMARK    5  A    between atoms: C_23  and  C_24
REMARK                            x       y       z     vdW  Elec       q    Type
REMARK                         _______ _______ _______ _____ _____    ______ ____
ROOT
ATOM      1  O   UNL     1      -3.599   1.577  23.175  0.00  0.00    -0.336 OA
ATOM      3  N   UNL     1      -2.217   1.161  24.888  0.00  0.00    -0.190 NA
ATOM      6  N   UNL     1      -2.357   1.264  22.607  0.00  0.00    -0.056 NA
ATOM     14  C   UNL     1      -3.429   1.494  24.520  0.00  0.00    +0.245 A 
ATOM     16  C   UNL     1      -1.596   1.032  23.680  0.00  0.00    +0.204 A 
ENDROOT
BRANCH  16  18
ATOM      7  N   UNL     1       2.108   1.261  23.911  0.00  0.00    -0.254 NA
ATOM     18  C   UNL     1      -0.212   0.669  23.580  0.00  0.00    +0.041 A 
ATOM     20  C   UNL     1       0.169  -0.572  23.079  0.00  0.00    +0.015 A 
ATOM     21  C   UNL     1       0.788   1.541  23.979  0.00  0.00    +0.123 A 
ATOM     22  C   UNL     1       1.518  -0.896  22.993  0.00  0.00    +0.029 A 
ATOM     23  C   UNL     1       2.441   0.047  23.419  0.00  0.00    +0.071 A 
BRANCH  23  24
ATOM      8  N   UNL     1       6.601  -0.743  23.248  0.00  0.00    -0.263 NA
ATOM     24  C   UNL     1       3.858  -0.222  23.360  0.00  0.00    +0.003 A 
ATOM     25  C   UNL     1       4.732   0.742  22.869  0.00  0.00    +0.030 A 
ATOM     26  C   UNL     1       4.354  -1.446  23.795  0.00  0.00    +0.030 A 
ATOM     27  C   UNL     1       6.083   0.434  22.835  0.00  0.00    +0.111 A 
ATOM     28  C   UNL     1       5.721  -1.655  23.719  0.00  0.00    +0.111 A 
ENDBRANCH  23  24
ENDBRANCH  16  18
BRANCH  14   9
ATOM      2  N   UNL     1      -5.019   3.218  25.354  0.00  0.00    -0.284 NA
ATOM      9  C   UNL     1      -4.644   1.790  25.374  0.00  0.00    +0.146 C 
ATOM     10  C   UNL     1      -5.904   1.048  24.892  0.00  0.00    +0.030 C 
ATOM     11  C   UNL     1      -6.950   2.134  24.684  0.00  0.00    +0.017 C 
ATOM     12  C   UNL     1      -6.466   3.269  25.564  0.00  0.00    +0.085 C 
BRANCH   2  13
ATOM     13  C   UNL     1      -4.294   4.015  26.334  0.00  0.00    +0.159 C 
BRANCH  13  15
ATOM      4  N   UNL     1      -1.825   3.593  26.422  0.00  0.00    -0.347 N 
ATOM      5  N   UNL     1      -2.485   5.177  25.012  0.00  0.00    -0.239 NA
ATOM     15  C   UNL     1      -2.879   4.289  25.898  0.00  0.00    +0.121 A 
ATOM     17  C   UNL     1      -0.687   4.067  25.833  0.00  0.00    +0.104 A 
ATOM     19  C   UNL     1      -1.120   5.044  24.967  0.00  0.00    +0.130 A 
ATOM     29  H   UNL     1      -1.877   2.862  27.120  0.00  0.00    +0.167 HD
ENDBRANCH  13  15
ENDBRANCH   2  13
ENDBRANCH  14   9
TORSDOF 5
ENDMDL
