MODEL 1
REMARK VINA RESULT:       8.4      0.000      0.000
REMARK  Name = 51136810
REMARK  4 active torsions:
REMARK  status: ('A' for Active; 'I' for Inactive)
REMARK    1  A    between atoms: N_3  and  C_9
REMARK    2  A    between atoms: C_10  and  C_19
REMARK    3  A    between atoms: C_20  and  C_23
REMARK    4  A    between atoms: C_29  and  C_31
REMARK                            x       y       z     vdW  Elec       q    Type
REMARK                         _______ _______ _______ _____ _____    ______ ____
ROOT
ATOM      1  O   UNL     1      -5.760   0.986  25.137  0.00  0.00    -0.336 OA
ATOM      4  N   UNL     1      -3.542   1.214  25.348  0.00  0.00    -0.190 NA
ATOM      5  N   UNL     1      -5.202  -0.222  24.700  0.00  0.00    -0.056 NA
ATOM     19  C   UNL     1      -4.715   1.776  25.500  0.00  0.00    +0.245 A 
ATOM     20  C   UNL     1      -3.891  -0.010  24.855  0.00  0.00    +0.202 A 
ENDROOT
BRANCH  20  23
ATOM      2  O   UNL     1       4.850   1.006  21.980  0.00  0.00    -0.276 OA
ATOM      6  N   UNL     1       0.620  -1.208  23.650  0.00  0.00    -0.312 N 
ATOM      7  N   UNL     1       3.326  -0.323  23.124  0.00  0.00    -0.299 N 
ATOM      8  N   UNL     1      -0.983  -2.926  23.886  0.00  0.00    -0.240 NA
ATOM     21  C   UNL     1       1.760  -2.082  23.943  0.00  0.00    +0.125 C 
ATOM     22  C   UNL     1       0.886   0.085  23.016  0.00  0.00    +0.125 C 
ATOM     23  C   UNL     1      -2.905  -1.000  24.525  0.00  0.00    +0.027 A 
ATOM     24  C   UNL     1       3.020  -1.260  24.208  0.00  0.00    +0.126 C 
ATOM     25  C   UNL     1       2.212   0.054  22.258  0.00  0.00    +0.126 C 
ATOM     26  C   UNL     1      -0.683  -1.609  23.932  0.00  0.00    +0.122 A 
ATOM     27  C   UNL     1      -1.598  -0.616  24.243  0.00  0.00    +0.055 A 
ATOM     28  C   UNL     1      -3.252  -2.345  24.487  0.00  0.00    +0.031 A 
ATOM     29  C   UNL     1       4.591   0.218  22.892  0.00  0.00    +0.213 C 
ATOM     30  C   UNL     1      -2.263  -3.261  24.165  0.00  0.00    +0.113 A 
ATOM     31  C   UNL     1       5.685  -0.216  23.836  0.00  0.00    +0.109 C 
ENDBRANCH  20  23
BRANCH  19  10
ATOM      3  N   UNL     1      -4.479   4.233  25.189  0.00  0.00    -0.288 NA
ATOM     10  C   UNL     1      -5.059   3.156  26.017  0.00  0.00    +0.146 C 
ATOM     13  C   UNL     1      -5.384   5.377  25.307  0.00  0.00    +0.085 C 
ATOM     14  C   UNL     1      -6.574   3.432  26.011  0.00  0.00    +0.030 C 
ATOM     15  C   UNL     1      -6.743   4.714  25.208  0.00  0.00    +0.017 C 
BRANCH   3   9
ATOM      9  C   UNL     1      -3.109   4.574  25.566  0.00  0.00    +0.057 C 
ATOM     11  C   UNL     1      -2.459   5.414  24.462  0.00  0.00    +0.019 C 
ATOM     12  C   UNL     1      -2.308   3.295  25.833  0.00  0.00    +0.019 C 
ATOM     16  C   UNL     1      -0.999   5.725  24.786  0.00  0.00    +0.002 C 
ATOM     17  C   UNL     1      -0.848   3.609  26.155  0.00  0.00    +0.002 C 
ATOM     18  C   UNL     1      -0.200   4.455  25.063  0.00  0.00    +0.000 C 
ENDBRANCH   3   9
ENDBRANCH  19  10
TORSDOF 3
ENDMDL
