MODEL 1
REMARK VINA RESULT:      11.2      0.000      0.000
REMARK  Name = 11885092
REMARK  14 active torsions:
REMARK  status: ('A' for Active; 'I' for Inactive)
REMARK    1  A    between atoms: O_2  and  C_15
REMARK    2  A    between atoms: O_3  and  C_20
REMARK    3  A    between atoms: O_6  and  C_32
REMARK    4  A    between atoms: N_8  and  C_26
REMARK    5  A    between atoms: C_10  and  C_18
REMARK    6  A    between atoms: C_12  and  C_20
REMARK    7  A    between atoms: C_12  and  C_21
REMARK    8  A    between atoms: C_13  and  C_23
REMARK    9  A    between atoms: C_23  and  C_24
REMARK   10  A    between atoms: C_27  and  C_28
REMARK   11  A    between atoms: C_28  and  C_31
REMARK   12  A    between atoms: C_31  and  C_34
REMARK   13  A    between atoms: C_34  and  C_36
REMARK   14  A    between atoms: C_36  and  C_37
REMARK                            x       y       z     vdW  Elec       q    Type
REMARK                         _______ _______ _______ _____ _____    ______ ____
ROOT
ATOM      1  S   UNL     1      -1.035  -0.787  22.945  0.00  0.00    -0.057 S 
ATOM      5  O   UNL     1       3.103   1.249  23.615  0.00  0.00    -0.275 OA
ATOM      7  N   UNL     1       0.159   1.266  23.970  0.00  0.00    -0.229 NA
ATOM      9  N   UNL     1       1.552  -0.368  22.876  0.00  0.00    -0.265 N 
ATOM     10  C   UNL     1      -3.319   2.737  24.750  0.00  0.00    -0.019 C 
ATOM     11  C   UNL     1      -3.971   1.297  24.942  0.00  0.00    +0.011 C 
ATOM     12  C   UNL     1      -5.529   1.243  25.185  0.00  0.00    +0.021 C 
ATOM     13  C   UNL     1      -1.742   2.596  24.962  0.00  0.00    +0.054 C 
ATOM     14  C   UNL     1      -3.873   3.702  25.830  0.00  0.00    +0.010 C 
ATOM     15  C   UNL     1      -5.918   2.301  26.256  0.00  0.00    +0.123 C 
ATOM     16  C   UNL     1      -3.471   0.297  23.861  0.00  0.00    +0.049 C 
ATOM     17  C   UNL     1      -5.391   3.696  25.943  0.00  0.00    +0.032 C 
ATOM     18  C   UNL     1      -3.599   3.342  23.352  0.00  0.00    +0.012 C 
ATOM     19  C   UNL     1      -1.196   1.414  24.202  0.00  0.00    +0.058 A 
ATOM     21  C   UNL     1      -5.906  -0.153  25.755  0.00  0.00    +0.016 C 
ATOM     22  C   UNL     1      -1.987   0.385  23.732  0.00  0.00    +0.015 A 
ATOM     25  C   UNL     1       0.359   0.147  23.309  0.00  0.00    +0.165 A 
ATOM     27  C   UNL     1       2.831   0.197  23.047  0.00  0.00    +0.219 C 
ATOM     41  H   UNL     1       1.483  -1.253  22.380  0.00  0.00    +0.157 HD
ENDROOT
BRANCH  15   2
ATOM      2  O   UNL     1      -7.336   2.368  26.405  0.00  0.00    -0.391 OA
ATOM     38  H   UNL     1      -7.541   2.325  27.353  0.00  0.00    +0.210 HD
ENDBRANCH  15   2
BRANCH  12  20
ATOM     20  C   UNL     1      -6.383   1.414  23.908  0.00  0.00    +0.165 C 
BRANCH  20   3
ATOM      3  O   UNL     1      -7.715   1.640  24.307  0.00  0.00    -0.394 OA
ATOM     39  H   UNL     1      -7.784   2.557  24.624  0.00  0.00    +0.209 HD
ENDBRANCH  20   3
ENDBRANCH  12  20
BRANCH  13  23
ATOM     23  C   UNL     1      -0.942   3.872  24.667  0.00  0.00    +0.106 C 
BRANCH  23  24
ATOM      4  O   UNL     1       0.834   5.133  25.697  0.00  0.00    -0.275 OA
ATOM      8  N   UNL     1       0.176   3.071  26.612  0.00  0.00    -0.285 N 
ATOM     24  C   UNL     1       0.133   4.126  25.705  0.00  0.00    +0.218 C 
ATOM     40  H   UNL     1      -0.471   2.299  26.473  0.00  0.00    +0.155 HD
BRANCH   8  26
ATOM     26  C   UNL     1       1.037   2.926  27.726  0.00  0.00    +0.037 A 
ATOM     29  C   UNL     1       0.502   2.573  28.954  0.00  0.00    +0.068 A 
ATOM     30  C   UNL     1       2.395   3.141  27.566  0.00  0.00    +0.023 A 
ATOM     32  C   UNL     1       1.350   2.430  30.052  0.00  0.00    +0.119 A 
ATOM     33  C   UNL     1       3.243   2.998  28.663  0.00  0.00    +0.005 A 
ATOM     35  C   UNL     1       2.721   2.643  29.907  0.00  0.00    +0.045 A 
BRANCH  32   6
ATOM      6  O   UNL     1       0.840   2.083  31.266  0.00  0.00    -0.507 OA
ATOM     42  H   UNL     1       1.547   1.684  31.802  0.00  0.00    +0.292 HD
ENDBRANCH  32   6
ENDBRANCH   8  26
ENDBRANCH  23  24
ENDBRANCH  13  23
BRANCH  27  28
ATOM     28  C   UNL     1       3.907  -0.682  22.424  0.00  0.00    +0.096 C 
BRANCH  28  31
ATOM     31  C   UNL     1       4.637  -1.540  23.456  0.00  0.00    +0.009 C 
BRANCH  31  34
ATOM     34  C   UNL     1       5.440  -0.677  24.430  0.00  0.00    +0.000 C 
BRANCH  34  36
ATOM     36  C   UNL     1       6.354   0.297  23.686  0.00  0.00    -0.003 C 
ATOM     37  C   UNL     1       7.464  -0.433  22.948  0.00  0.00    +0.004 C 
ENDBRANCH  34  36
ENDBRANCH  31  34
ENDBRANCH  28  31
ENDBRANCH  27  28
TORSDOF 11
ENDMDL
MODEL 2
REMARK VINA RESULT:      13.8      3.084      4.521
REMARK  Name = 11885092
REMARK  14 active torsions:
REMARK  status: ('A' for Active; 'I' for Inactive)
REMARK    1  A    between atoms: O_2  and  C_15
REMARK    2  A    between atoms: O_3  and  C_20
REMARK    3  A    between atoms: O_6  and  C_32
REMARK    4  A    between atoms: N_8  and  C_26
REMARK    5  A    between atoms: C_10  and  C_18
REMARK    6  A    between atoms: C_12  and  C_20
REMARK    7  A    between atoms: C_12  and  C_21
REMARK    8  A    between atoms: C_13  and  C_23
REMARK    9  A    between atoms: C_23  and  C_24
REMARK   10  A    between atoms: C_27  and  C_28
REMARK   11  A    between atoms: C_28  and  C_31
REMARK   12  A    between atoms: C_31  and  C_34
REMARK   13  A    between atoms: C_34  and  C_36
REMARK   14  A    between atoms: C_36  and  C_37
REMARK                            x       y       z     vdW  Elec       q    Type
REMARK                         _______ _______ _______ _____ _____    ______ ____
ROOT
ATOM      1  S   UNL     1       0.528   2.090  25.236  0.00  0.00    -0.057 S 
ATOM      5  O   UNL     1       1.525   0.061  21.161  0.00  0.00    -0.275 OA
ATOM      7  N   UNL     1      -0.445   1.368  22.951  0.00  0.00    -0.229 NA
ATOM      9  N   UNL     1       1.887   0.899  23.336  0.00  0.00    -0.265 N 
ATOM     10  C   UNL     1      -3.922   2.420  24.244  0.00  0.00    -0.019 C 
ATOM     11  C   UNL     1      -3.316   3.564  25.174  0.00  0.00    +0.011 C 
ATOM     12  C   UNL     1      -4.324   4.330  26.114  0.00  0.00    +0.021 C 
ATOM     13  C   UNL     1      -2.855   2.100  23.100  0.00  0.00    +0.054 C 
ATOM     14  C   UNL     1      -5.221   2.937  23.573  0.00  0.00    +0.010 C 
ATOM     15  C   UNL     1      -5.584   4.732  25.296  0.00  0.00    +0.123 C 
ATOM     16  C   UNL     1      -2.025   3.084  25.897  0.00  0.00    +0.049 C 
ATOM     17  C   UNL     1      -6.210   3.565  24.544  0.00  0.00    +0.032 C 
ATOM     18  C   UNL     1      -4.247   1.122  25.024  0.00  0.00    +0.012 C 
ATOM     19  C   UNL     1      -1.470   1.948  23.675  0.00  0.00    +0.058 A 
ATOM     21  C   UNL     1      -3.656   5.644  26.610  0.00  0.00    +0.016 C 
ATOM     22  C   UNL     1      -1.115   2.412  24.925  0.00  0.00    +0.015 A 
ATOM     25  C   UNL     1       0.651   1.382  23.677  0.00  0.00    +0.165 A 
ATOM     27  C   UNL     1       2.250   0.278  22.125  0.00  0.00    +0.219 C 
ATOM     41  H   UNL     1       2.603   1.011  24.050  0.00  0.00    +0.157 HD
ENDROOT
BRANCH  15   2
ATOM      2  O   UNL     1      -6.572   5.314  26.147  0.00  0.00    -0.391 OA
ATOM     38  H   UNL     1      -6.465   4.934  27.034  0.00  0.00    +0.210 HD
ENDBRANCH  15   2
BRANCH  12  20
ATOM     20  C   UNL     1      -4.722   3.558  27.393  0.00  0.00    +0.165 C 
BRANCH  20   3
ATOM      3  O   UNL     1      -5.848   2.769  27.087  0.00  0.00    -0.394 OA
ATOM     39  H   UNL     1      -5.984   2.141  27.817  0.00  0.00    +0.209 HD
ENDBRANCH  20   3
ENDBRANCH  12  20
BRANCH  13  23
ATOM     23  C   UNL     1      -3.223   0.913  22.199  0.00  0.00    +0.106 C 
BRANCH  23  24
ATOM      4  O   UNL     1      -4.146  -1.188  22.935  0.00  0.00    -0.275 OA
ATOM      8  N   UNL     1      -1.992  -0.549  23.621  0.00  0.00    -0.285 N 
ATOM     24  C   UNL     1      -3.203  -0.403  22.951  0.00  0.00    +0.218 C 
ATOM     40  H   UNL     1      -1.311   0.203  23.541  0.00  0.00    +0.155 HD
BRANCH   8  26
ATOM     26  C   UNL     1      -1.580  -1.633  24.432  0.00  0.00    +0.037 A 
ATOM     29  C   UNL     1      -0.240  -1.765  24.756  0.00  0.00    +0.068 A 
ATOM     30  C   UNL     1      -2.525  -2.538  24.884  0.00  0.00    +0.023 A 
ATOM     32  C   UNL     1       0.166  -2.834  25.556  0.00  0.00    +0.119 A 
ATOM     33  C   UNL     1      -2.119  -3.606  25.684  0.00  0.00    +0.005 A 
ATOM     35  C   UNL     1      -0.773  -3.755  26.019  0.00  0.00    +0.045 A 
BRANCH  32   6
ATOM      6  O   UNL     1       1.480  -2.979  25.884  0.00  0.00    -0.507 OA
ATOM     42  H   UNL     1       1.816  -2.130  26.221  0.00  0.00    +0.292 HD
ENDBRANCH  32   6
ENDBRANCH   8  26
ENDBRANCH  23  24
ENDBRANCH  13  23
BRANCH  27  28
ATOM     28  C   UNL     1       3.721  -0.117  22.130  0.00  0.00    +0.096 C 
BRANCH  28  31
ATOM     31  C   UNL     1       4.586   0.843  22.945  0.00  0.00    +0.009 C 
BRANCH  31  34
ATOM     34  C   UNL     1       5.881   0.173  23.404  0.00  0.00    +0.000 C 
BRANCH  34  36
ATOM     36  C   UNL     1       5.609  -0.902  24.455  0.00  0.00    -0.003 C 
ATOM     37  C   UNL     1       4.534  -1.874  23.993  0.00  0.00    +0.004 C 
ENDBRANCH  34  36
ENDBRANCH  31  34
ENDBRANCH  28  31
ENDBRANCH  27  28
TORSDOF 11
ENDMDL
MODEL 3
REMARK VINA RESULT:      14.8      3.079      4.513
REMARK  Name = 11885092
REMARK  14 active torsions:
REMARK  status: ('A' for Active; 'I' for Inactive)
REMARK    1  A    between atoms: O_2  and  C_15
REMARK    2  A    between atoms: O_3  and  C_20
REMARK    3  A    between atoms: O_6  and  C_32
REMARK    4  A    between atoms: N_8  and  C_26
REMARK    5  A    between atoms: C_10  and  C_18
REMARK    6  A    between atoms: C_12  and  C_20
REMARK    7  A    between atoms: C_12  and  C_21
REMARK    8  A    between atoms: C_13  and  C_23
REMARK    9  A    between atoms: C_23  and  C_24
REMARK   10  A    between atoms: C_27  and  C_28
REMARK   11  A    between atoms: C_28  and  C_31
REMARK   12  A    between atoms: C_31  and  C_34
REMARK   13  A    between atoms: C_34  and  C_36
REMARK   14  A    between atoms: C_36  and  C_37
REMARK                            x       y       z     vdW  Elec       q    Type
REMARK                         _______ _______ _______ _____ _____    ______ ____
ROOT
ATOM      1  S   UNL     1       0.610   2.138  25.411  0.00  0.00    -0.057 S 
ATOM      5  O   UNL     1       1.806   0.244  21.324  0.00  0.00    -0.275 OA
ATOM      7  N   UNL     1      -0.249   1.499  23.056  0.00  0.00    -0.229 NA
ATOM      9  N   UNL     1       2.060   1.006  23.543  0.00  0.00    -0.265 N 
ATOM     10  C   UNL     1      -3.783   2.522  24.209  0.00  0.00    -0.019 C 
ATOM     11  C   UNL     1      -3.222   3.630  25.206  0.00  0.00    +0.011 C 
ATOM     12  C   UNL     1      -4.273   4.369  26.120  0.00  0.00    +0.021 C 
ATOM     13  C   UNL     1      -2.661   2.236  23.109  0.00  0.00    +0.054 C 
ATOM     14  C   UNL     1      -5.045   3.067  23.491  0.00  0.00    +0.010 C 
ATOM     15  C   UNL     1      -5.489   4.804  25.254  0.00  0.00    +0.123 C 
ATOM     16  C   UNL     1      -1.970   3.120  25.977  0.00  0.00    +0.049 C 
ATOM     17  C   UNL     1      -6.080   3.666  24.432  0.00  0.00    +0.032 C 
ATOM     18  C   UNL     1      -4.151   1.200  24.926  0.00  0.00    +0.012 C 
ATOM     19  C   UNL     1      -1.307   2.058  23.748  0.00  0.00    +0.058 A 
ATOM     21  C   UNL     1      -3.628   5.662  26.694  0.00  0.00    +0.016 C 
ATOM     22  C   UNL     1      -1.014   2.477  25.029  0.00  0.00    +0.015 A 
ATOM     25  C   UNL     1       0.810   1.482  23.837  0.00  0.00    +0.165 A 
ATOM     27  C   UNL     1       2.482   0.425  22.331  0.00  0.00    +0.219 C 
ATOM     41  H   UNL     1       2.739   1.090  24.295  0.00  0.00    +0.157 HD
ENDROOT
BRANCH  15   2
ATOM      2  O   UNL     1      -6.517   5.361  26.074  0.00  0.00    -0.391 OA
ATOM     38  H   UNL     1      -7.321   4.831  25.950  0.00  0.00    +0.210 HD
ENDBRANCH  15   2
BRANCH  12  20
ATOM     20  C   UNL     1      -4.737   3.556  27.350  0.00  0.00    +0.165 C 
BRANCH  20   3
ATOM      3  O   UNL     1      -5.843   2.775  26.959  0.00  0.00    -0.394 OA
ATOM     39  H   UNL     1      -5.989   2.914  26.007  0.00  0.00    +0.209 HD
ENDBRANCH  20   3
ENDBRANCH  12  20
BRANCH  13  23
ATOM     23  C   UNL     1      -2.986   1.082  22.151  0.00  0.00    +0.106 C 
BRANCH  23  24
ATOM      4  O   UNL     1      -3.997  -1.026  22.736  0.00  0.00    -0.275 OA
ATOM      8  N   UNL     1      -1.914  -0.430  23.647  0.00  0.00    -0.285 N 
ATOM     24  C   UNL     1      -3.052  -0.253  22.865  0.00  0.00    +0.218 C 
ATOM     40  H   UNL     1      -1.222   0.315  23.654  0.00  0.00    +0.155 HD
BRANCH   8  26
ATOM     26  C   UNL     1      -1.594  -1.540  24.465  0.00  0.00    +0.037 A 
ATOM     29  C   UNL     1      -2.616  -2.324  24.974  0.00  0.00    +0.068 A 
ATOM     30  C   UNL     1      -0.266  -1.818  24.739  0.00  0.00    +0.023 A 
ATOM     32  C   UNL     1      -2.300  -3.419  25.780  0.00  0.00    +0.119 A 
ATOM     33  C   UNL     1       0.050  -2.912  25.545  0.00  0.00    +0.005 A 
ATOM     35  C   UNL     1      -0.967  -3.712  26.065  0.00  0.00    +0.045 A 
BRANCH  32   6
ATOM      6  O   UNL     1      -3.293  -4.199  26.287  0.00  0.00    -0.507 OA
ATOM     42  H   UNL     1      -3.865  -4.496  25.558  0.00  0.00    +0.292 HD
ENDBRANCH  32   6
ENDBRANCH   8  26
ENDBRANCH  23  24
ENDBRANCH  13  23
BRANCH  27  28
ATOM     28  C   UNL     1       3.949   0.023  22.396  0.00  0.00    +0.096 C 
BRANCH  28  31
ATOM     31  C   UNL     1       4.803   1.034  23.161  0.00  0.00    +0.009 C 
BRANCH  31  34
ATOM     34  C   UNL     1       5.546   0.370  24.320  0.00  0.00    +0.000 C 
BRANCH  34  36
ATOM     36  C   UNL     1       5.868  -1.092  24.011  0.00  0.00    -0.003 C 
ATOM     37  C   UNL     1       4.619  -1.957  24.045  0.00  0.00    +0.004 C 
ENDBRANCH  34  36
ENDBRANCH  31  34
ENDBRANCH  28  31
ENDBRANCH  27  28
TORSDOF 11
ENDMDL
MODEL 4
REMARK VINA RESULT:      15.1      1.635      2.155
REMARK  Name = 11885092
REMARK  14 active torsions:
REMARK  status: ('A' for Active; 'I' for Inactive)
REMARK    1  A    between atoms: O_2  and  C_15
REMARK    2  A    between atoms: O_3  and  C_20
REMARK    3  A    between atoms: O_6  and  C_32
REMARK    4  A    between atoms: N_8  and  C_26
REMARK    5  A    between atoms: C_10  and  C_18
REMARK    6  A    between atoms: C_12  and  C_20
REMARK    7  A    between atoms: C_12  and  C_21
REMARK    8  A    between atoms: C_13  and  C_23
REMARK    9  A    between atoms: C_23  and  C_24
REMARK   10  A    between atoms: C_27  and  C_28
REMARK   11  A    between atoms: C_28  and  C_31
REMARK   12  A    between atoms: C_31  and  C_34
REMARK   13  A    between atoms: C_34  and  C_36
REMARK   14  A    between atoms: C_36  and  C_37
REMARK                            x       y       z     vdW  Elec       q    Type
REMARK                         _______ _______ _______ _____ _____    ______ ____
ROOT
ATOM      1  S   UNL     1       1.091  -1.553  22.617  0.00  0.00    -0.057 S 
ATOM      5  O   UNL     1       4.402   1.609  23.488  0.00  0.00    -0.275 OA
ATOM      7  N   UNL     1       1.569   0.754  23.686  0.00  0.00    -0.229 NA
ATOM      9  N   UNL     1       3.439  -0.389  22.683  0.00  0.00    -0.265 N 
ATOM     10  C   UNL     1      -2.225   1.127  24.265  0.00  0.00    -0.019 C 
ATOM     11  C   UNL     1      -2.432  -0.443  24.436  0.00  0.00    +0.011 C 
ATOM     12  C   UNL     1      -3.915  -0.956  24.595  0.00  0.00    +0.021 C 
ATOM     13  C   UNL     1      -0.690   1.456  24.562  0.00  0.00    +0.054 C 
ATOM     14  C   UNL     1      -3.097   1.878  25.304  0.00  0.00    +0.010 C 
ATOM     15  C   UNL     1      -4.656  -0.067  25.634  0.00  0.00    +0.123 C 
ATOM     16  C   UNL     1      -1.601  -1.244  23.393  0.00  0.00    +0.049 C 
ATOM     17  C   UNL     1      -4.549   1.423  25.336  0.00  0.00    +0.032 C 
ATOM     18  C   UNL     1      -2.595   1.631  22.848  0.00  0.00    +0.012 C 
ATOM     19  C   UNL     1       0.220   0.493  23.843  0.00  0.00    +0.058 A 
ATOM     21  C   UNL     1      -3.894  -2.405  25.158  0.00  0.00    +0.016 C 
ATOM     22  C   UNL     1      -0.205  -0.720  23.342  0.00  0.00    +0.015 A 
ATOM     25  C   UNL     1       2.126  -0.252  23.047  0.00  0.00    +0.165 A 
ATOM     27  C   UNL     1       4.483   0.527  22.917  0.00  0.00    +0.219 C 
ATOM     41  H   UNL     1       3.661  -1.252  22.193  0.00  0.00    +0.157 HD
ENDROOT
BRANCH  15   2
ATOM      2  O   UNL     1      -6.037  -0.423  25.707  0.00  0.00    -0.391 OA
ATOM     38  H   UNL     1      -6.125  -1.159  26.334  0.00  0.00    +0.210 HD
ENDBRANCH  15   2
BRANCH  12  20
ATOM     20  C   UNL     1      -4.711  -1.036  23.273  0.00  0.00    +0.165 C 
BRANCH  20   3
ATOM      3  O   UNL     1      -4.716  -2.382  22.854  0.00  0.00    -0.394 OA
ATOM     39  H   UNL     1      -4.708  -2.945  23.646  0.00  0.00    +0.209 HD
ENDBRANCH  20   3
ENDBRANCH  12  20
BRANCH  13  23
ATOM     23  C   UNL     1      -0.288   2.914  24.298  0.00  0.00    +0.106 C 
BRANCH  23  24
ATOM      4  O   UNL     1       0.433   4.788  25.630  0.00  0.00    -0.275 OA
ATOM      8  N   UNL     1       0.693   2.600  26.446  0.00  0.00    -0.285 N 
ATOM     24  C   UNL     1       0.316   3.571  25.523  0.00  0.00    +0.218 C 
ATOM     40  H   UNL     1       0.537   1.625  26.200  0.00  0.00    +0.155 HD
BRANCH   8  26
ATOM     26  C   UNL     1       1.292   2.800  27.713  0.00  0.00    +0.037 A 
ATOM     29  C   UNL     1       0.588   2.461  28.856  0.00  0.00    +0.068 A 
ATOM     30  C   UNL     1       2.569   3.330  27.782  0.00  0.00    +0.023 A 
ATOM     32  C   UNL     1       1.178   2.658  30.105  0.00  0.00    +0.119 A 
ATOM     33  C   UNL     1       3.159   3.527  29.030  0.00  0.00    +0.005 A 
ATOM     35  C   UNL     1       2.464   3.191  30.191  0.00  0.00    +0.045 A 
BRANCH  32   6
ATOM      6  O   UNL     1       0.500   2.329  31.238  0.00  0.00    -0.507 OA
ATOM     42  H   UNL     1       1.063   1.760  31.789  0.00  0.00    +0.292 HD
ENDBRANCH  32   6
ENDBRANCH   8  26
ENDBRANCH  23  24
ENDBRANCH  13  23
BRANCH  27  28
ATOM     28  C   UNL     1       5.803   0.010  22.361  0.00  0.00    +0.096 C 
BRANCH  28  31
ATOM     31  C   UNL     1       6.804  -0.349  23.457  0.00  0.00    +0.009 C 
BRANCH  31  34
ATOM     34  C   UNL     1       8.125  -0.840  22.866  0.00  0.00    +0.000 C 
BRANCH  34  36
ATOM     36  C   UNL     1       9.218   0.222  22.989  0.00  0.00    -0.003 C 
ATOM     37  C   UNL     1       9.892   0.173  24.351  0.00  0.00    +0.004 C 
ENDBRANCH  34  36
ENDBRANCH  31  34
ENDBRANCH  28  31
ENDBRANCH  27  28
TORSDOF 11
ENDMDL
