MODEL 1
REMARK VINA RESULT:      -4.1      0.000      0.000
REMARK  Name = 75537017
REMARK  3 active torsions:
REMARK  status: ('A' for Active; 'I' for Inactive)
REMARK    1  A    between atoms: S_1  and  N_7
REMARK    2  A    between atoms: S_1  and  C_20
REMARK    3  A    between atoms: N_5  and  C_9
REMARK                            x       y       z     vdW  Elec       q    Type
REMARK                         _______ _______ _______ _____ _____    ______ ____
ROOT
ATOM      2  O   UNL     1      -5.230 -10.056  15.760  0.00  0.00    -0.252 OA
ATOM      5  N   UNL     1      -7.355 -10.327  14.774  0.00  0.00    -0.281 N 
ATOM      6  N   UNL     1      -5.533 -10.458  13.465  0.00  0.00    -0.278 N 
ATOM      7  N   UNL     1      -5.171 -10.157  10.709  0.00  0.00    -0.173 NA
ATOM      8  C   UNL     1      -6.639 -10.781  12.583  0.00  0.00    +0.111 C 
ATOM     10  C   UNL     1      -7.876 -10.485  13.427  0.00  0.00    +0.133 C 
ATOM     11  C   UNL     1      -6.542  -9.976  11.292  0.00  0.00    +0.133 C 
ATOM     14  C   UNL     1      -5.948 -10.259  14.789  0.00  0.00    +0.305 C 
ATOM     15  C   UNL     1      -4.177 -10.481  12.952  0.00  0.00    +0.127 C 
ATOM     16  C   UNL     1      -4.098  -9.691  11.650  0.00  0.00    +0.128 C 
ENDROOT
BRANCH   5   9
ATOM      9  C   UNL     1      -8.221 -10.134  15.910  0.00  0.00    +0.078 C 
ATOM     12  C   UNL     1      -8.225  -8.667  16.347  0.00  0.00    +0.022 C 
ATOM     13  C   UNL     1      -9.637 -10.625  15.596  0.00  0.00    +0.022 C 
ATOM     17  C   UNL     1      -9.178  -8.430  17.515  0.00  0.00    +0.002 C 
ATOM     18  C   UNL     1     -10.588 -10.384  16.765  0.00  0.00    +0.002 C 
ATOM     19  C   UNL     1     -10.588  -8.922  17.200  0.00  0.00    +0.000 C 
ENDBRANCH   5   9
BRANCH   7   1
ATOM      1  S   UNL     1      -4.994  -9.636   9.086  0.00  0.00    +0.061 S 
ATOM      3  O   UNL     1      -4.697 -10.781   8.254  0.00  0.00    -0.153 OA
ATOM      4  O   UNL     1      -4.156  -8.457   9.060  0.00  0.00    -0.153 OA
BRANCH   1  20
ATOM     20  C   UNL     1      -6.651  -9.134   8.743  0.00  0.00    +0.105 A 
ATOM     21  C   UNL     1      -7.635 -10.094   8.503  0.00  0.00    +0.028 A 
ATOM     22  C   UNL     1      -6.977  -7.778   8.711  0.00  0.00    +0.028 A 
ATOM     23  C   UNL     1      -8.943  -9.698   8.229  0.00  0.00    +0.002 A 
ATOM     24  C   UNL     1      -8.286  -7.382   8.436  0.00  0.00    +0.002 A 
ATOM     25  C   UNL     1      -9.270  -8.342   8.196  0.00  0.00    +0.000 A 
ENDBRANCH   1  20
ENDBRANCH   7   1
TORSDOF 3
ENDMDL
