MODEL 1
REMARK VINA RESULT:       0.5      0.000      0.000
REMARK  Name = 45361513
REMARK  12 active torsions:
REMARK  status: ('A' for Active; 'I' for Inactive)
REMARK    1  A    between atoms: O_1  and  C_11
REMARK    2  A    between atoms: N_5  and  C_15
REMARK    3  A    between atoms: N_6  and  C_25
REMARK    4  A    between atoms: N_7  and  C_27
REMARK    5  A    between atoms: C_8  and  C_18
REMARK    6  A    between atoms: C_10  and  C_20
REMARK    7  A    between atoms: C_14  and  C_19
REMARK    8  A    between atoms: C_19  and  C_21
REMARK    9  A    between atoms: C_19  and  C_22
REMARK   10  A    between atoms: C_23  and  C_24
REMARK   11  A    between atoms: C_24  and  C_26
REMARK   12  A    between atoms: C_25  and  C_27
REMARK                            x       y       z     vdW  Elec       q    Type
REMARK                         _______ _______ _______ _____ _____    ______ ____
ROOT
ATOM      8  C   UNL     1      -2.294  -0.987  25.355  0.00  0.00    -0.027 C 
ATOM      9  C   UNL     1      -2.510  -0.006  24.154  0.00  0.00    +0.028 C 
ATOM     10  C   UNL     1      -1.150   0.642  23.709  0.00  0.00    +0.012 C 
ATOM     11  C   UNL     1      -3.663   0.998  24.448  0.00  0.00    +0.122 C 
ATOM     12  C   UNL     1      -3.629  -1.690  25.694  0.00  0.00    +0.007 C 
ATOM     13  C   UNL     1      -1.281  -2.077  24.936  0.00  0.00    +0.009 C 
ATOM     14  C   UNL     1      -4.967   0.293  24.889  0.00  0.00    +0.029 C 
ATOM     15  C   UNL     1      -0.115  -0.466  23.363  0.00  0.00    +0.076 C 
ATOM     16  C   UNL     1      -4.749  -0.711  26.020  0.00  0.00    +0.007 C 
ATOM     17  C   UNL     1       0.051  -1.509  24.468  0.00  0.00    +0.023 C 
ATOM     18  C   UNL     1      -1.773  -0.266  26.625  0.00  0.00    +0.011 C 
ATOM     20  C   UNL     1      -1.286   1.598  22.512  0.00  0.00    +0.010 C 
ENDROOT
BRANCH  15   5
ATOM      3  O   UNL     1       1.306  -0.664  20.869  0.00  0.00    -0.275 OA
ATOM      5  N   UNL     1       1.186   0.092  23.059  0.00  0.00    -0.312 N 
ATOM     23  C   UNL     1       1.789  -0.058  21.821  0.00  0.00    +0.218 C 
ATOM     37  H   UNL     1       1.688   0.554  23.812  0.00  0.00    +0.149 HD
BRANCH  23  24
ATOM     24  C   UNL     1       3.140   0.629  21.778  0.00  0.00    +0.130 C 
BRANCH  24  26
ATOM     26  C   UNL     1       4.110   0.104  22.803  0.00  0.00    -0.039 A 
ATOM     28  C   UNL     1       5.071   0.953  23.352  0.00  0.00    +0.004 A 
ATOM     29  C   UNL     1       4.046  -1.230  23.205  0.00  0.00    +0.004 A 
ATOM     32  C   UNL     1       5.970   0.467  24.303  0.00  0.00    +0.000 A 
ATOM     33  C   UNL     1       4.944  -1.716  24.157  0.00  0.00    +0.000 A 
ATOM     36  C   UNL     1       5.906  -0.866  24.705  0.00  0.00    +0.000 A 
ENDBRANCH  24  26
ENDBRANCH  23  24
ENDBRANCH  15   5
BRANCH  11   1
ATOM      1  O   UNL     1      -3.975   1.728  23.260  0.00  0.00    -0.391 OA
ATOM     38  H   UNL     1      -3.329   2.448  23.171  0.00  0.00    +0.210 HD
ENDBRANCH  11   1
BRANCH  14  19
ATOM     19  C   UNL     1      -6.049   1.300  25.299  0.00  0.00    +0.077 C 
ATOM     21  C   UNL     1      -6.917   1.655  24.097  0.00  0.00    +0.017 C 
BRANCH  19  22
ATOM      2  O   UNL     1      -5.393   2.764  27.113  0.00  0.00    -0.276 OA
ATOM      6  N   UNL     1      -4.838   3.369  24.943  0.00  0.00    -0.314 N 
ATOM     22  C   UNL     1      -5.402   2.541  25.904  0.00  0.00    +0.216 C 
ATOM     39  H   UNL     1      -4.909   3.116  23.962  0.00  0.00    +0.149 HD
BRANCH   6  25
ATOM     25  C   UNL     1      -4.169   4.606  25.273  0.00  0.00    +0.119 C 
BRANCH  25  27
ATOM     27  C   UNL     1      -3.293   4.445  26.506  0.00  0.00    +0.103 C 
BRANCH  27   7
ATOM      4  O   UNL     1       0.237   3.454  24.461  0.00  0.00    -0.377 OA
ATOM      7  N   UNL     1      -1.884   4.376  26.122  0.00  0.00    -0.297 NA
ATOM     30  C   UNL     1      -1.387   2.996  26.206  0.00  0.00    +0.112 C 
ATOM     31  C   UNL     1      -1.689   4.900  24.762  0.00  0.00    +0.112 C 
ATOM     34  C   UNL     1       0.080   2.948  25.788  0.00  0.00    +0.175 C 
ATOM     35  C   UNL     1      -0.215   4.807  24.377  0.00  0.00    +0.175 C 
ENDBRANCH  27   7
ENDBRANCH  25  27
ENDBRANCH   6  25
ENDBRANCH  19  22
ENDBRANCH  14  19
TORSDOF 9
ENDMDL
