MODEL 1
REMARK VINA RESULT:      -4.9      0.000      0.000
REMARK  Name = 26744182
REMARK  7 active torsions:
REMARK  status: ('A' for Active; 'I' for Inactive)
REMARK    1  A    between atoms: O_1  and  C_14
REMARK    2  A    between atoms: O_3  and  C_22
REMARK    3  A    between atoms: O_3  and  C_23
REMARK    4  A    between atoms: N_4  and  C_10
REMARK    5  A    between atoms: C_7  and  C_10
REMARK    6  A    between atoms: C_11  and  C_15
REMARK    7  A    between atoms: C_16  and  C_17
REMARK                            x       y       z     vdW  Elec       q    Type
REMARK                         _______ _______ _______ _____ _____    ______ ____
ROOT
ATOM      2  O   UNL     1      -2.267 -10.781  14.883  0.00  0.00    -0.336 OA
ATOM      5  N   UNL     1      -4.474 -10.711  14.506  0.00  0.00    -0.190 NA
ATOM      6  N   UNL     1      -2.878 -10.776  16.143  0.00  0.00    -0.056 NA
ATOM     15  C   UNL     1      -3.278 -10.741  13.975  0.00  0.00    +0.245 A 
ATOM     16  C   UNL     1      -4.178 -10.734  15.838  0.00  0.00    +0.202 A 
ENDROOT
BRANCH  16  17
ATOM     17  C   UNL     1      -5.206 -10.712  16.839  0.00  0.00    +0.023 A 
ATOM     18  C   UNL     1      -6.545 -10.621  16.462  0.00  0.00    +0.015 A 
ATOM     19  C   UNL     1      -4.864 -10.781  18.190  0.00  0.00    +0.015 A 
ATOM     20  C   UNL     1      -7.543 -10.599  17.435  0.00  0.00    +0.046 A 
ATOM     21  C   UNL     1      -5.862 -10.759  19.163  0.00  0.00    +0.046 A 
ATOM     22  C   UNL     1      -7.203 -10.667  18.786  0.00  0.00    +0.120 A 
BRANCH  22   3
ATOM      3  O   UNL     1      -8.176 -10.646  19.737  0.00  0.00    -0.495 OA
ATOM     23  C   UNL     1      -9.526 -10.746  19.286  0.00  0.00    +0.277 C 
ENDBRANCH  22   3
ENDBRANCH  16  17
BRANCH  15  11
ATOM      4  N   UNL     1      -3.785  -9.935  11.676  0.00  0.00    -0.289 NA
ATOM     11  C   UNL     1      -2.875 -10.739  12.516  0.00  0.00    +0.148 C 
ATOM     12  C   UNL     1      -2.984  -9.428  10.563  0.00  0.00    +0.116 C 
ATOM     13  C   UNL     1      -1.482 -10.126  12.283  0.00  0.00    +0.061 C 
ATOM     14  C   UNL     1      -1.704  -9.015  11.265  0.00  0.00    +0.130 C 
BRANCH  14   1
ATOM      1  O   UNL     1      -0.615  -8.935  10.365  0.00  0.00    -0.390 OA
ATOM     24  H   UNL     1      -0.040  -8.211  10.666  0.00  0.00    +0.210 HD
ENDBRANCH  14   1
BRANCH   4  10
ATOM     10  C   UNL     1      -4.951 -10.679  11.216  0.00  0.00    +0.088 C 
BRANCH  10   7
ATOM      7  C   UNL     1      -6.022  -9.761  10.723  0.00  0.00    +0.003 C 
ATOM      8  C   UNL     1      -6.858  -9.008  11.715  0.00  0.00    +0.005 C 
ATOM      9  C   UNL     1      -7.461 -10.135  10.929  0.00  0.00    +0.005 C 
ENDBRANCH  10   7
ENDBRANCH   4  10
ENDBRANCH  15  11
TORSDOF 6
ENDMDL
MODEL 2
REMARK VINA RESULT:      -4.1      1.503      2.100
REMARK  Name = 26744182
REMARK  7 active torsions:
REMARK  status: ('A' for Active; 'I' for Inactive)
REMARK    1  A    between atoms: O_1  and  C_14
REMARK    2  A    between atoms: O_3  and  C_22
REMARK    3  A    between atoms: O_3  and  C_23
REMARK    4  A    between atoms: N_4  and  C_10
REMARK    5  A    between atoms: C_7  and  C_10
REMARK    6  A    between atoms: C_11  and  C_15
REMARK    7  A    between atoms: C_16  and  C_17
REMARK                            x       y       z     vdW  Elec       q    Type
REMARK                         _______ _______ _______ _____ _____    ______ ____
ROOT
ATOM      2  O   UNL     1      -3.513 -10.779  15.160  0.00  0.00    -0.336 OA
ATOM      5  N   UNL     1      -5.471 -10.393  14.143  0.00  0.00    -0.190 NA
ATOM      6  N   UNL     1      -4.456 -10.606  16.181  0.00  0.00    -0.056 NA
ATOM     15  C   UNL     1      -4.193 -10.636  13.992  0.00  0.00    +0.245 A 
ATOM     16  C   UNL     1      -5.584 -10.383  15.502  0.00  0.00    +0.202 A 
ENDROOT
BRANCH  16  17
ATOM     17  C   UNL     1      -6.842 -10.146  16.152  0.00  0.00    +0.023 A 
ATOM     18  C   UNL     1      -6.885  -9.926  17.527  0.00  0.00    +0.015 A 
ATOM     19  C   UNL     1      -8.020 -10.138  15.405  0.00  0.00    +0.015 A 
ATOM     20  C   UNL     1      -8.108  -9.698  18.159  0.00  0.00    +0.046 A 
ATOM     21  C   UNL     1      -9.243  -9.910  16.036  0.00  0.00    +0.046 A 
ATOM     22  C   UNL     1      -9.287  -9.690  17.413  0.00  0.00    +0.120 A 
BRANCH  22   3
ATOM      3  O   UNL     1     -10.481  -9.468  18.028  0.00  0.00    -0.495 OA
ATOM     23  C   UNL     1     -10.665 -10.048  19.318  0.00  0.00    +0.277 C 
ENDBRANCH  22   3
ENDBRANCH  16  17
BRANCH  15  11
ATOM      4  N   UNL     1      -3.864  -9.893  11.640  0.00  0.00    -0.289 NA
ATOM     11  C   UNL     1      -3.387 -10.781  12.719  0.00  0.00    +0.148 C 
ATOM     12  C   UNL     1      -2.700  -9.582  10.812  0.00  0.00    +0.116 C 
ATOM     13  C   UNL     1      -1.905 -10.409  12.907  0.00  0.00    +0.061 C 
ATOM     14  C   UNL     1      -1.630  -9.336  11.860  0.00  0.00    +0.130 C 
BRANCH  14   1
ATOM      1  O   UNL     1      -0.329  -9.479  11.325  0.00  0.00    -0.390 OA
ATOM     24  H   UNL     1       0.009 -10.346  11.606  0.00  0.00    +0.210 HD
ENDBRANCH  14   1
BRANCH   4  10
ATOM     10  C   UNL     1      -4.952 -10.469  10.860  0.00  0.00    +0.088 C 
BRANCH  10   7
ATOM      7  C   UNL     1      -5.153  -9.729   9.578  0.00  0.00    +0.003 C 
ATOM      8  C   UNL     1      -6.410  -9.955   8.789  0.00  0.00    +0.005 C 
ATOM      9  C   UNL     1      -5.101 -10.483   8.280  0.00  0.00    +0.005 C 
ENDBRANCH  10   7
ENDBRANCH   4  10
ENDBRANCH  15  11
TORSDOF 6
ENDMDL
MODEL 3
REMARK VINA RESULT:      -4.1     14.325     16.896
REMARK  Name = 26744182
REMARK  7 active torsions:
REMARK  status: ('A' for Active; 'I' for Inactive)
REMARK    1  A    between atoms: O_1  and  C_14
REMARK    2  A    between atoms: O_3  and  C_22
REMARK    3  A    between atoms: O_3  and  C_23
REMARK    4  A    between atoms: N_4  and  C_10
REMARK    5  A    between atoms: C_7  and  C_10
REMARK    6  A    between atoms: C_11  and  C_15
REMARK    7  A    between atoms: C_16  and  C_17
REMARK                            x       y       z     vdW  Elec       q    Type
REMARK                         _______ _______ _______ _____ _____    ______ ____
ROOT
ATOM      2  O   UNL     1      -1.666   2.660  25.429  0.00  0.00    -0.336 OA
ATOM      5  N   UNL     1      -1.391   1.442  23.569  0.00  0.00    -0.190 NA
ATOM      6  N   UNL     1      -0.289   2.430  25.313  0.00  0.00    -0.056 NA
ATOM     15  C   UNL     1      -2.241   2.044  24.362  0.00  0.00    +0.245 A 
ATOM     16  C   UNL     1      -0.207   1.706  24.194  0.00  0.00    +0.202 A 
ENDROOT
BRANCH  16  17
ATOM     17  C   UNL     1       1.043   1.230  23.673  0.00  0.00    +0.023 A 
ATOM     18  C   UNL     1       1.174  -0.102  23.285  0.00  0.00    +0.015 A 
ATOM     19  C   UNL     1       2.125   2.102  23.556  0.00  0.00    +0.015 A 
ATOM     20  C   UNL     1       2.389  -0.564  22.780  0.00  0.00    +0.046 A 
ATOM     21  C   UNL     1       3.340   1.640  23.050  0.00  0.00    +0.046 A 
ATOM     22  C   UNL     1       3.473   0.306  22.663  0.00  0.00    +0.120 A 
BRANCH  22   3
ATOM      3  O   UNL     1       4.659  -0.144  22.170  0.00  0.00    -0.495 OA
ATOM     23  C   UNL     1       5.769  -0.161  23.067  0.00  0.00    +0.277 C 
ENDBRANCH  22   3
ENDBRANCH  16  17
BRANCH  15  11
ATOM      4  N   UNL     1      -4.447   1.158  25.097  0.00  0.00    -0.289 NA
ATOM     11  C   UNL     1      -3.747   2.147  24.254  0.00  0.00    +0.148 C 
ATOM     12  C   UNL     1      -5.725   1.761  25.471  0.00  0.00    +0.116 C 
ATOM     13  C   UNL     1      -4.286   3.513  24.719  0.00  0.00    +0.061 C 
ATOM     14  C   UNL     1      -5.315   3.185  25.795  0.00  0.00    +0.130 C 
BRANCH  14   1
ATOM      1  O   UNL     1      -6.412   4.076  25.727  0.00  0.00    -0.390 OA
ATOM     24  H   UNL     1      -6.133   4.914  26.134  0.00  0.00    +0.210 HD
ENDBRANCH  14   1
BRANCH   4  10
ATOM     10  C   UNL     1      -4.621  -0.134  24.445  0.00  0.00    +0.088 C 
BRANCH  10   7
ATOM      7  C   UNL     1      -3.894  -1.214  25.177  0.00  0.00    +0.003 C 
ATOM      8  C   UNL     1      -2.517  -1.608  24.728  0.00  0.00    +0.005 C 
ATOM      9  C   UNL     1      -3.674  -2.537  24.503  0.00  0.00    +0.005 C 
ENDBRANCH  10   7
ENDBRANCH   4  10
ENDBRANCH  15  11
TORSDOF 6
ENDMDL
MODEL 4
REMARK VINA RESULT:      -3.3      2.342      3.721
REMARK  Name = 26744182
REMARK  7 active torsions:
REMARK  status: ('A' for Active; 'I' for Inactive)
REMARK    1  A    between atoms: O_1  and  C_14
REMARK    2  A    between atoms: O_3  and  C_22
REMARK    3  A    between atoms: O_3  and  C_23
REMARK    4  A    between atoms: N_4  and  C_10
REMARK    5  A    between atoms: C_7  and  C_10
REMARK    6  A    between atoms: C_11  and  C_15
REMARK    7  A    between atoms: C_16  and  C_17
REMARK                            x       y       z     vdW  Elec       q    Type
REMARK                         _______ _______ _______ _____ _____    ______ ____
ROOT
ATOM      2  O   UNL     1      -4.575 -10.513  13.646  0.00  0.00    -0.336 OA
ATOM      5  N   UNL     1      -6.376  -9.196  13.449  0.00  0.00    -0.190 NA
ATOM      6  N   UNL     1      -5.373 -10.774  14.766  0.00  0.00    -0.056 NA
ATOM     15  C   UNL     1      -5.238  -9.572  12.922  0.00  0.00    +0.245 A 
ATOM     16  C   UNL     1      -6.416  -9.960  14.579  0.00  0.00    +0.202 A 
ENDROOT
BRANCH  16  17
ATOM     17  C   UNL     1      -7.513  -9.886  15.500  0.00  0.00    +0.023 A 
ATOM     18  C   UNL     1      -7.392  -9.135  16.668  0.00  0.00    +0.015 A 
ATOM     19  C   UNL     1      -8.699 -10.567  15.227  0.00  0.00    +0.015 A 
ATOM     20  C   UNL     1      -8.459  -9.064  17.565  0.00  0.00    +0.046 A 
ATOM     21  C   UNL     1      -9.765 -10.497  16.124  0.00  0.00    +0.046 A 
ATOM     22  C   UNL     1      -9.645  -9.746  17.293  0.00  0.00    +0.120 A 
BRANCH  22   3
ATOM      3  O   UNL     1     -10.686  -9.678  18.167  0.00  0.00    -0.495 OA
ATOM     23  C   UNL     1     -10.545 -10.383  19.400  0.00  0.00    +0.277 C 
ENDBRANCH  22   3
ENDBRANCH  16  17
BRANCH  15  11
ATOM      4  N   UNL     1      -3.715 -10.152  11.042  0.00  0.00    -0.289 NA
ATOM     11  C   UNL     1      -4.574  -9.112  11.642  0.00  0.00    +0.148 C 
ATOM     12  C   UNL     1      -3.726  -9.918   9.599  0.00  0.00    +0.116 C 
ATOM     13  C   UNL     1      -5.588  -8.755  10.539  0.00  0.00    +0.061 C 
ATOM     14  C   UNL     1      -5.191  -9.613   9.345  0.00  0.00    +0.130 C 
BRANCH  14   1
ATOM      1  O   UNL     1      -5.376  -8.904   8.134  0.00  0.00    -0.390 OA
ATOM     24  H   UNL     1      -4.520  -8.513   7.890  0.00  0.00    +0.210 HD
ENDBRANCH  14   1
BRANCH   4  10
ATOM     10  C   UNL     1      -2.362 -10.164  11.584  0.00  0.00    +0.088 C 
BRANCH  10   7
ATOM      7  C   UNL     1      -1.556  -9.021  11.060  0.00  0.00    +0.003 C 
ATOM      8  C   UNL     1      -0.103  -9.230  10.746  0.00  0.00    +0.005 C 
ATOM      9  C   UNL     1      -0.503  -8.405  11.935  0.00  0.00    +0.005 C 
ENDBRANCH  10   7
ENDBRANCH   4  10
ENDBRANCH  15  11
TORSDOF 6
ENDMDL
MODEL 5
REMARK VINA RESULT:      -3.2     14.677     17.216
REMARK  Name = 26744182
REMARK  7 active torsions:
REMARK  status: ('A' for Active; 'I' for Inactive)
REMARK    1  A    between atoms: O_1  and  C_14
REMARK    2  A    between atoms: O_3  and  C_22
REMARK    3  A    between atoms: O_3  and  C_23
REMARK    4  A    between atoms: N_4  and  C_10
REMARK    5  A    between atoms: C_7  and  C_10
REMARK    6  A    between atoms: C_11  and  C_15
REMARK    7  A    between atoms: C_16  and  C_17
REMARK                            x       y       z     vdW  Elec       q    Type
REMARK                         _______ _______ _______ _____ _____    ______ ____
ROOT
ATOM      2  O   UNL     1      -2.747  -0.388  24.446  0.00  0.00    -0.336 OA
ATOM      5  N   UNL     1      -1.376   1.376  24.592  0.00  0.00    -0.190 NA
ATOM      6  N   UNL     1      -1.534  -0.790  23.874  0.00  0.00    -0.056 NA
ATOM     15  C   UNL     1      -2.569   0.900  24.843  0.00  0.00    +0.245 A 
ATOM     16  C   UNL     1      -0.777   0.304  23.997  0.00  0.00    +0.202 A 
ENDROOT
BRANCH  16  17
ATOM     17  C   UNL     1       0.581   0.359  23.536  0.00  0.00    +0.023 A 
ATOM     18  C   UNL     1       1.092  -0.671  22.748  0.00  0.00    +0.015 A 
ATOM     19  C   UNL     1       1.389   1.443  23.878  0.00  0.00    +0.015 A 
ATOM     20  C   UNL     1       2.412  -0.618  22.301  0.00  0.00    +0.046 A 
ATOM     21  C   UNL     1       2.709   1.497  23.432  0.00  0.00    +0.046 A 
ATOM     22  C   UNL     1       3.221   0.466  22.644  0.00  0.00    +0.120 A 
BRANCH  22   3
ATOM      3  O   UNL     1       4.510   0.519  22.209  0.00  0.00    -0.495 OA
ATOM     23  C   UNL     1       5.524   0.134  23.136  0.00  0.00    +0.277 C 
ENDBRANCH  22   3
ENDBRANCH  16  17
BRANCH  15  11
ATOM      4  N   UNL     1      -4.000   2.931  24.977  0.00  0.00    -0.289 NA
ATOM     11  C   UNL     1      -3.753   1.574  25.503  0.00  0.00    +0.148 C 
ATOM     12  C   UNL     1      -5.436   3.171  25.106  0.00  0.00    +0.116 C 
ATOM     13  C   UNL     1      -5.074   0.816  25.273  0.00  0.00    +0.061 C 
ATOM     14  C   UNL     1      -6.015   1.843  24.656  0.00  0.00    +0.130 C 
BRANCH  14   1
ATOM      1  O   UNL     1      -7.336   1.659  25.127  0.00  0.00    -0.390 OA
ATOM     24  H   UNL     1      -7.295   1.048  25.882  0.00  0.00    +0.210 HD
ENDBRANCH  14   1
BRANCH   4  10
ATOM     10  C   UNL     1      -3.211   3.959  25.644  0.00  0.00    +0.088 C 
BRANCH  10   7
ATOM      7  C   UNL     1      -2.216   4.570  24.714  0.00  0.00    +0.003 C 
ATOM      8  C   UNL     1      -0.755   4.504  25.053  0.00  0.00    +0.005 C 
ATOM      9  C   UNL     1      -1.485   5.812  25.134  0.00  0.00    +0.005 C 
ENDBRANCH  10   7
ENDBRANCH   4  10
ENDBRANCH  15  11
TORSDOF 6
ENDMDL
MODEL 6
REMARK VINA RESULT:      -2.9      3.512      6.107
REMARK  Name = 26744182
REMARK  7 active torsions:
REMARK  status: ('A' for Active; 'I' for Inactive)
REMARK    1  A    between atoms: O_1  and  C_14
REMARK    2  A    between atoms: O_3  and  C_22
REMARK    3  A    between atoms: O_3  and  C_23
REMARK    4  A    between atoms: N_4  and  C_10
REMARK    5  A    between atoms: C_7  and  C_10
REMARK    6  A    between atoms: C_11  and  C_15
REMARK    7  A    between atoms: C_16  and  C_17
REMARK                            x       y       z     vdW  Elec       q    Type
REMARK                         _______ _______ _______ _____ _____    ______ ____
ROOT
ATOM      2  O   UNL     1      -6.376  -9.466  10.863  0.00  0.00    -0.336 OA
ATOM      5  N   UNL     1      -6.526 -10.733  12.704  0.00  0.00    -0.190 NA
ATOM      6  N   UNL     1      -5.152  -9.331  11.530  0.00  0.00    -0.056 NA
ATOM     15  C   UNL     1      -7.127 -10.308  11.621  0.00  0.00    +0.245 A 
ATOM     16  C   UNL     1      -5.317 -10.107  12.605  0.00  0.00    +0.202 A 
ENDROOT
BRANCH  16  17
ATOM     17  C   UNL     1      -4.296 -10.278  13.598  0.00  0.00    +0.023 A 
ATOM     18  C   UNL     1      -2.955 -10.308  13.221  0.00  0.00    +0.015 A 
ATOM     19  C   UNL     1      -4.648 -10.416  14.941  0.00  0.00    +0.015 A 
ATOM     20  C   UNL     1      -1.962 -10.476  14.187  0.00  0.00    +0.046 A 
ATOM     21  C   UNL     1      -3.656 -10.584  15.907  0.00  0.00    +0.046 A 
ATOM     22  C   UNL     1      -2.313 -10.615  15.530  0.00  0.00    +0.120 A 
BRANCH  22   3
ATOM      3  O   UNL     1      -1.346 -10.779  16.474  0.00  0.00    -0.495 OA
ATOM     23  C   UNL     1      -0.152 -10.012  16.319  0.00  0.00    +0.277 C 
ENDBRANCH  22   3
ENDBRANCH  16  17
BRANCH  15  11
ATOM      4  N   UNL     1      -9.552  -9.758  11.711  0.00  0.00    -0.289 NA
ATOM     11  C   UNL     1      -8.516 -10.621  11.109  0.00  0.00    +0.148 C 
ATOM     12  C   UNL     1     -10.615  -9.630  10.716  0.00  0.00    +0.116 C 
ATOM     13  C   UNL     1      -8.655 -10.400   9.591  0.00  0.00    +0.061 C 
ATOM     14  C   UNL     1      -9.823  -9.434   9.437  0.00  0.00    +0.130 C 
BRANCH  14   1
ATOM      1  O   UNL     1     -10.589  -9.751   8.291  0.00  0.00    -0.390 OA
ATOM     24  H   UNL     1      -9.983  -9.773   7.531  0.00  0.00    +0.210 HD
ENDBRANCH  14   1
BRANCH   4  10
ATOM     10  C   UNL     1     -10.052 -10.263  12.984  0.00  0.00    +0.088 C 
BRANCH  10   7
ATOM      7  C   UNL     1      -9.848  -9.269  14.080  0.00  0.00    +0.003 C 
ATOM      8  C   UNL     1      -9.136  -9.691  15.332  0.00  0.00    +0.005 C 
ATOM      9  C   UNL     1     -10.613  -9.425  15.362  0.00  0.00    +0.005 C 
ENDBRANCH  10   7
ENDBRANCH   4  10
ENDBRANCH  15  11
TORSDOF 6
ENDMDL
MODEL 7
REMARK VINA RESULT:      -2.8      3.374      5.709
REMARK  Name = 26744182
REMARK  7 active torsions:
REMARK  status: ('A' for Active; 'I' for Inactive)
REMARK    1  A    between atoms: O_1  and  C_14
REMARK    2  A    between atoms: O_3  and  C_22
REMARK    3  A    between atoms: O_3  and  C_23
REMARK    4  A    between atoms: N_4  and  C_10
REMARK    5  A    between atoms: C_7  and  C_10
REMARK    6  A    between atoms: C_11  and  C_15
REMARK    7  A    between atoms: C_16  and  C_17
REMARK                            x       y       z     vdW  Elec       q    Type
REMARK                         _______ _______ _______ _____ _____    ______ ____
ROOT
ATOM      2  O   UNL     1      -5.160  -9.738  14.815  0.00  0.00    -0.336 OA
ATOM      5  N   UNL     1      -5.208 -10.470  12.699  0.00  0.00    -0.190 NA
ATOM      6  N   UNL     1      -6.436  -9.434  14.326  0.00  0.00    -0.056 NA
ATOM     15  C   UNL     1      -4.501 -10.346  13.793  0.00  0.00    +0.245 A 
ATOM     16  C   UNL     1      -6.388  -9.896  13.074  0.00  0.00    +0.202 A 
ENDROOT
BRANCH  16  17
ATOM     17  C   UNL     1      -7.499  -9.799  12.172  0.00  0.00    +0.023 A 
ATOM     18  C   UNL     1      -7.285  -9.471  10.834  0.00  0.00    +0.015 A 
ATOM     19  C   UNL     1      -8.794 -10.033  12.635  0.00  0.00    +0.015 A 
ATOM     20  C   UNL     1      -8.366  -9.376   9.957  0.00  0.00    +0.046 A 
ATOM     21  C   UNL     1      -9.875  -9.938  11.758  0.00  0.00    +0.046 A 
ATOM     22  C   UNL     1      -9.661  -9.608  10.420  0.00  0.00    +0.120 A 
BRANCH  22   3
ATOM      3  O   UNL     1     -10.717  -9.516   9.566  0.00  0.00    -0.495 OA
ATOM     23  C   UNL     1     -10.463  -8.954   8.278  0.00  0.00    +0.277 C 
ENDBRANCH  22   3
ENDBRANCH  16  17
BRANCH  15  11
ATOM      4  N   UNL     1      -2.084  -9.987  13.320  0.00  0.00    -0.289 NA
ATOM     11  C   UNL     1      -3.078 -10.780  14.071  0.00  0.00    +0.148 C 
ATOM     12  C   UNL     1      -0.868  -9.968  14.133  0.00  0.00    +0.116 C 
ATOM     13  C   UNL     1      -2.681 -10.611  15.549  0.00  0.00    +0.061 C 
ATOM     14  C   UNL     1      -1.428  -9.743  15.525  0.00  0.00    +0.130 C 
BRANCH  14   1
ATOM      1  O   UNL     1      -0.517 -10.150  16.528  0.00  0.00    -0.390 OA
ATOM     24  H   UNL     1      -0.680  -9.598  17.312  0.00  0.00    +0.210 HD
ENDBRANCH  14   1
BRANCH   4  10
ATOM     10  C   UNL     1      -1.837 -10.496  11.977  0.00  0.00    +0.088 C 
BRANCH  10   7
ATOM      7  C   UNL     1      -2.177  -9.478  10.939  0.00  0.00    +0.003 C 
ATOM      8  C   UNL     1      -3.505  -8.781  11.001  0.00  0.00    +0.005 C 
ATOM      9  C   UNL     1      -3.238  -9.792   9.924  0.00  0.00    +0.005 C 
ENDBRANCH  10   7
ENDBRANCH   4  10
ENDBRANCH  15  11
TORSDOF 6
ENDMDL
MODEL 8
REMARK VINA RESULT:      -2.5      3.340      7.386
REMARK  Name = 26744182
REMARK  7 active torsions:
REMARK  status: ('A' for Active; 'I' for Inactive)
REMARK    1  A    between atoms: O_1  and  C_14
REMARK    2  A    between atoms: O_3  and  C_22
REMARK    3  A    between atoms: O_3  and  C_23
REMARK    4  A    between atoms: N_4  and  C_10
REMARK    5  A    between atoms: C_7  and  C_10
REMARK    6  A    between atoms: C_11  and  C_15
REMARK    7  A    between atoms: C_16  and  C_17
REMARK                            x       y       z     vdW  Elec       q    Type
REMARK                         _______ _______ _______ _____ _____    ______ ____
ROOT
ATOM      2  O   UNL     1      -6.879 -10.781  12.964  0.00  0.00    -0.336 OA
ATOM      5  N   UNL     1      -6.027 -10.094  11.010  0.00  0.00    -0.190 NA
ATOM      6  N   UNL     1      -5.508 -10.594  13.180  0.00  0.00    -0.056 NA
ATOM     15  C   UNL     1      -7.101 -10.465  11.661  0.00  0.00    +0.245 A 
ATOM     16  C   UNL     1      -5.076 -10.189  11.983  0.00  0.00    +0.202 A 
ENDROOT
BRANCH  16  17
ATOM     17  C   UNL     1      -3.700  -9.873  11.725  0.00  0.00    +0.023 A 
ATOM     18  C   UNL     1      -2.727 -10.165  12.679  0.00  0.00    +0.015 A 
ATOM     19  C   UNL     1      -3.338  -9.271  10.519  0.00  0.00    +0.015 A 
ATOM     20  C   UNL     1      -1.390  -9.856  12.429  0.00  0.00    +0.046 A 
ATOM     21  C   UNL     1      -2.002  -8.962  10.269  0.00  0.00    +0.046 A 
ATOM     22  C   UNL     1      -1.027  -9.253  11.224  0.00  0.00    +0.120 A 
BRANCH  22   3
ATOM      3  O   UNL     1       0.277  -8.951  10.978  0.00  0.00    -0.495 OA
ATOM     23  C   UNL     1       0.849  -7.884  11.733  0.00  0.00    +0.277 C 
ENDBRANCH  22   3
ENDBRANCH  16  17
BRANCH  15  11
ATOM      4  N   UNL     1      -9.456  -9.697  11.897  0.00  0.00    -0.289 NA
ATOM     11  C   UNL     1      -8.528 -10.586  11.170  0.00  0.00    +0.148 C 
ATOM     12  C   UNL     1     -10.528  -9.361  10.961  0.00  0.00    +0.116 C 
ATOM     13  C   UNL     1      -8.685 -10.192   9.690  0.00  0.00    +0.061 C 
ATOM     14  C   UNL     1      -9.754  -9.108   9.681  0.00  0.00    +0.130 C 
BRANCH  14   1
ATOM      1  O   UNL     1     -10.579  -9.226   8.537  0.00  0.00    -0.390 OA
ATOM     24  H   UNL     1     -11.438  -9.572   8.832  0.00  0.00    +0.210 HD
ENDBRANCH  14   1
BRANCH   4  10
ATOM     10  C   UNL     1      -9.969 -10.284  13.129  0.00  0.00    +0.088 C 
BRANCH  10   7
ATOM      7  C   UNL     1     -10.175  -9.245  14.182  0.00  0.00    +0.003 C 
ATOM      8  C   UNL     1      -9.157  -9.095  15.274  0.00  0.00    +0.005 C 
ATOM      9  C   UNL     1     -10.506  -9.675  15.581  0.00  0.00    +0.005 C 
ENDBRANCH  10   7
ENDBRANCH   4  10
ENDBRANCH  15  11
TORSDOF 6
ENDMDL
MODEL 9
REMARK VINA RESULT:      -2.5      2.214      2.874
REMARK  Name = 26744182
REMARK  7 active torsions:
REMARK  status: ('A' for Active; 'I' for Inactive)
REMARK    1  A    between atoms: O_1  and  C_14
REMARK    2  A    between atoms: O_3  and  C_22
REMARK    3  A    between atoms: O_3  and  C_23
REMARK    4  A    between atoms: N_4  and  C_10
REMARK    5  A    between atoms: C_7  and  C_10
REMARK    6  A    between atoms: C_11  and  C_15
REMARK    7  A    between atoms: C_16  and  C_17
REMARK                            x       y       z     vdW  Elec       q    Type
REMARK                         _______ _______ _______ _____ _____    ______ ____
ROOT
ATOM      2  O   UNL     1      -4.890 -10.704  13.848  0.00  0.00    -0.336 OA
ATOM      5  N   UNL     1      -7.027 -10.156  13.460  0.00  0.00    -0.190 NA
ATOM      6  N   UNL     1      -5.503 -10.611  15.104  0.00  0.00    -0.056 NA
ATOM     15  C   UNL     1      -5.857 -10.421  12.935  0.00  0.00    +0.245 A 
ATOM     16  C   UNL     1      -6.760 -10.285  14.792  0.00  0.00    +0.202 A 
ENDROOT
BRANCH  16  17
ATOM     17  C   UNL     1      -7.774 -10.080  15.787  0.00  0.00    +0.023 A 
ATOM     18  C   UNL     1      -7.478  -9.366  16.947  0.00  0.00    +0.015 A 
ATOM     19  C   UNL     1      -9.055 -10.596  15.592  0.00  0.00    +0.015 A 
ATOM     20  C   UNL     1      -8.463  -9.169  17.915  0.00  0.00    +0.046 A 
ATOM     21  C   UNL     1     -10.040 -10.398  16.559  0.00  0.00    +0.046 A 
ATOM     22  C   UNL     1      -9.744  -9.685  17.721  0.00  0.00    +0.120 A 
BRANCH  22   3
ATOM      3  O   UNL     1     -10.706  -9.493  18.665  0.00  0.00    -0.495 OA
ATOM     23  C   UNL     1     -10.658 -10.329  19.820  0.00  0.00    +0.277 C 
ENDBRANCH  22   3
ENDBRANCH  16  17
BRANCH  15  11
ATOM      4  N   UNL     1      -6.081  -9.390  10.681  0.00  0.00    -0.289 NA
ATOM     11  C   UNL     1      -5.443 -10.456  11.480  0.00  0.00    +0.148 C 
ATOM     12  C   UNL     1      -5.151  -9.068   9.600  0.00  0.00    +0.116 C 
ATOM     13  C   UNL     1      -3.931 -10.241  11.285  0.00  0.00    +0.061 C 
ATOM     14  C   UNL     1      -3.820  -9.062  10.327  0.00  0.00    +0.130 C 
BRANCH  14   1
ATOM      1  O   UNL     1      -2.735  -9.240   9.437  0.00  0.00    -0.390 OA
ATOM     24  H   UNL     1      -2.895 -10.061   8.942  0.00  0.00    +0.210 HD
ENDBRANCH  14   1
BRANCH   4  10
ATOM     10  C   UNL     1      -7.399  -9.758  10.179  0.00  0.00    +0.088 C 
BRANCH  10   7
ATOM      7  C   UNL     1      -8.467  -9.448  11.176  0.00  0.00    +0.003 C 
ATOM      8  C   UNL     1      -9.606 -10.409  11.356  0.00  0.00    +0.005 C 
ATOM      9  C   UNL     1      -9.840  -9.085  10.690  0.00  0.00    +0.005 C 
ENDBRANCH  10   7
ENDBRANCH   4  10
ENDBRANCH  15  11
TORSDOF 6
ENDMDL
MODEL 10
REMARK VINA RESULT:      -1.5     14.030     16.470
REMARK  Name = 26744182
REMARK  7 active torsions:
REMARK  status: ('A' for Active; 'I' for Inactive)
REMARK    1  A    between atoms: O_1  and  C_14
REMARK    2  A    between atoms: O_3  and  C_22
REMARK    3  A    between atoms: O_3  and  C_23
REMARK    4  A    between atoms: N_4  and  C_10
REMARK    5  A    between atoms: C_7  and  C_10
REMARK    6  A    between atoms: C_11  and  C_15
REMARK    7  A    between atoms: C_16  and  C_17
REMARK                            x       y       z     vdW  Elec       q    Type
REMARK                         _______ _______ _______ _____ _____    ______ ____
ROOT
ATOM      2  O   UNL     1      -1.014  -0.588  23.833  0.00  0.00    -0.336 OA
ATOM      5  N   UNL     1       0.265   1.209  23.445  0.00  0.00    -0.190 NA
ATOM      6  N   UNL     1       0.306  -1.053  23.778  0.00  0.00    -0.056 NA
ATOM     15  C   UNL     1      -0.949   0.754  23.626  0.00  0.00    +0.245 A 
ATOM     16  C   UNL     1       1.000   0.064  23.546  0.00  0.00    +0.202 A 
ENDROOT
BRANCH  16  17
ATOM     17  C   UNL     1       2.429   0.071  23.410  0.00  0.00    +0.023 A 
ATOM     18  C   UNL     1       3.075   1.197  22.903  0.00  0.00    +0.015 A 
ATOM     19  C   UNL     1       3.169  -1.051  23.783  0.00  0.00    +0.015 A 
ATOM     20  C   UNL     1       4.464   1.203  22.770  0.00  0.00    +0.046 A 
ATOM     21  C   UNL     1       4.557  -1.045  23.649  0.00  0.00    +0.046 A 
ATOM     22  C   UNL     1       5.205   0.081  23.142  0.00  0.00    +0.120 A 
BRANCH  22   3
ATOM      3  O   UNL     1       6.560   0.085  23.012  0.00  0.00    -0.495 OA
ATOM     23  C   UNL     1       7.179  -1.143  22.633  0.00  0.00    +0.277 C 
ENDBRANCH  22   3
ENDBRANCH  16  17
BRANCH  15  11
ATOM      4  N   UNL     1      -3.310   0.804  24.411  0.00  0.00    -0.289 NA
ATOM     11  C   UNL     1      -2.263   1.504  23.639  0.00  0.00    +0.148 C 
ATOM     12  C   UNL     1      -4.196   1.839  24.942  0.00  0.00    +0.116 C 
ATOM     13  C   UNL     1      -2.152   2.892  24.296  0.00  0.00    +0.061 C 
ATOM     14  C   UNL     1      -3.204   2.893  25.397  0.00  0.00    +0.130 C 
BRANCH  14   1
ATOM      1  O   UNL     1      -3.809   4.167  25.512  0.00  0.00    -0.390 OA
ATOM     24  H   UNL     1      -3.136   4.780  25.855  0.00  0.00    +0.210 HD
ENDBRANCH  14   1
BRANCH   4  10
ATOM     10  C   UNL     1      -4.035  -0.189  23.628  0.00  0.00    +0.088 C 
BRANCH  10   7
ATOM      7  C   UNL     1      -4.421  -1.364  24.465  0.00  0.00    +0.003 C 
ATOM      8  C   UNL     1      -3.450  -1.892  25.482  0.00  0.00    +0.005 C 
ATOM      9  C   UNL     1      -3.737  -2.681  24.238  0.00  0.00    +0.005 C 
ENDBRANCH  10   7
ENDBRANCH   4  10
ENDBRANCH  15  11
TORSDOF 6
ENDMDL
