MODEL 1
REMARK VINA RESULT:       6.0      0.000      0.000
REMARK  Name = 11941431
REMARK  7 active torsions:
REMARK  status: ('A' for Active; 'I' for Inactive)
REMARK    1  A    between atoms: O_4  and  C_24
REMARK    2  A    between atoms: O_4  and  C_32
REMARK    3  A    between atoms: O_7  and  C_34
REMARK    4  A    between atoms: N_10  and  C_12
REMARK    5  A    between atoms: C_20  and  C_24
REMARK    6  A    between atoms: C_23  and  C_26
REMARK    7  A    between atoms: C_32  and  C_34
REMARK                            x       y       z     vdW  Elec       q    Type
REMARK                         _______ _______ _______ _____ _____    ______ ____
ROOT
ATOM      1  O   UNL     1      -5.587  -0.622  24.806  0.00  0.00    -0.273 OA
ATOM      2  O   UNL     1      -2.080   1.996  21.873  0.00  0.00    -0.270 OA
ATOM      9  N   UNL     1      -3.660   1.721  23.522  0.00  0.00    -0.284 N 
ATOM     11  N   UNL     1      -3.393  -1.076  24.393  0.00  0.00    -0.283 N 
ATOM     12  C   UNL     1      -5.255   2.146  25.214  0.00  0.00    +0.104 C 
ATOM     13  C   UNL     1      -4.069   1.250  24.832  0.00  0.00    +0.183 C 
ATOM     14  C   UNL     1      -5.831   2.572  23.863  0.00  0.00    +0.043 C 
ATOM     15  C   UNL     1      -4.600   2.689  22.978  0.00  0.00    +0.111 C 
ATOM     16  C   UNL     1      -4.437  -0.210  24.644  0.00  0.00    +0.240 C 
ATOM     17  C   UNL     1      -2.456   1.447  22.909  0.00  0.00    +0.249 C 
ATOM     18  C   UNL     1      -1.578   0.415  23.520  0.00  0.00    +0.059 A 
ATOM     19  C   UNL     1      -2.045  -0.770  24.113  0.00  0.00    +0.046 A 
ATOM     21  C   UNL     1      -0.196   0.593  23.322  0.00  0.00    +0.023 A 
ATOM     22  C   UNL     1      -1.117  -1.777  24.434  0.00  0.00    +0.024 A 
ATOM     23  C   UNL     1       0.712  -0.398  23.691  0.00  0.00    -0.017 A 
ATOM     25  C   UNL     1       0.251  -1.589  24.235  0.00  0.00    +0.010 A 
ATOM     36  H   UNL     1      -3.610  -2.064  24.506  0.00  0.00    +0.155 HD
ENDROOT
BRANCH  23  26
ATOM      5  O   UNL     1       5.402  -1.770  24.015  0.00  0.00    -0.453 OA
ATOM      6  O   UNL     1       6.177   0.254  22.960  0.00  0.00    -0.453 OA
ATOM     26  C   UNL     1       2.130  -0.196  23.484  0.00  0.00    -0.014 A 
ATOM     27  C   UNL     1       3.038  -1.175  23.897  0.00  0.00    +0.058 A 
ATOM     28  C   UNL     1       2.583   0.984  22.868  0.00  0.00    +0.012 A 
ATOM     29  C   UNL     1       4.379  -0.937  23.679  0.00  0.00    +0.167 A 
ATOM     30  C   UNL     1       4.821   0.218  23.077  0.00  0.00    +0.166 A 
ATOM     31  C   UNL     1       3.947   1.200  22.660  0.00  0.00    +0.050 A 
ATOM     33  C   UNL     1       6.538  -1.009  23.555  0.00  0.00    +0.466 C 
ENDBRANCH  23  26
BRANCH  12  10
ATOM      3  O   UNL     1      -2.619   2.604  26.325  0.00  0.00    -0.273 OA
ATOM     10  N   UNL     1      -4.813   3.291  25.978  0.00  0.00    -0.308 N 
ATOM     20  C   UNL     1      -3.524   3.421  26.470  0.00  0.00    +0.239 C 
ATOM     35  H   UNL     1      -5.468   4.056  26.114  0.00  0.00    +0.149 HD
BRANCH  20  24
ATOM     24  C   UNL     1      -3.343   4.719  27.227  0.00  0.00    +0.256 C 
BRANCH  24   4
ATOM      4  O   UNL     1      -2.627   5.654  26.449  0.00  0.00    -0.359 OA
BRANCH   4  32
ATOM     32  C   UNL     1      -2.389   5.176  25.128  0.00  0.00    +0.280 C 
BRANCH  32  34
ATOM      8  O   UNL     1      -0.136   5.936  24.626  0.00  0.00    -0.248 OA
ATOM     34  C   UNL     1      -0.911   5.030  24.898  0.00  0.00    +0.331 C 
BRANCH  34   7
ATOM      7  O   UNL     1      -0.541   3.731  25.035  0.00  0.00    -0.479 OA
ATOM     37  H   UNL     1       0.434   3.624  25.009  0.00  0.00    +0.295 HD
ENDBRANCH  34   7
ENDBRANCH  32  34
ENDBRANCH   4  32
ENDBRANCH  24   4
ENDBRANCH  20  24
ENDBRANCH  12  10
TORSDOF 7
ENDMDL
