MODEL 1
REMARK VINA RESULT:       3.2      0.000      0.000
REMARK  Name = 51138104
REMARK  10 active torsions:
REMARK  status: ('A' for Active; 'I' for Inactive)
REMARK    1  A    between atoms: N_4  and  C_7
REMARK    2  A    between atoms: N_5  and  C_24
REMARK    3  A    between atoms: C_8  and  C_17
REMARK    4  A    between atoms: C_11  and  C_18
REMARK    5  A    between atoms: C_17  and  C_20
REMARK    6  A    between atoms: C_20  and  C_26
REMARK    7  A    between atoms: C_20  and  C_27
REMARK    8  A    between atoms: C_24  and  C_28
REMARK    9  A    between atoms: C_29  and  C_31
REMARK   10  A    between atoms: C_30  and  C_32
REMARK                            x       y       z     vdW  Elec       q    Type
REMARK                         _______ _______ _______ _____ _____    ______ ____
ROOT
ATOM      3  N   UNL     1       0.875  -0.953  24.101  0.00  0.00    -0.299 NA
ATOM      5  N   UNL     1      -3.003   2.254  23.674  0.00  0.00    -0.342 N 
ATOM      8  C   UNL     1      -0.299  -1.785  23.810  0.00  0.00    +0.085 C 
ATOM     11  C   UNL     1       1.140   0.089  23.119  0.00  0.00    +0.145 C 
ATOM     13  C   UNL     1       0.568   1.435  23.561  0.00  0.00    +0.065 C 
ATOM     14  C   UNL     1      -1.650  -1.063  23.815  0.00  0.00    -0.021 A 
ATOM     15  C   UNL     1      -1.825   0.350  23.738  0.00  0.00    +0.008 A 
ATOM     16  C   UNL     1      -0.923   1.464  23.629  0.00  0.00    -0.020 A 
ATOM     19  C   UNL     1      -3.117   0.885  23.738  0.00  0.00    +0.050 A 
ATOM     21  C   UNL     1      -1.689   2.612  23.603  0.00  0.00    +0.091 A 
ATOM     22  C   UNL     1      -2.836  -1.840  23.818  0.00  0.00    +0.006 A 
ATOM     23  C   UNL     1      -4.273   0.104  23.789  0.00  0.00    +0.026 A 
ATOM     25  C   UNL     1      -4.110  -1.275  23.817  0.00  0.00    +0.002 A 
ATOM     33  H   UNL     1       0.824  -0.567  25.043  0.00  0.00    +0.123 HD
ENDROOT
BRANCH  11  18
ATOM      1  O   UNL     1       3.189   1.215  22.652  0.00  0.00    -0.274 OA
ATOM      4  N   UNL     1       3.286  -0.954  23.476  0.00  0.00    -0.311 N 
ATOM     18  C   UNL     1       2.634   0.192  23.047  0.00  0.00    +0.231 C 
ATOM     34  H   UNL     1       2.719  -1.740  23.785  0.00  0.00    +0.149 HD
BRANCH   4   7
ATOM      7  C   UNL     1       4.755  -1.064  23.500  0.00  0.00    +0.073 C 
ATOM      9  C   UNL     1       5.431  -0.290  24.650  0.00  0.00    +0.022 C 
ATOM     10  C   UNL     1       5.480  -0.106  22.532  0.00  0.00    +0.022 C 
ATOM     12  C   UNL     1       6.532   0.096  23.642  0.00  0.00    +0.004 C 
ENDBRANCH   4   7
ENDBRANCH  11  18
BRANCH   8  17
ATOM     17  C   UNL     1      -0.235  -2.924  24.844  0.00  0.00    +0.026 C 
BRANCH  17  20
ATOM     20  C   UNL     1      -0.956  -2.586  26.153  0.00  0.00    -0.015 C 
ATOM     26  C   UNL     1      -2.422  -3.012  26.045  0.00  0.00    +0.007 C 
ATOM     27  C   UNL     1      -0.873  -1.100  26.504  0.00  0.00    +0.007 C 
ENDBRANCH  17  20
ENDBRANCH   8  17
BRANCH   5  24
ATOM     24  C   UNL     1      -4.104   3.192  23.662  0.00  0.00    +0.162 C 
BRANCH  24  28
ATOM      2  O   UNL     1      -5.465   3.665  27.068  0.00  0.00    -0.359 OA
ATOM      6  N   UNL     1      -6.486   2.893  26.527  0.00  0.00    -0.083 NA
ATOM     28  C   UNL     1      -4.865   3.237  24.964  0.00  0.00    +0.037 A 
ATOM     29  C   UNL     1      -4.505   3.863  26.128  0.00  0.00    +0.139 A 
ATOM     30  C   UNL     1      -6.106   2.651  25.269  0.00  0.00    +0.086 A 
ATOM     31  C   UNL     1      -3.345   4.664  26.540  0.00  0.00    +0.089 C 
ATOM     32  C   UNL     1      -6.971   1.845  24.390  0.00  0.00    +0.069 C 
ENDBRANCH  24  28
ENDBRANCH   5  24
TORSDOF 6
ENDMDL
MODEL 2
REMARK VINA RESULT:       3.5      1.430      1.707
REMARK  Name = 51138104
REMARK  10 active torsions:
REMARK  status: ('A' for Active; 'I' for Inactive)
REMARK    1  A    between atoms: N_4  and  C_7
REMARK    2  A    between atoms: N_5  and  C_24
REMARK    3  A    between atoms: C_8  and  C_17
REMARK    4  A    between atoms: C_11  and  C_18
REMARK    5  A    between atoms: C_17  and  C_20
REMARK    6  A    between atoms: C_20  and  C_26
REMARK    7  A    between atoms: C_20  and  C_27
REMARK    8  A    between atoms: C_24  and  C_28
REMARK    9  A    between atoms: C_29  and  C_31
REMARK   10  A    between atoms: C_30  and  C_32
REMARK                            x       y       z     vdW  Elec       q    Type
REMARK                         _______ _______ _______ _____ _____    ______ ____
ROOT
ATOM      3  N   UNL     1       0.211  -1.040  23.393  0.00  0.00    -0.299 NA
ATOM      5  N   UNL     1      -2.181   2.855  25.541  0.00  0.00    -0.342 N 
ATOM      8  C   UNL     1      -1.221  -1.295  23.197  0.00  0.00    +0.085 C 
ATOM     11  C   UNL     1       0.679   0.237  22.871  0.00  0.00    +0.145 C 
ATOM     13  C   UNL     1       0.741   1.301  23.965  0.00  0.00    +0.065 C 
ATOM     14  C   UNL     1      -2.177  -0.343  23.923  0.00  0.00    -0.021 A 
ATOM     15  C   UNL     1      -1.816   0.923  24.468  0.00  0.00    +0.008 A 
ATOM     16  C   UNL     1      -0.593   1.678  24.519  0.00  0.00    -0.020 A 
ATOM     19  C   UNL     1      -2.790   1.706  25.097  0.00  0.00    +0.050 A 
ATOM     21  C   UNL     1      -0.862   2.851  25.194  0.00  0.00    +0.091 A 
ATOM     22  C   UNL     1      -3.549  -0.691  24.005  0.00  0.00    +0.006 A 
ATOM     23  C   UNL     1      -4.129   1.324  25.209  0.00  0.00    +0.026 A 
ATOM     25  C   UNL     1      -4.496   0.112  24.638  0.00  0.00    +0.002 A 
ATOM     33  H   UNL     1       0.472  -1.155  24.373  0.00  0.00    +0.123 HD
ENDROOT
BRANCH  11  18
ATOM      1  O   UNL     1       2.277  -0.291  21.184  0.00  0.00    -0.274 OA
ATOM      4  N   UNL     1       3.037   0.067  23.348  0.00  0.00    -0.311 N 
ATOM     18  C   UNL     1       2.064  -0.028  22.366  0.00  0.00    +0.231 C 
ATOM     34  H   UNL     1       2.741   0.295  24.294  0.00  0.00    +0.149 HD
BRANCH   4   7
ATOM      7  C   UNL     1       4.468  -0.143  23.066  0.00  0.00    +0.073 C 
ATOM      9  C   UNL     1       5.098  -1.328  23.828  0.00  0.00    +0.022 C 
ATOM     10  C   UNL     1       5.415   0.775  23.866  0.00  0.00    +0.022 C 
ATOM     12  C   UNL     1       6.348  -0.444  24.013  0.00  0.00    +0.004 C 
ENDBRANCH   4   7
ENDBRANCH  11  18
BRANCH   8  17
ATOM     17  C   UNL     1      -1.416  -2.763  23.620  0.00  0.00    +0.026 C 
BRANCH  17  20
ATOM     20  C   UNL     1      -1.429  -2.951  25.140  0.00  0.00    -0.015 C 
ATOM     26  C   UNL     1      -2.877  -2.952  25.636  0.00  0.00    +0.007 C 
ATOM     27  C   UNL     1      -0.630  -1.874  25.875  0.00  0.00    +0.007 C 
ENDBRANCH  17  20
ENDBRANCH   8  17
BRANCH   5  24
ATOM     24  C   UNL     1      -2.830   3.932  26.256  0.00  0.00    +0.162 C 
BRANCH  24  28
ATOM      2  O   UNL     1      -5.815   5.178  24.462  0.00  0.00    -0.359 OA
ATOM      6  N   UNL     1      -6.442   4.361  25.395  0.00  0.00    -0.083 NA
ATOM     28  C   UNL     1      -4.186   4.288  25.697  0.00  0.00    +0.037 A 
ATOM     29  C   UNL     1      -4.472   5.126  24.651  0.00  0.00    +0.139 A 
ATOM     30  C   UNL     1      -5.449   3.840  26.121  0.00  0.00    +0.086 A 
ATOM     31  C   UNL     1      -3.653   5.938  23.741  0.00  0.00    +0.089 C 
ATOM     32  C   UNL     1      -5.761   2.911  27.221  0.00  0.00    +0.069 C 
ENDBRANCH  24  28
ENDBRANCH   5  24
TORSDOF 6
ENDMDL
MODEL 3
REMARK VINA RESULT:       4.0      1.780      7.847
REMARK  Name = 51138104
REMARK  10 active torsions:
REMARK  status: ('A' for Active; 'I' for Inactive)
REMARK    1  A    between atoms: N_4  and  C_7
REMARK    2  A    between atoms: N_5  and  C_24
REMARK    3  A    between atoms: C_8  and  C_17
REMARK    4  A    between atoms: C_11  and  C_18
REMARK    5  A    between atoms: C_17  and  C_20
REMARK    6  A    between atoms: C_20  and  C_26
REMARK    7  A    between atoms: C_20  and  C_27
REMARK    8  A    between atoms: C_24  and  C_28
REMARK    9  A    between atoms: C_29  and  C_31
REMARK   10  A    between atoms: C_30  and  C_32
REMARK                            x       y       z     vdW  Elec       q    Type
REMARK                         _______ _______ _______ _____ _____    ______ ____
ROOT
ATOM      3  N   UNL     1      -2.906   1.351  25.275  0.00  0.00    -0.299 NA
ATOM      5  N   UNL     1       1.385  -0.138  23.067  0.00  0.00    -0.342 N 
ATOM      8  C   UNL     1      -2.584   0.047  25.869  0.00  0.00    +0.085 C 
ATOM     11  C   UNL     1      -1.856   2.352  25.401  0.00  0.00    +0.145 C 
ATOM     13  C   UNL     1      -1.000   2.429  24.138  0.00  0.00    +0.065 C 
ATOM     14  C   UNL     1      -1.414  -0.709  25.232  0.00  0.00    -0.021 A 
ATOM     15  C   UNL     1      -0.433  -0.131  24.375  0.00  0.00    +0.008 A 
ATOM     16  C   UNL     1      -0.202   1.197  23.872  0.00  0.00    -0.020 A 
ATOM     19  C   UNL     1       0.596  -0.930  23.867  0.00  0.00    +0.050 A 
ATOM     21  C   UNL     1       0.917   1.143  23.068  0.00  0.00    +0.091 A 
ATOM     22  C   UNL     1      -1.226  -2.074  25.565  0.00  0.00    +0.006 A 
ATOM     23  C   UNL     1       0.738  -2.286  24.171  0.00  0.00    +0.026 A 
ATOM     25  C   UNL     1      -0.188  -2.844  25.043  0.00  0.00    +0.002 A 
ATOM     33  H   UNL     1      -3.201   1.246  24.305  0.00  0.00    +0.123 HD
ENDROOT
BRANCH  11  18
ATOM      1  O   UNL     1      -1.967   4.722  25.638  0.00  0.00    -0.274 OA
ATOM      4  N   UNL     1      -3.951   3.516  25.677  0.00  0.00    -0.311 N 
ATOM     18  C   UNL     1      -2.575   3.654  25.587  0.00  0.00    +0.231 C 
ATOM     34  H   UNL     1      -4.343   2.579  25.619  0.00  0.00    +0.149 HD
BRANCH   4   7
ATOM      7  C   UNL     1      -4.851   4.670  25.849  0.00  0.00    +0.073 C 
ATOM      9  C   UNL     1      -6.348   4.302  25.926  0.00  0.00    +0.022 C 
ATOM     10  C   UNL     1      -5.180   5.419  24.541  0.00  0.00    +0.022 C 
ATOM     12  C   UNL     1      -6.621   5.560  25.075  0.00  0.00    +0.004 C 
ENDBRANCH   4   7
ENDBRANCH  11  18
BRANCH   8  17
ATOM     17  C   UNL     1      -3.903  -0.745  25.807  0.00  0.00    +0.026 C 
BRANCH  17  20
ATOM     20  C   UNL     1      -4.430  -0.919  24.379  0.00  0.00    -0.015 C 
ATOM     26  C   UNL     1      -4.279  -2.383  23.960  0.00  0.00    +0.007 C 
ATOM     27  C   UNL     1      -3.715  -0.015  23.373  0.00  0.00    +0.007 C 
ENDBRANCH  17  20
ENDBRANCH   8  17
BRANCH   5  24
ATOM     24  C   UNL     1       2.556  -0.576  22.339  0.00  0.00    +0.162 C 
BRANCH  24  28
ATOM      2  O   UNL     1       5.618   0.968  23.724  0.00  0.00    -0.359 OA
ATOM      6  N   UNL     1       5.782  -0.323  24.211  0.00  0.00    -0.083 NA
ATOM     28  C   UNL     1       3.854  -0.190  23.006  0.00  0.00    +0.037 A 
ATOM     29  C   UNL     1       4.466   1.035  23.008  0.00  0.00    +0.139 A 
ATOM     30  C   UNL     1       4.715  -0.996  23.769  0.00  0.00    +0.086 A 
ATOM     31  C   UNL     1       4.140   2.340  22.419  0.00  0.00    +0.089 C 
ATOM     32  C   UNL     1       4.564  -2.422  24.106  0.00  0.00    +0.069 C 
ENDBRANCH  24  28
ENDBRANCH   5  24
TORSDOF 6
ENDMDL
