MODEL 1
REMARK VINA RESULT:       8.4      0.000      0.000
REMARK  Name = 25389794
REMARK  7 active torsions:
REMARK  status: ('A' for Active; 'I' for Inactive)
REMARK    1  A    between atoms: O_3  and  C_20
REMARK    2  A    between atoms: O_3  and  C_35
REMARK    3  A    between atoms: N_6  and  C_11
REMARK    4  A    between atoms: N_6  and  C_21
REMARK    5  A    between atoms: C_9  and  C_17
REMARK    6  A    between atoms: C_13  and  C_20
REMARK    7  A    between atoms: C_21  and  C_22
REMARK                            x       y       z     vdW  Elec       q    Type
REMARK                         _______ _______ _______ _____ _____    ______ ____
ROOT
ATOM      5  N   UNL     1      -1.037   1.508  25.957  0.00  0.00    -0.274 NA
ATOM      7  N   UNL     1      -3.772  -0.064  23.918  0.00  0.00    -0.356 N 
ATOM      8  C   UNL     1      -2.097   1.601  24.905  0.00  0.00    +0.106 C 
ATOM      9  C   UNL     1      -0.449   2.835  26.272  0.00  0.00    +0.093 C 
ATOM     10  C   UNL     1      -3.216   2.556  25.345  0.00  0.00    +0.044 C 
ATOM     11  C   UNL     1      -2.651   3.947  25.631  0.00  0.00    +0.057 C 
ATOM     12  C   UNL     1      -1.547   3.845  26.683  0.00  0.00    +0.042 C 
ATOM     13  C   UNL     1      -0.042   0.434  25.683  0.00  0.00    +0.172 C 
ATOM     14  C   UNL     1      -2.625   0.231  24.600  0.00  0.00    +0.038 A 
ATOM     15  C   UNL     1      -0.688  -0.973  25.627  0.00  0.00    +0.068 C 
ATOM     16  C   UNL     1      -1.990  -0.953  24.904  0.00  0.00    -0.016 A 
ATOM     18  C   UNL     1      -2.799  -2.017  24.419  0.00  0.00    +0.003 A 
ATOM     19  C   UNL     1      -3.911  -1.431  23.806  0.00  0.00    +0.047 A 
ATOM     25  C   UNL     1      -2.695  -3.422  24.436  0.00  0.00    +0.010 A 
ATOM     27  C   UNL     1      -4.926  -2.187  23.209  0.00  0.00    +0.026 A 
ATOM     30  C   UNL     1      -3.705  -4.189  23.844  0.00  0.00    +0.001 A 
ATOM     33  C   UNL     1      -4.803  -3.579  23.241  0.00  0.00    +0.002 A 
ATOM     37  H   UNL     1      -4.427   0.612  23.550  0.00  0.00    +0.166 HD
ENDROOT
BRANCH   9  17
ATOM      1  F   UNL     1      -1.111   2.665  29.032  0.00  0.00    -0.205 F 
ATOM     17  C   UNL     1       0.593   2.807  27.386  0.00  0.00    +0.005 A 
ATOM     23  C   UNL     1       0.191   2.723  28.719  0.00  0.00    +0.128 A 
ATOM     24  C   UNL     1       1.951   2.866  27.071  0.00  0.00    +0.008 A 
ATOM     31  C   UNL     1       1.145   2.697  29.736  0.00  0.00    +0.038 A 
ATOM     32  C   UNL     1       2.905   2.840  28.087  0.00  0.00    +0.000 A 
ATOM     34  C   UNL     1       2.502   2.757  29.420  0.00  0.00    +0.003 A 
ENDBRANCH   9  17
BRANCH  13  20
ATOM      4  O   UNL     1       1.206   1.815  24.151  0.00  0.00    -0.249 OA
ATOM     20  C   UNL     1       0.715   0.727  24.419  0.00  0.00    +0.325 C 
BRANCH  20   3
ATOM      3  O   UNL     1       0.762  -0.395  23.646  0.00  0.00    -0.467 OA
ATOM     35  C   UNL     1       1.459  -0.256  22.403  0.00  0.00    +0.280 C 
ENDBRANCH  20   3
ENDBRANCH  13  20
BRANCH  11   6
ATOM      6  N   UNL     1      -3.718   4.840  26.081  0.00  0.00    -0.311 NA
ATOM     36  H   UNL     1      -4.106   4.498  26.960  0.00  0.00    +0.122 HD
BRANCH   6  21
ATOM     21  C   UNL     1      -4.783   4.909  25.094  0.00  0.00    +0.112 C 
BRANCH  21  22
ATOM      2  O   UNL     1      -5.671   3.336  26.701  0.00  0.00    -0.375 OA
ATOM     22  C   UNL     1      -5.878   3.906  25.397  0.00  0.00    +0.132 C 
ATOM     26  C   UNL     1      -5.916   2.739  24.427  0.00  0.00    +0.035 C 
ATOM     28  C   UNL     1      -6.559   1.666  25.270  0.00  0.00    +0.031 C 
ATOM     29  C   UNL     1      -5.944   1.929  26.630  0.00  0.00    +0.160 C 
ENDBRANCH  21  22
ENDBRANCH   6  21
ENDBRANCH  11   6
TORSDOF 6
ENDMDL
MODEL 2
REMARK VINA RESULT:       9.1      2.448      7.999
REMARK  Name = 25389794
REMARK  7 active torsions:
REMARK  status: ('A' for Active; 'I' for Inactive)
REMARK    1  A    between atoms: O_3  and  C_20
REMARK    2  A    between atoms: O_3  and  C_35
REMARK    3  A    between atoms: N_6  and  C_11
REMARK    4  A    between atoms: N_6  and  C_21
REMARK    5  A    between atoms: C_9  and  C_17
REMARK    6  A    between atoms: C_13  and  C_20
REMARK    7  A    between atoms: C_21  and  C_22
REMARK                            x       y       z     vdW  Elec       q    Type
REMARK                         _______ _______ _______ _____ _____    ______ ____
ROOT
ATOM      5  N   UNL     1      -0.916   0.514  24.983  0.00  0.00    -0.274 NA
ATOM      7  N   UNL     1       1.740   2.726  26.452  0.00  0.00    -0.356 N 
ATOM      8  C   UNL     1       0.152   1.550  24.826  0.00  0.00    +0.106 C 
ATOM      9  C   UNL     1      -1.434   0.046  23.672  0.00  0.00    +0.093 C 
ATOM     10  C   UNL     1       1.318   1.005  23.988  0.00  0.00    +0.044 C 
ATOM     11  C   UNL     1       0.827   0.559  22.611  0.00  0.00    +0.057 C 
ATOM     12  C   UNL     1      -0.286  -0.476  22.775  0.00  0.00    +0.042 C 
ATOM     13  C   UNL     1      -1.965   0.906  25.965  0.00  0.00    +0.172 C 
ATOM     14  C   UNL     1       0.608   2.012  26.177  0.00  0.00    +0.038 A 
ATOM     15  C   UNL     1      -1.393   1.126  27.388  0.00  0.00    +0.068 C 
ATOM     16  C   UNL     1      -0.089   1.845  27.354  0.00  0.00    -0.016 A 
ATOM     18  C   UNL     1       0.664   2.451  28.396  0.00  0.00    +0.003 A 
ATOM     19  C   UNL     1       1.807   2.995  27.803  0.00  0.00    +0.047 A 
ATOM     25  C   UNL     1       0.486   2.596  29.786  0.00  0.00    +0.010 A 
ATOM     27  C   UNL     1       2.784   3.678  28.538  0.00  0.00    +0.026 A 
ATOM     30  C   UNL     1       1.457   3.275  30.532  0.00  0.00    +0.001 A 
ATOM     33  C   UNL     1       2.587   3.806  29.915  0.00  0.00    +0.002 A 
ATOM     37  H   UNL     1       2.432   3.016  25.774  0.00  0.00    +0.166 HD
ENDROOT
BRANCH   9  17
ATOM      1  F   UNL     1      -0.921  -2.492  24.847  0.00  0.00    -0.205 F 
ATOM     17  C   UNL     1      -2.480  -1.060  23.774  0.00  0.00    +0.005 A 
ATOM     23  C   UNL     1      -2.153  -2.281  24.364  0.00  0.00    +0.128 A 
ATOM     24  C   UNL     1      -3.765  -0.850  23.274  0.00  0.00    +0.008 A 
ATOM     31  C   UNL     1      -3.111  -3.290  24.455  0.00  0.00    +0.038 A 
ATOM     32  C   UNL     1      -4.723  -1.859  23.365  0.00  0.00    +0.000 A 
ATOM     34  C   UNL     1      -4.396  -3.080  23.955  0.00  0.00    +0.003 A 
ENDBRANCH   9  17
BRANCH  13  20
ATOM      4  O   UNL     1      -2.182   3.225  25.340  0.00  0.00    -0.249 OA
ATOM     20  C   UNL     1      -2.700   2.127  25.488  0.00  0.00    +0.325 C 
BRANCH  20   3
ATOM      3  O   UNL     1      -4.005   1.809  25.255  0.00  0.00    -0.467 OA
ATOM     35  C   UNL     1      -4.934   2.890  25.388  0.00  0.00    +0.280 C 
ENDBRANCH  20   3
ENDBRANCH  13  20
BRANCH  11   6
ATOM      6  N   UNL     1       1.937   0.012  21.834  0.00  0.00    -0.311 NA
ATOM     36  H   UNL     1       2.135  -0.940  22.139  0.00  0.00    +0.122 HD
BRANCH   6  21
ATOM     21  C   UNL     1       3.135   0.819  22.007  0.00  0.00    +0.112 C 
BRANCH  21  22
ATOM      2  O   UNL     1       3.836  -1.260  23.023  0.00  0.00    -0.375 OA
ATOM     22  C   UNL     1       4.310  -0.032  22.445  0.00  0.00    +0.132 C 
ATOM     26  C   UNL     1       5.174   0.629  23.505  0.00  0.00    +0.035 C 
ATOM     28  C   UNL     1       5.784  -0.570  24.187  0.00  0.00    +0.031 C 
ATOM     29  C   UNL     1       4.630  -1.552  24.183  0.00  0.00    +0.160 C 
ENDBRANCH  21  22
ENDBRANCH   6  21
ENDBRANCH  11   6
TORSDOF 6
ENDMDL
MODEL 3
REMARK VINA RESULT:      10.0      2.346      5.911
REMARK  Name = 25389794
REMARK  7 active torsions:
REMARK  status: ('A' for Active; 'I' for Inactive)
REMARK    1  A    between atoms: O_3  and  C_20
REMARK    2  A    between atoms: O_3  and  C_35
REMARK    3  A    between atoms: N_6  and  C_11
REMARK    4  A    between atoms: N_6  and  C_21
REMARK    5  A    between atoms: C_9  and  C_17
REMARK    6  A    between atoms: C_13  and  C_20
REMARK    7  A    between atoms: C_21  and  C_22
REMARK                            x       y       z     vdW  Elec       q    Type
REMARK                         _______ _______ _______ _____ _____    ______ ____
ROOT
ATOM      5  N   UNL     1      -0.655   1.220  24.431  0.00  0.00    -0.274 NA
ATOM      7  N   UNL     1      -4.002   2.031  25.930  0.00  0.00    -0.356 N 
ATOM      8  C   UNL     1      -1.671   1.058  25.517  0.00  0.00    +0.106 C 
ATOM      9  C   UNL     1       0.487   0.285  24.594  0.00  0.00    +0.093 C 
ATOM     10  C   UNL     1      -2.201  -0.383  25.554  0.00  0.00    +0.044 C 
ATOM     11  C   UNL     1      -1.054  -1.370  25.769  0.00  0.00    +0.057 C 
ATOM     12  C   UNL     1      -0.002  -1.180  24.677  0.00  0.00    +0.042 C 
ATOM     13  C   UNL     1      -0.271   2.641  24.204  0.00  0.00    +0.172 C 
ATOM     14  C   UNL     1      -2.778   2.051  25.324  0.00  0.00    +0.038 A 
ATOM     15  C   UNL     1      -1.473   3.521  23.776  0.00  0.00    +0.068 C 
ATOM     16  C   UNL     1      -2.701   3.188  24.550  0.00  0.00    -0.016 A 
ATOM     18  C   UNL     1      -3.942   3.873  24.660  0.00  0.00    +0.003 A 
ATOM     19  C   UNL     1      -4.741   3.124  25.530  0.00  0.00    +0.047 A 
ATOM     25  C   UNL     1      -4.467   5.058  24.108  0.00  0.00    +0.010 A 
ATOM     27  C   UNL     1      -6.042   3.507  25.874  0.00  0.00    +0.026 A 
ATOM     30  C   UNL     1      -5.769   5.450  24.443  0.00  0.00    +0.001 A 
ATOM     33  C   UNL     1      -6.542   4.684  25.312  0.00  0.00    +0.002 A 
ATOM     37  H   UNL     1      -4.328   1.322  26.573  0.00  0.00    +0.166 HD
ENDROOT
BRANCH   9  17
ATOM      1  F   UNL     1       0.140  -0.938  22.050  0.00  0.00    -0.205 F 
ATOM     17  C   UNL     1       1.522   0.364  23.475  0.00  0.00    +0.005 A 
ATOM     23  C   UNL     1       1.281  -0.264  22.253  0.00  0.00    +0.128 A 
ATOM     24  C   UNL     1       2.712   1.064  23.676  0.00  0.00    +0.008 A 
ATOM     31  C   UNL     1       2.228  -0.191  21.232  0.00  0.00    +0.038 A 
ATOM     32  C   UNL     1       3.659   1.137  22.655  0.00  0.00    +0.000 A 
ATOM     34  C   UNL     1       3.418   0.509  21.433  0.00  0.00    +0.003 A 
ENDBRANCH   9  17
BRANCH  13  20
ATOM      4  O   UNL     1       0.538   4.403  25.638  0.00  0.00    -0.249 OA
ATOM     20  C   UNL     1       0.399   3.206  25.425  0.00  0.00    +0.325 C 
BRANCH  20   3
ATOM      3  O   UNL     1       0.810   2.187  26.231  0.00  0.00    -0.467 OA
ATOM     35  C   UNL     1       0.866   2.493  27.628  0.00  0.00    +0.280 C 
ENDBRANCH  20   3
ENDBRANCH  13  20
BRANCH  11   6
ATOM      6  N   UNL     1      -1.564  -2.741  25.770  0.00  0.00    -0.311 NA
ATOM     36  H   UNL     1      -0.982  -3.324  26.371  0.00  0.00    +0.122 HD
BRANCH   6  21
ATOM     21  C   UNL     1      -1.553  -3.296  24.426  0.00  0.00    +0.112 C 
BRANCH  21  22
ATOM      2  O   UNL     1      -2.847  -1.603  23.284  0.00  0.00    -0.375 OA
ATOM     22  C   UNL     1      -2.841  -2.981  23.692  0.00  0.00    +0.132 C 
ATOM     26  C   UNL     1      -4.085  -3.176  24.542  0.00  0.00    +0.035 C 
ATOM     28  C   UNL     1      -5.055  -2.233  23.876  0.00  0.00    +0.031 C 
ATOM     29  C   UNL     1      -4.159  -1.066  23.514  0.00  0.00    +0.160 C 
ENDBRANCH  21  22
ENDBRANCH   6  21
ENDBRANCH  11   6
TORSDOF 6
ENDMDL
MODEL 4
REMARK VINA RESULT:      10.0      3.096      6.226
REMARK  Name = 25389794
REMARK  7 active torsions:
REMARK  status: ('A' for Active; 'I' for Inactive)
REMARK    1  A    between atoms: O_3  and  C_20
REMARK    2  A    between atoms: O_3  and  C_35
REMARK    3  A    between atoms: N_6  and  C_11
REMARK    4  A    between atoms: N_6  and  C_21
REMARK    5  A    between atoms: C_9  and  C_17
REMARK    6  A    between atoms: C_13  and  C_20
REMARK    7  A    between atoms: C_21  and  C_22
REMARK                            x       y       z     vdW  Elec       q    Type
REMARK                         _______ _______ _______ _____ _____    ______ ____
ROOT
ATOM      5  N   UNL     1      -1.982   1.391  24.573  0.00  0.00    -0.274 NA
ATOM      7  N   UNL     1       0.972  -0.822  23.881  0.00  0.00    -0.356 N 
ATOM      8  C   UNL     1      -1.404   0.044  24.275  0.00  0.00    +0.106 C 
ATOM      9  C   UNL     1      -3.433   1.317  24.881  0.00  0.00    +0.093 C 
ATOM     10  C   UNL     1      -1.620  -0.913  25.456  0.00  0.00    +0.044 C 
ATOM     11  C   UNL     1      -3.110  -1.050  25.768  0.00  0.00    +0.057 C 
ATOM     12  C   UNL     1      -3.706   0.331  26.041  0.00  0.00    +0.042 C 
ATOM     13  C   UNL     1      -1.611   2.419  23.561  0.00  0.00    +0.172 C 
ATOM     14  C   UNL     1       0.049   0.185  23.935  0.00  0.00    +0.038 A 
ATOM     15  C   UNL     1      -0.079   2.640  23.474  0.00  0.00    +0.068 C 
ATOM     16  C   UNL     1       0.668   1.354  23.549  0.00  0.00    -0.016 A 
ATOM     18  C   UNL     1       2.033   1.057  23.284  0.00  0.00    +0.003 A 
ATOM     19  C   UNL     1       2.197  -0.314  23.501  0.00  0.00    +0.047 A 
ATOM     25  C   UNL     1       3.147   1.818  22.877  0.00  0.00    +0.010 A 
ATOM     27  C   UNL     1       3.426  -0.962  23.330  0.00  0.00    +0.026 A 
ATOM     30  C   UNL     1       4.382   1.182  22.704  0.00  0.00    +0.001 A 
ATOM     33  C   UNL     1       4.517  -0.186  22.929  0.00  0.00    +0.002 A 
ATOM     37  H   UNL     1       0.794  -1.795  24.090  0.00  0.00    +0.166 HD
ENDROOT
BRANCH   9  17
ATOM      1  F   UNL     1      -6.225   1.835  24.732  0.00  0.00    -0.205 F 
ATOM     17  C   UNL     1      -4.061   2.657  25.256  0.00  0.00    +0.005 A 
ATOM     23  C   UNL     1      -5.441   2.836  25.156  0.00  0.00    +0.128 A 
ATOM     24  C   UNL     1      -3.253   3.704  25.698  0.00  0.00    +0.008 A 
ATOM     31  C   UNL     1      -6.012   4.061  25.500  0.00  0.00    +0.038 A 
ATOM     32  C   UNL     1      -3.824   4.929  26.042  0.00  0.00    +0.000 A 
ATOM     34  C   UNL     1      -5.203   5.108  25.942  0.00  0.00    +0.003 A 
ENDBRANCH   9  17
BRANCH  13  20
ATOM      4  O   UNL     1      -2.123   0.942  21.725  0.00  0.00    -0.249 OA
ATOM     20  C   UNL     1      -2.178   2.061  22.216  0.00  0.00    +0.325 C 
BRANCH  20   3
ATOM      3  O   UNL     1      -2.748   3.165  21.655  0.00  0.00    -0.467 OA
ATOM     35  C   UNL     1      -4.058   3.489  22.132  0.00  0.00    +0.280 C 
ENDBRANCH  20   3
ENDBRANCH  13  20
BRANCH  11   6
ATOM      6  N   UNL     1      -3.304  -1.938  26.914  0.00  0.00    -0.311 NA
ATOM     36  H   UNL     1      -2.635  -1.705  27.647  0.00  0.00    +0.122 HD
BRANCH   6  21
ATOM     21  C   UNL     1      -3.114  -3.327  26.529  0.00  0.00    +0.112 C 
BRANCH  21  22
ATOM      2  O   UNL     1      -2.473  -3.666  24.222  0.00  0.00    -0.375 OA
ATOM     22  C   UNL     1      -3.597  -3.575  25.114  0.00  0.00    +0.132 C 
ATOM     26  C   UNL     1      -4.479  -2.463  24.572  0.00  0.00    +0.035 C 
ATOM     28  C   UNL     1      -4.266  -2.608  23.086  0.00  0.00    +0.031 C 
ATOM     29  C   UNL     1      -2.794  -2.960  23.014  0.00  0.00    +0.160 C 
ENDBRANCH  21  22
ENDBRANCH   6  21
ENDBRANCH  11   6
TORSDOF 6
ENDMDL
MODEL 5
REMARK VINA RESULT:      10.7      2.437      7.750
REMARK  Name = 25389794
REMARK  7 active torsions:
REMARK  status: ('A' for Active; 'I' for Inactive)
REMARK    1  A    between atoms: O_3  and  C_20
REMARK    2  A    between atoms: O_3  and  C_35
REMARK    3  A    between atoms: N_6  and  C_11
REMARK    4  A    between atoms: N_6  and  C_21
REMARK    5  A    between atoms: C_9  and  C_17
REMARK    6  A    between atoms: C_13  and  C_20
REMARK    7  A    between atoms: C_21  and  C_22
REMARK                            x       y       z     vdW  Elec       q    Type
REMARK                         _______ _______ _______ _____ _____    ______ ____
ROOT
ATOM      5  N   UNL     1      -1.690   2.029  25.334  0.00  0.00    -0.274 NA
ATOM      7  N   UNL     1       1.758   2.528  26.737  0.00  0.00    -0.356 N 
ATOM      8  C   UNL     1      -0.247   2.382  25.153  0.00  0.00    +0.106 C 
ATOM      9  C   UNL     1      -2.405   1.935  24.036  0.00  0.00    +0.093 C 
ATOM     10  C   UNL     1       0.457   1.347  24.263  0.00  0.00    +0.044 C 
ATOM     11  C   UNL     1      -0.227   1.261  22.898  0.00  0.00    +0.057 C 
ATOM     12  C   UNL     1      -1.707   0.932  23.087  0.00  0.00    +0.042 C 
ATOM     13  C   UNL     1      -2.367   2.868  26.361  0.00  0.00    +0.172 C 
ATOM     14  C   UNL     1       0.414   2.500  26.494  0.00  0.00    +0.038 A 
ATOM     15  C   UNL     1      -1.729   2.717  27.765  0.00  0.00    +0.068 C 
ATOM     16  C   UNL     1      -0.242   2.672  27.693  0.00  0.00    -0.016 A 
ATOM     18  C   UNL     1       0.740   2.774  28.715  0.00  0.00    +0.003 A 
ATOM     19  C   UNL     1       1.986   2.679  28.089  0.00  0.00    +0.047 A 
ATOM     25  C   UNL     1       0.695   2.942  30.114  0.00  0.00    +0.010 A 
ATOM     27  C   UNL     1       3.192   2.744  28.797  0.00  0.00    +0.026 A 
ATOM     30  C   UNL     1       1.894   3.006  30.833  0.00  0.00    +0.001 A 
ATOM     33  C   UNL     1       3.122   2.908  30.183  0.00  0.00    +0.002 A 
ATOM     37  H   UNL     1       2.484   2.447  26.038  0.00  0.00    +0.166 HD
ENDROOT
BRANCH   9  17
ATOM      1  F   UNL     1      -4.563   3.784  24.151  0.00  0.00    -0.205 F 
ATOM     17  C   UNL     1      -3.867   1.515  24.159  0.00  0.00    +0.005 A 
ATOM     23  C   UNL     1      -4.872   2.481  24.210  0.00  0.00    +0.128 A 
ATOM     24  C   UNL     1      -4.199   0.161  24.221  0.00  0.00    +0.008 A 
ATOM     31  C   UNL     1      -6.207   2.095  24.323  0.00  0.00    +0.038 A 
ATOM     32  C   UNL     1      -5.534  -0.225  24.334  0.00  0.00    +0.000 A 
ATOM     34  C   UNL     1      -6.538   0.741  24.385  0.00  0.00    +0.003 A 
ENDBRANCH   9  17
BRANCH  13  20
ATOM      4  O   UNL     1      -3.051   5.177  26.484  0.00  0.00    -0.249 OA
ATOM     20  C   UNL     1      -2.388   4.308  25.934  0.00  0.00    +0.325 C 
BRANCH  20   3
ATOM      3  O   UNL     1      -1.564   4.477  24.861  0.00  0.00    -0.467 OA
ATOM     35  C   UNL     1      -0.907   5.746  24.784  0.00  0.00    +0.280 C 
ENDBRANCH  20   3
ENDBRANCH  13  20
BRANCH  11   6
ATOM      6  N   UNL     1       0.430   0.251  22.070  0.00  0.00    -0.311 NA
ATOM     36  H   UNL     1      -0.272  -0.344  21.631  0.00  0.00    +0.122 HD
BRANCH   6  21
ATOM     21  C   UNL     1       1.313  -0.580  22.872  0.00  0.00    +0.112 C 
BRANCH  21  22
ATOM      2  O   UNL     1       3.604  -1.262  23.238  0.00  0.00    -0.375 OA
ATOM     22  C   UNL     1       2.764  -0.367  22.489  0.00  0.00    +0.132 C 
ATOM     26  C   UNL     1       3.270   1.034  22.784  0.00  0.00    +0.035 C 
ATOM     28  C   UNL     1       4.750   0.793  22.943  0.00  0.00    +0.031 C 
ATOM     29  C   UNL     1       4.774  -0.544  23.657  0.00  0.00    +0.160 C 
ENDBRANCH  21  22
ENDBRANCH   6  21
ENDBRANCH  11   6
TORSDOF 6
ENDMDL
MODEL 6
REMARK VINA RESULT:      11.0      3.001      6.234
REMARK  Name = 25389794
REMARK  7 active torsions:
REMARK  status: ('A' for Active; 'I' for Inactive)
REMARK    1  A    between atoms: O_3  and  C_20
REMARK    2  A    between atoms: O_3  and  C_35
REMARK    3  A    between atoms: N_6  and  C_11
REMARK    4  A    between atoms: N_6  and  C_21
REMARK    5  A    between atoms: C_9  and  C_17
REMARK    6  A    between atoms: C_13  and  C_20
REMARK    7  A    between atoms: C_21  and  C_22
REMARK                            x       y       z     vdW  Elec       q    Type
REMARK                         _______ _______ _______ _____ _____    ______ ____
ROOT
ATOM      5  N   UNL     1      -1.286  -0.403  23.879  0.00  0.00    -0.274 NA
ATOM      7  N   UNL     1       1.938   1.495  23.542  0.00  0.00    -0.356 N 
ATOM      8  C   UNL     1      -0.493   0.857  24.028  0.00  0.00    +0.106 C 
ATOM      9  C   UNL     1      -2.729  -0.188  24.156  0.00  0.00    +0.093 C 
ATOM     10  C   UNL     1      -1.029   1.949  23.089  0.00  0.00    +0.044 C 
ATOM     11  C   UNL     1      -2.503   2.230  23.380  0.00  0.00    +0.057 C 
ATOM     12  C   UNL     1      -3.305   0.935  23.260  0.00  0.00    +0.042 C 
ATOM     13  C   UNL     1      -0.678  -1.558  24.598  0.00  0.00    +0.172 C 
ATOM     14  C   UNL     1       0.957   0.572  23.775  0.00  0.00    +0.038 A 
ATOM     15  C   UNL     1       0.740  -1.902  24.076  0.00  0.00    +0.068 C 
ATOM     16  C   UNL     1       1.541  -0.675  23.811  0.00  0.00    -0.016 A 
ATOM     18  C   UNL     1       2.930  -0.511  23.555  0.00  0.00    +0.003 A 
ATOM     19  C   UNL     1       3.151   0.859  23.388  0.00  0.00    +0.047 A 
ATOM     25  C   UNL     1       4.025  -1.393  23.450  0.00  0.00    +0.010 A 
ATOM     27  C   UNL     1       4.418   1.390  23.121  0.00  0.00    +0.026 A 
ATOM     30  C   UNL     1       5.296  -0.874  23.182  0.00  0.00    +0.001 A 
ATOM     33  C   UNL     1       5.488   0.496  23.019  0.00  0.00    +0.002 A 
ATOM     37  H   UNL     1       1.802   2.495  23.486  0.00  0.00    +0.166 HD
ENDROOT
BRANCH   9  17
ATOM      1  F   UNL     1      -5.572  -0.124  24.114  0.00  0.00    -0.205 F 
ATOM     17  C   UNL     1      -3.595  -1.428  23.956  0.00  0.00    +0.005 A 
ATOM     23  C   UNL     1      -4.985  -1.318  23.948  0.00  0.00    +0.128 A 
ATOM     24  C   UNL     1      -2.994  -2.676  23.783  0.00  0.00    +0.008 A 
ATOM     31  C   UNL     1      -5.775  -2.453  23.766  0.00  0.00    +0.038 A 
ATOM     32  C   UNL     1      -3.784  -3.811  23.600  0.00  0.00    +0.000 A 
ATOM     34  C   UNL     1      -5.173  -3.700  23.592  0.00  0.00    +0.003 A 
ENDBRANCH   9  17
BRANCH  13  20
ATOM      4  O   UNL     1       0.252  -1.649  26.820  0.00  0.00    -0.249 OA
ATOM     20  C   UNL     1      -0.658  -1.304  26.079  0.00  0.00    +0.325 C 
BRANCH  20   3
ATOM      3  O   UNL     1      -1.793  -0.642  26.443  0.00  0.00    -0.467 OA
ATOM     35  C   UNL     1      -2.794  -1.443  27.079  0.00  0.00    +0.280 C 
ENDBRANCH  20   3
ENDBRANCH  13  20
BRANCH  11   6
ATOM      6  N   UNL     1      -3.012   3.246  22.461  0.00  0.00    -0.311 NA
ATOM     36  H   UNL     1      -2.290   3.943  22.284  0.00  0.00    +0.122 HD
BRANCH   6  21
ATOM     21  C   UNL     1      -4.177   3.912  23.022  0.00  0.00    +0.112 C 
BRANCH  21  22
ATOM      2  O   UNL     1      -2.459   4.743  24.506  0.00  0.00    -0.375 OA
ATOM     22  C   UNL     1      -3.870   4.497  24.387  0.00  0.00    +0.132 C 
ATOM     26  C   UNL     1      -4.238   3.575  25.537  0.00  0.00    +0.035 C 
ATOM     28  C   UNL     1      -3.294   4.048  26.614  0.00  0.00    +0.031 C 
ATOM     29  C   UNL     1      -2.038   4.347  25.820  0.00  0.00    +0.160 C 
ENDBRANCH  21  22
ENDBRANCH   6  21
ENDBRANCH  11   6
TORSDOF 6
ENDMDL
MODEL 7
REMARK VINA RESULT:      11.2      3.076      6.515
REMARK  Name = 25389794
REMARK  7 active torsions:
REMARK  status: ('A' for Active; 'I' for Inactive)
REMARK    1  A    between atoms: O_3  and  C_20
REMARK    2  A    between atoms: O_3  and  C_35
REMARK    3  A    between atoms: N_6  and  C_11
REMARK    4  A    between atoms: N_6  and  C_21
REMARK    5  A    between atoms: C_9  and  C_17
REMARK    6  A    between atoms: C_13  and  C_20
REMARK    7  A    between atoms: C_21  and  C_22
REMARK                            x       y       z     vdW  Elec       q    Type
REMARK                         _______ _______ _______ _____ _____    ______ ____
ROOT
ATOM      5  N   UNL     1      -2.674   1.099  23.968  0.00  0.00    -0.274 NA
ATOM      7  N   UNL     1       0.347  -0.725  22.682  0.00  0.00    -0.356 N 
ATOM      8  C   UNL     1      -2.061  -0.000  23.159  0.00  0.00    +0.106 C 
ATOM      9  C   UNL     1      -4.152   0.974  24.046  0.00  0.00    +0.093 C 
ATOM     10  C   UNL     1      -2.420  -1.373  23.748  0.00  0.00    +0.044 C 
ATOM     11  C   UNL     1      -3.937  -1.554  23.798  0.00  0.00    +0.057 C 
ATOM     12  C   UNL     1      -4.564  -0.412  24.598  0.00  0.00    +0.042 C 
ATOM     13  C   UNL     1      -2.182   2.449  23.577  0.00  0.00    +0.172 C 
ATOM     14  C   UNL     1      -0.577   0.199  23.082  0.00  0.00    +0.038 A 
ATOM     15  C   UNL     1      -0.652   2.603  23.770  0.00  0.00    +0.068 C 
ATOM     16  C   UNL     1       0.082   1.381  23.338  0.00  0.00    -0.016 A 
ATOM     18  C   UNL     1       1.470   1.161  23.120  0.00  0.00    +0.003 A 
ATOM     19  C   UNL     1       1.608  -0.168  22.711  0.00  0.00    +0.047 A 
ATOM     25  C   UNL     1       2.624   1.962  23.226  0.00  0.00    +0.010 A 
ATOM     27  C   UNL     1       2.850  -0.736  22.402  0.00  0.00    +0.026 A 
ATOM     30  C   UNL     1       3.872   1.405  22.923  0.00  0.00    +0.001 A 
ATOM     33  C   UNL     1       3.981   0.077  22.518  0.00  0.00    +0.002 A 
ATOM     37  H   UNL     1       0.145  -1.677  22.408  0.00  0.00    +0.166 HD
ENDROOT
BRANCH   9  17
ATOM      1  F   UNL     1      -6.972   1.288  24.236  0.00  0.00    -0.205 F 
ATOM     17  C   UNL     1      -4.822   2.034  24.914  0.00  0.00    +0.005 A 
ATOM     23  C   UNL     1      -6.214   2.128  24.956  0.00  0.00    +0.128 A 
ATOM     24  C   UNL     1      -4.043   2.913  25.667  0.00  0.00    +0.008 A 
ATOM     31  C   UNL     1      -6.825   3.098  25.749  0.00  0.00    +0.038 A 
ATOM     32  C   UNL     1      -4.654   3.882  26.461  0.00  0.00    +0.000 A 
ATOM     34  C   UNL     1      -6.045   3.976  26.502  0.00  0.00    +0.003 A 
ENDBRANCH   9  17
BRANCH  13  20
ATOM      4  O   UNL     1      -1.980   2.357  21.177  0.00  0.00    -0.249 OA
ATOM     20  C   UNL     1      -2.578   2.765  22.163  0.00  0.00    +0.325 C 
BRANCH  20   3
ATOM      3  O   UNL     1      -3.688   3.557  22.167  0.00  0.00    -0.467 OA
ATOM     35  C   UNL     1      -3.683   4.616  23.129  0.00  0.00    +0.280 C 
ENDBRANCH  20   3
ENDBRANCH  13  20
BRANCH  11   6
ATOM      6  N   UNL     1      -4.269  -2.849  24.390  0.00  0.00    -0.311 NA
ATOM     36  H   UNL     1      -5.155  -2.781  24.890  0.00  0.00    +0.122 HD
BRANCH   6  21
ATOM     21  C   UNL     1      -3.235  -3.270  25.322  0.00  0.00    +0.112 C 
BRANCH  21  22
ATOM      2  O   UNL     1      -0.832  -3.046  25.188  0.00  0.00    -0.375 OA
ATOM     22  C   UNL     1      -2.062  -2.311  25.309  0.00  0.00    +0.132 C 
ATOM     26  C   UNL     1      -1.939  -1.487  26.579  0.00  0.00    +0.035 C 
ATOM     28  C   UNL     1      -0.465  -1.169  26.590  0.00  0.00    +0.031 C 
ATOM     29  C   UNL     1       0.137  -2.458  26.069  0.00  0.00    +0.160 C 
ENDBRANCH  21  22
ENDBRANCH   6  21
ENDBRANCH  11   6
TORSDOF 6
ENDMDL
