MODEL 1
REMARK VINA RESULT:      -3.1      0.000      0.000
REMARK  Name = 11883280
REMARK  5 active torsions:
REMARK  status: ('A' for Active; 'I' for Inactive)
REMARK    1  A    between atoms: O_3  and  C_12
REMARK    2  A    between atoms: O_3  and  C_16
REMARK    3  A    between atoms: N_6  and  C_11
REMARK    4  A    between atoms: N_7  and  C_18
REMARK    5  A    between atoms: C_16  and  C_17
REMARK                            x       y       z     vdW  Elec       q    Type
REMARK                         _______ _______ _______ _____ _____    ______ ____
ROOT
ATOM      4  O   UNL     1      11.620  -6.257  30.838  0.00  0.00    -0.252 OA
ATOM      6  N   UNL     1      13.098  -7.668  31.919  0.00  0.00    -0.292 N 
ATOM      7  N   UNL     1      10.849  -7.909  32.316  0.00  0.00    -0.269 N 
ATOM     15  C   UNL     1      11.818  -7.187  31.616  0.00  0.00    +0.304 C 
ATOM     28  H   UNL     1      13.175  -8.486  32.515  0.00  0.00    +0.151 HD
ATOM     29  H   UNL     1      11.217  -8.504  33.050  0.00  0.00    +0.156 HD
ENDROOT
BRANCH   7  18
ATOM     18  C   UNL     1       9.445  -7.734  32.286  0.00  0.00    +0.042 A 
ATOM     19  C   UNL     1       8.609  -8.680  31.691  0.00  0.00    +0.003 A 
ATOM     20  C   UNL     1       8.941  -6.581  32.873  0.00  0.00    +0.024 A 
ATOM     21  C   UNL     1       7.211  -8.451  31.691  0.00  0.00    -0.016 A 
ATOM     22  C   UNL     1       9.112  -9.848  31.096  0.00  0.00    +0.010 A 
ATOM     23  C   UNL     1       7.568  -6.355  32.873  0.00  0.00    +0.002 A 
ATOM     24  C   UNL     1       6.708  -7.283  32.287  0.00  0.00    +0.008 A 
ATOM     25  C   UNL     1       6.360  -9.395  31.095  0.00  0.00    +0.008 A 
ATOM     26  C   UNL     1       8.251 -10.776  30.508  0.00  0.00    +0.001 A 
ATOM     27  C   UNL     1       6.878 -10.550  30.508  0.00  0.00    +0.001 A 
ENDBRANCH   7  18
BRANCH   6  11
ATOM      1  O   UNL     1      15.632  -8.946  30.605  0.00  0.00    -0.369 OA
ATOM      2  O   UNL     1      15.196  -6.212  29.288  0.00  0.00    -0.369 OA
ATOM      9  C   UNL     1      14.265  -7.167  29.837  0.00  0.00    +0.172 C 
ATOM     10  C   UNL     1      14.801  -8.545  29.503  0.00  0.00    +0.180 C 
ATOM     11  C   UNL     1      14.304  -7.120  31.347  0.00  0.00    +0.131 C 
ATOM     12  C   UNL     1      15.611  -8.285  28.255  0.00  0.00    +0.176 C 
ATOM     13  C   UNL     1      15.510  -7.986  31.666  0.00  0.00    +0.185 C 
ATOM     14  C   UNL     1      16.191  -6.916  28.530  0.00  0.00    +0.194 C 
BRANCH  12   3
ATOM      3  O   UNL     1      16.614  -9.249  28.026  0.00  0.00    -0.362 OA
BRANCH   3  16
ATOM     16  C   UNL     1      16.168 -10.288  27.157  0.00  0.00    +0.255 C 
BRANCH  16  17
ATOM      5  O   UNL     1      16.669  -8.996  25.177  0.00  0.00    -0.274 OA
ATOM      8  N   UNL     1      14.649 -10.091  25.308  0.00  0.00    -0.327 N 
ATOM     17  C   UNL     1      15.885  -9.715  25.789  0.00  0.00    +0.236 C 
ATOM     30  H   UNL     1      14.020 -10.688  25.836  0.00  0.00    +0.145 HD
ATOM     31  H   UNL     1      14.327  -9.779  24.398  0.00  0.00    +0.145 HD
ENDBRANCH  16  17
ENDBRANCH   3  16
ENDBRANCH  12   3
ENDBRANCH   6  11
TORSDOF 5
ENDMDL
MODEL 2
REMARK VINA RESULT:      -2.8      1.578      2.616
REMARK  Name = 11883280
REMARK  5 active torsions:
REMARK  status: ('A' for Active; 'I' for Inactive)
REMARK    1  A    between atoms: O_3  and  C_12
REMARK    2  A    between atoms: O_3  and  C_16
REMARK    3  A    between atoms: N_6  and  C_11
REMARK    4  A    between atoms: N_7  and  C_18
REMARK    5  A    between atoms: C_16  and  C_17
REMARK                            x       y       z     vdW  Elec       q    Type
REMARK                         _______ _______ _______ _____ _____    ______ ____
ROOT
ATOM      4  O   UNL     1      11.940  -7.309  30.592  0.00  0.00    -0.252 OA
ATOM      6  N   UNL     1      12.698  -6.404  32.580  0.00  0.00    -0.292 N 
ATOM      7  N   UNL     1      10.859  -7.780  32.622  0.00  0.00    -0.269 N 
ATOM     15  C   UNL     1      11.829  -7.187  31.809  0.00  0.00    +0.304 C 
ATOM     28  H   UNL     1      12.586  -6.412  33.589  0.00  0.00    +0.151 HD
ATOM     29  H   UNL     1      10.816  -7.408  33.564  0.00  0.00    +0.156 HD
ENDROOT
BRANCH   7  18
ATOM     18  C   UNL     1       9.805  -8.638  32.230  0.00  0.00    +0.042 A 
ATOM     19  C   UNL     1       8.471  -8.235  32.319  0.00  0.00    +0.003 A 
ATOM     20  C   UNL     1      10.158  -9.894  31.756  0.00  0.00    +0.024 A 
ATOM     21  C   UNL     1       7.458  -9.137  31.912  0.00  0.00    -0.016 A 
ATOM     22  C   UNL     1       8.107  -6.965  32.796  0.00  0.00    +0.010 A 
ATOM     23  C   UNL     1       9.163 -10.781  31.357  0.00  0.00    +0.002 A 
ATOM     24  C   UNL     1       7.822 -10.406  31.433  0.00  0.00    +0.008 A 
ATOM     25  C   UNL     1       6.113  -8.743  31.996  0.00  0.00    +0.008 A 
ATOM     26  C   UNL     1       6.765  -6.591  32.873  0.00  0.00    +0.001 A 
ATOM     27  C   UNL     1       5.770  -7.478  32.474  0.00  0.00    +0.001 A 
ENDBRANCH   7  18
BRANCH   6  11
ATOM      1  O   UNL     1      15.727  -7.058  32.155  0.00  0.00    -0.369 OA
ATOM      2  O   UNL     1      14.878  -5.149  29.911  0.00  0.00    -0.369 OA
ATOM      9  C   UNL     1      14.146  -6.162  30.632  0.00  0.00    +0.172 C 
ATOM     10  C   UNL     1      15.109  -7.306  30.882  0.00  0.00    +0.180 C 
ATOM     11  C   UNL     1      13.805  -5.667  32.019  0.00  0.00    +0.131 C 
ATOM     12  C   UNL     1      16.091  -7.159  29.744  0.00  0.00    +0.176 C 
ATOM     13  C   UNL     1      15.090  -5.935  32.782  0.00  0.00    +0.185 C 
ATOM     14  C   UNL     1      16.182  -5.657  29.592  0.00  0.00    +0.194 C 
BRANCH  12   3
ATOM      3  O   UNL     1      17.347  -7.742  30.006  0.00  0.00    -0.362 OA
BRANCH   3  16
ATOM     16  C   UNL     1      17.360  -9.137  29.711  0.00  0.00    +0.255 C 
BRANCH  16  17
ATOM      5  O   UNL     1      15.611  -9.969  28.266  0.00  0.00    -0.274 OA
ATOM      8  N   UNL     1      17.393  -8.858  27.327  0.00  0.00    -0.327 N 
ATOM     17  C   UNL     1      16.679  -9.378  28.385  0.00  0.00    +0.236 C 
ATOM     30  H   UNL     1      18.275  -8.372  27.453  0.00  0.00    +0.145 HD
ATOM     31  H   UNL     1      17.053  -8.946  26.375  0.00  0.00    +0.145 HD
ENDBRANCH  16  17
ENDBRANCH   3  16
ENDBRANCH  12   3
ENDBRANCH   6  11
TORSDOF 5
ENDMDL
MODEL 3
REMARK VINA RESULT:      -1.6      1.890      2.590
REMARK  Name = 11883280
REMARK  5 active torsions:
REMARK  status: ('A' for Active; 'I' for Inactive)
REMARK    1  A    between atoms: O_3  and  C_12
REMARK    2  A    between atoms: O_3  and  C_16
REMARK    3  A    between atoms: N_6  and  C_11
REMARK    4  A    between atoms: N_7  and  C_18
REMARK    5  A    between atoms: C_16  and  C_17
REMARK                            x       y       z     vdW  Elec       q    Type
REMARK                         _______ _______ _______ _____ _____    ______ ____
ROOT
ATOM      4  O   UNL     1      13.706  -6.634  29.865  0.00  0.00    -0.252 OA
ATOM      6  N   UNL     1      15.571  -6.420  31.213  0.00  0.00    -0.292 N 
ATOM      7  N   UNL     1      13.504  -6.591  32.202  0.00  0.00    -0.269 N 
ATOM     15  C   UNL     1      14.195  -6.557  30.988  0.00  0.00    +0.304 C 
ATOM     28  H   UNL     1      15.905  -6.437  32.172  0.00  0.00    +0.151 HD
ATOM     29  H   UNL     1      14.058  -6.321  33.008  0.00  0.00    +0.156 HD
ENDROOT
BRANCH   7  18
ATOM     18  C   UNL     1      12.110  -6.718  32.405  0.00  0.00    +0.042 A 
ATOM     19  C   UNL     1      11.479  -7.962  32.343  0.00  0.00    +0.003 A 
ATOM     20  C   UNL     1      11.402  -5.552  32.666  0.00  0.00    +0.024 A 
ATOM     21  C   UNL     1      10.080  -8.028  32.555  0.00  0.00    -0.016 A 
ATOM     22  C   UNL     1      12.189  -9.144  32.081  0.00  0.00    +0.010 A 
ATOM     23  C   UNL     1      10.028  -5.617  32.873  0.00  0.00    +0.002 A 
ATOM     24  C   UNL     1       9.370  -6.845  32.819  0.00  0.00    +0.008 A 
ATOM     25  C   UNL     1       9.434  -9.273  32.495  0.00  0.00    +0.008 A 
ATOM     26  C   UNL     1      11.530 -10.373  32.025  0.00  0.00    +0.001 A 
ATOM     27  C   UNL     1      10.156 -10.438  32.232  0.00  0.00    +0.001 A 
ENDBRANCH   7  18
BRANCH   6  11
ATOM      1  O   UNL     1      16.713  -8.533  29.210  0.00  0.00    -0.369 OA
ATOM      2  O   UNL     1      16.767  -5.810  27.801  0.00  0.00    -0.369 OA
ATOM      9  C   UNL     1      15.873  -6.355  28.794  0.00  0.00    +0.172 C 
ATOM     10  C   UNL     1      15.702  -7.826  28.473  0.00  0.00    +0.180 C 
ATOM     11  C   UNL     1      16.543  -6.356  30.149  0.00  0.00    +0.131 C 
ATOM     12  C   UNL     1      15.962  -7.866  26.985  0.00  0.00    +0.176 C 
ATOM     13  C   UNL     1      17.384  -7.620  30.092  0.00  0.00    +0.185 C 
ATOM     14  C   UNL     1      17.044  -6.822  26.822  0.00  0.00    +0.194 C 
BRANCH  12   3
ATOM      3  O   UNL     1      16.372  -9.132  26.520  0.00  0.00    -0.362 OA
BRANCH   3  16
ATOM     16  C   UNL     1      15.983  -9.355  25.167  0.00  0.00    +0.255 C 
BRANCH  16  17
ATOM      5  O   UNL     1      14.215 -10.698  26.122  0.00  0.00    -0.274 OA
ATOM      8  N   UNL     1      14.570 -10.781  23.850  0.00  0.00    -0.327 N 
ATOM     17  C   UNL     1      14.837 -10.338  25.128  0.00  0.00    +0.236 C 
ATOM     30  H   UNL     1      15.101 -10.466  23.045  0.00  0.00    +0.145 HD
ATOM     31  H   UNL     1      13.824 -11.445  23.674  0.00  0.00    +0.145 HD
ENDBRANCH  16  17
ENDBRANCH   3  16
ENDBRANCH  12   3
ENDBRANCH   6  11
TORSDOF 5
ENDMDL
MODEL 4
REMARK VINA RESULT:      -1.4      2.420      3.851
REMARK  Name = 11883280
REMARK  5 active torsions:
REMARK  status: ('A' for Active; 'I' for Inactive)
REMARK    1  A    between atoms: O_3  and  C_12
REMARK    2  A    between atoms: O_3  and  C_16
REMARK    3  A    between atoms: N_6  and  C_11
REMARK    4  A    between atoms: N_7  and  C_18
REMARK    5  A    between atoms: C_16  and  C_17
REMARK                            x       y       z     vdW  Elec       q    Type
REMARK                         _______ _______ _______ _____ _____    ______ ____
ROOT
ATOM      4  O   UNL     1      13.876  -7.757  29.944  0.00  0.00    -0.252 OA
ATOM      6  N   UNL     1      15.639  -9.044  30.702  0.00  0.00    -0.292 N 
ATOM      7  N   UNL     1      13.511  -9.566  31.393  0.00  0.00    -0.269 N 
ATOM     15  C   UNL     1      14.285  -8.698  30.617  0.00  0.00    +0.304 C 
ATOM     28  H   UNL     1      15.890  -9.880  31.221  0.00  0.00    +0.151 HD
ATOM     29  H   UNL     1      14.045 -10.154  32.024  0.00  0.00    +0.156 HD
ENDROOT
BRANCH   7  18
ATOM     18  C   UNL     1      12.108  -9.553  31.573  0.00  0.00    +0.042 A 
ATOM     19  C   UNL     1      11.443  -8.404  32.006  0.00  0.00    +0.003 A 
ATOM     20  C   UNL     1      11.427 -10.732  31.301  0.00  0.00    +0.024 A 
ATOM     21  C   UNL     1      10.037  -8.451  32.168  0.00  0.00    -0.016 A 
ATOM     22  C   UNL     1      12.126  -7.209  32.282  0.00  0.00    +0.010 A 
ATOM     23  C   UNL     1      10.046 -10.778  31.460  0.00  0.00    +0.002 A 
ATOM     24  C   UNL     1       9.354  -9.647  31.891  0.00  0.00    +0.008 A 
ATOM     25  C   UNL     1       9.357  -7.302  32.603  0.00  0.00    +0.008 A 
ATOM     26  C   UNL     1      11.433  -6.077  32.714  0.00  0.00    +0.001 A 
ATOM     27  C   UNL     1      10.052  -6.123  32.873  0.00  0.00    +0.001 A 
ENDBRANCH   7  18
BRANCH   6  11
ATOM      1  O   UNL     1      16.437  -8.791  27.688  0.00  0.00    -0.369 OA
ATOM      2  O   UNL     1      17.206  -6.162  29.066  0.00  0.00    -0.369 OA
ATOM      9  C   UNL     1      16.139  -7.097  29.321  0.00  0.00    +0.172 C 
ATOM     10  C   UNL     1      15.670  -7.609  27.974  0.00  0.00    +0.180 C 
ATOM     11  C   UNL     1      16.682  -8.329  30.007  0.00  0.00    +0.131 C 
ATOM     12  C   UNL     1      16.032  -6.470  27.050  0.00  0.00    +0.176 C 
ATOM     13  C   UNL     1      17.222  -9.137  28.840  0.00  0.00    +0.185 C 
ATOM     14  C   UNL     1      17.328  -5.973  27.648  0.00  0.00    +0.194 C 
BRANCH  12   3
ATOM      3  O   UNL     1      16.185  -6.864  25.705  0.00  0.00    -0.362 OA
BRANCH   3  16
ATOM     16  C   UNL     1      17.405  -6.385  25.145  0.00  0.00    +0.255 C 
BRANCH  16  17
ATOM      5  O   UNL     1      16.854  -4.090  24.627  0.00  0.00    -0.274 OA
ATOM      8  N   UNL     1      17.183  -5.571  22.897  0.00  0.00    -0.327 N 
ATOM     17  C   UNL     1      17.116  -5.220  24.228  0.00  0.00    +0.236 C 
ATOM     30  H   UNL     1      17.403  -6.515  22.595  0.00  0.00    +0.145 HD
ATOM     31  H   UNL     1      17.011  -4.887  22.168  0.00  0.00    +0.145 HD
ENDBRANCH  16  17
ENDBRANCH   3  16
ENDBRANCH  12   3
ENDBRANCH   6  11
TORSDOF 5
ENDMDL
MODEL 5
REMARK VINA RESULT:      -0.7      4.159      6.800
REMARK  Name = 11883280
REMARK  5 active torsions:
REMARK  status: ('A' for Active; 'I' for Inactive)
REMARK    1  A    between atoms: O_3  and  C_12
REMARK    2  A    between atoms: O_3  and  C_16
REMARK    3  A    between atoms: N_6  and  C_11
REMARK    4  A    between atoms: N_7  and  C_18
REMARK    5  A    between atoms: C_16  and  C_17
REMARK                            x       y       z     vdW  Elec       q    Type
REMARK                         _______ _______ _______ _____ _____    ______ ____
ROOT
ATOM      4  O   UNL     1      14.876  -7.638  28.088  0.00  0.00    -0.252 OA
ATOM      6  N   UNL     1      16.587  -8.370  26.718  0.00  0.00    -0.292 N 
ATOM      7  N   UNL     1      16.482  -9.158  28.873  0.00  0.00    -0.269 N 
ATOM     15  C   UNL     1      15.880  -8.326  27.926  0.00  0.00    +0.304 C 
ATOM     28  H   UNL     1      17.365  -9.019  26.640  0.00  0.00    +0.151 HD
ATOM     29  H   UNL     1      17.404  -9.490  28.615  0.00  0.00    +0.156 HD
ENDROOT
BRANCH   7  18
ATOM     18  C   UNL     1      16.075  -9.390  30.208  0.00  0.00    +0.042 A 
ATOM     19  C   UNL     1      14.792  -9.851  30.506  0.00  0.00    +0.003 A 
ATOM     20  C   UNL     1      17.010  -9.137  31.204  0.00  0.00    +0.024 A 
ATOM     21  C   UNL     1      14.442 -10.066  31.861  0.00  0.00    -0.016 A 
ATOM     22  C   UNL     1      13.843 -10.109  29.504  0.00  0.00    +0.010 A 
ATOM     23  C   UNL     1      16.666  -9.347  32.536  0.00  0.00    +0.002 A 
ATOM     24  C   UNL     1      15.391  -9.809  32.864  0.00  0.00    +0.008 A 
ATOM     25  C   UNL     1      13.154 -10.529  32.173  0.00  0.00    +0.008 A 
ATOM     26  C   UNL     1      12.567 -10.570  29.832  0.00  0.00    +0.001 A 
ATOM     27  C   UNL     1      12.223 -10.780  31.164  0.00  0.00    +0.001 A 
ENDBRANCH   7  18
BRANCH   6  11
ATOM      1  O   UNL     1      15.653  -5.419  26.274  0.00  0.00    -0.369 OA
ATOM      2  O   UNL     1      17.134  -6.304  23.739  0.00  0.00    -0.369 OA
ATOM      9  C   UNL     1      17.306  -6.671  25.123  0.00  0.00    +0.172 C 
ATOM     10  C   UNL     1      17.052  -5.423  25.944  0.00  0.00    +0.180 C 
ATOM     11  C   UNL     1      16.205  -7.614  25.550  0.00  0.00    +0.131 C 
ATOM     12  C   UNL     1      17.403  -4.319  24.974  0.00  0.00    +0.176 C 
ATOM     13  C   UNL     1      15.064  -6.660  25.859  0.00  0.00    +0.185 C 
ATOM     14  C   UNL     1      16.923  -4.887  23.658  0.00  0.00    +0.194 C 
BRANCH  12   3
ATOM      3  O   UNL     1      16.786  -3.088  25.277  0.00  0.00    -0.362 OA
BRANCH   3  16
ATOM     16  C   UNL     1      15.950  -2.635  24.215  0.00  0.00    +0.255 C 
BRANCH  16  17
ATOM      5  O   UNL     1      16.990  -2.080  22.106  0.00  0.00    -0.274 OA
ATOM      8  N   UNL     1      17.192  -0.611  23.865  0.00  0.00    -0.327 N 
ATOM     17  C   UNL     1      16.755  -1.775  23.270  0.00  0.00    +0.236 C 
ATOM     30  H   UNL     1      16.983  -0.383  24.831  0.00  0.00    +0.145 HD
ATOM     31  H   UNL     1      17.746   0.063  23.346  0.00  0.00    +0.145 HD
ENDBRANCH  16  17
ENDBRANCH   3  16
ENDBRANCH  12   3
ENDBRANCH   6  11
TORSDOF 5
ENDMDL
