MODEL 1
REMARK VINA RESULT:      -3.6      0.000      0.000
REMARK  Name = 11912136
REMARK  7 active torsions:
REMARK  status: ('A' for Active; 'I' for Inactive)
REMARK    1  A    between atoms: S_1  and  N_6
REMARK    2  A    between atoms: S_1  and  C_24
REMARK    3  A    between atoms: N_7  and  C_17
REMARK    4  A    between atoms: C_10  and  C_13
REMARK    5  A    between atoms: C_13  and  C_17
REMARK    6  A    between atoms: C_17  and  C_23
REMARK    7  A    between atoms: C_18  and  C_21
REMARK                            x       y       z     vdW  Elec       q    Type
REMARK                         _______ _______ _______ _____ _____    ______ ____
ROOT
ATOM      2  O   UNL     1      14.873  -6.658  28.254  0.00  0.00    -0.274 OA
ATOM      7  N   UNL     1      16.922  -6.701  27.150  0.00  0.00    -0.303 N 
ATOM     21  C   UNL     1      16.096  -6.538  28.248  0.00  0.00    +0.234 C 
ATOM     30  H   UNL     1      17.927  -6.614  27.261  0.00  0.00    +0.149 HD
ENDROOT
BRANCH  21  18
ATOM      6  N   UNL     1      16.466  -7.173  30.562  0.00  0.00    -0.162 NA
ATOM      8  N   UNL     1      17.131  -4.434  31.185  0.00  0.00    -0.313 NA
ATOM     18  C   UNL     1      16.860  -6.213  29.487  0.00  0.00    +0.179 C 
ATOM     19  C   UNL     1      16.510  -4.783  29.908  0.00  0.00    +0.111 C 
ATOM     20  C   UNL     1      17.073  -6.794  31.877  0.00  0.00    +0.125 C 
ATOM     22  C   UNL     1      16.698  -5.360  32.231  0.00  0.00    +0.098 C 
ATOM     31  H   UNL     1      16.863  -3.485  31.442  0.00  0.00    +0.122 HD
BRANCH   6   1
ATOM      1  S   UNL     1      16.599  -8.852  30.197  0.00  0.00    +0.062 S 
ATOM      3  O   UNL     1      17.361  -9.493  31.242  0.00  0.00    -0.153 OA
ATOM      4  O   UNL     1      16.963  -8.992  28.806  0.00  0.00    -0.153 OA
BRANCH   1  24
ATOM     24  C   UNL     1      14.913  -9.331  30.376  0.00  0.00    +0.106 A 
ATOM     25  C   UNL     1      14.376 -10.320  29.551  0.00  0.00    +0.028 A 
ATOM     26  C   UNL     1      14.113  -8.722  31.344  0.00  0.00    +0.028 A 
ATOM     27  C   UNL     1      13.041 -10.699  29.692  0.00  0.00    +0.002 A 
ATOM     28  C   UNL     1      12.778  -9.101  31.485  0.00  0.00    +0.002 A 
ATOM     29  C   UNL     1      12.242 -10.089  30.660  0.00  0.00    +0.000 A 
ENDBRANCH   1  24
ENDBRANCH   6   1
ENDBRANCH  21  18
BRANCH   7  17
ATOM     17  C   UNL     1      16.431  -7.043  25.834  0.00  0.00    +0.159 C 
BRANCH  17  23
ATOM      5  O   UNL     1      14.960  -8.977  25.778  0.00  0.00    -0.274 OA
ATOM      9  N   UNL     1      17.229  -9.328  25.850  0.00  0.00    -0.328 N 
ATOM     23  C   UNL     1      16.105  -8.531  25.806  0.00  0.00    +0.231 C 
ATOM     32  H   UNL     1      17.150 -10.339  25.846  0.00  0.00    +0.145 HD
ATOM     33  H   UNL     1      18.169  -8.946  25.893  0.00  0.00    +0.145 HD
ENDBRANCH  17  23
BRANCH  17  13
ATOM     13  C   UNL     1      17.404  -6.628  24.727  0.00  0.00    +0.035 C 
BRANCH  13  10
ATOM     10  C   UNL     1      17.405  -5.130  24.423  0.00  0.00    -0.009 C 
ATOM     11  C   UNL     1      16.279  -4.422  25.188  0.00  0.00    +0.003 C 
ATOM     12  C   UNL     1      17.281  -4.883  22.914  0.00  0.00    +0.003 C 
ATOM     14  C   UNL     1      16.227  -2.931  24.859  0.00  0.00    +0.000 C 
ATOM     15  C   UNL     1      17.227  -3.392  22.590  0.00  0.00    +0.000 C 
ATOM     16  C   UNL     1      16.113  -2.689  23.358  0.00  0.00    +0.000 C 
ENDBRANCH  13  10
ENDBRANCH  17  13
ENDBRANCH   7  17
TORSDOF 7
ENDMDL
MODEL 2
REMARK VINA RESULT:      -1.0     18.178     19.686
REMARK  Name = 11912136
REMARK  7 active torsions:
REMARK  status: ('A' for Active; 'I' for Inactive)
REMARK    1  A    between atoms: S_1  and  N_6
REMARK    2  A    between atoms: S_1  and  C_24
REMARK    3  A    between atoms: N_7  and  C_17
REMARK    4  A    between atoms: C_10  and  C_13
REMARK    5  A    between atoms: C_13  and  C_17
REMARK    6  A    between atoms: C_17  and  C_23
REMARK    7  A    between atoms: C_18  and  C_21
REMARK                            x       y       z     vdW  Elec       q    Type
REMARK                         _______ _______ _______ _____ _____    ______ ____
ROOT
ATOM      2  O   UNL     1      -0.326  -1.009  25.512  0.00  0.00    -0.274 OA
ATOM      7  N   UNL     1       0.007  -0.073  23.407  0.00  0.00    -0.303 N 
ATOM     21  C   UNL     1      -0.685  -0.807  24.355  0.00  0.00    +0.234 C 
ATOM     30  H   UNL     1      -0.396   0.064  22.486  0.00  0.00    +0.149 HD
ENDROOT
BRANCH  21  18
ATOM      6  N   UNL     1      -3.078  -0.411  24.237  0.00  0.00    -0.162 NA
ATOM      8  N   UNL     1      -3.517  -3.258  24.048  0.00  0.00    -0.313 NA
ATOM     18  C   UNL     1      -1.977  -1.335  23.827  0.00  0.00    +0.179 C 
ATOM     19  C   UNL     1      -2.209  -2.724  24.426  0.00  0.00    +0.111 C 
ATOM     20  C   UNL     1      -4.418  -0.975  23.882  0.00  0.00    +0.125 C 
ATOM     22  C   UNL     1      -4.581  -2.360  24.497  0.00  0.00    +0.098 C 
ATOM     31  H   UNL     1      -3.645  -4.173  24.478  0.00  0.00    +0.122 HD
BRANCH   6   1
ATOM      1  S   UNL     1      -2.895   1.252  23.824  0.00  0.00    +0.062 S 
ATOM      3  O   UNL     1      -3.137   1.406  22.409  0.00  0.00    -0.153 OA
ATOM      4  O   UNL     1      -1.686   1.748  24.440  0.00  0.00    -0.153 OA
BRANCH   1  24
ATOM     24  C   UNL     1      -4.272   1.928  24.692  0.00  0.00    +0.106 A 
ATOM     25  C   UNL     1      -5.223   1.081  25.261  0.00  0.00    +0.028 A 
ATOM     26  C   UNL     1      -4.413   3.312  24.808  0.00  0.00    +0.028 A 
ATOM     27  C   UNL     1      -6.313   1.616  25.947  0.00  0.00    +0.002 A 
ATOM     28  C   UNL     1      -5.504   3.846  25.493  0.00  0.00    +0.002 A 
ATOM     29  C   UNL     1      -6.454   2.999  26.063  0.00  0.00    +0.000 A 
ENDBRANCH   1  24
ENDBRANCH   6   1
ENDBRANCH  21  18
BRANCH   7  17
ATOM     17  C   UNL     1       1.277   0.566  23.674  0.00  0.00    +0.159 C 
BRANCH  17  23
ATOM      5  O   UNL     1       0.983   2.975  23.545  0.00  0.00    -0.274 OA
ATOM      9  N   UNL     1       0.850   1.963  25.603  0.00  0.00    -0.328 N 
ATOM     23  C   UNL     1       1.015   1.958  24.234  0.00  0.00    +0.231 C 
ATOM     32  H   UNL     1       0.678   2.829  26.102  0.00  0.00    +0.145 HD
ATOM     33  H   UNL     1       0.899   1.117  26.164  0.00  0.00    +0.145 HD
ENDBRANCH  17  23
BRANCH  17  13
ATOM     13  C   UNL     1       2.186   0.583  22.442  0.00  0.00    +0.035 C 
BRANCH  13  10
ATOM     10  C   UNL     1       3.553  -0.063  22.662  0.00  0.00    -0.009 C 
ATOM     11  C   UNL     1       3.442  -1.245  23.634  0.00  0.00    +0.003 C 
ATOM     12  C   UNL     1       4.566   0.971  23.172  0.00  0.00    +0.003 C 
ATOM     14  C   UNL     1       4.805  -1.875  23.912  0.00  0.00    +0.000 C 
ATOM     15  C   UNL     1       5.926   0.337  23.451  0.00  0.00    +0.000 C 
ATOM     16  C   UNL     1       5.811  -0.844  24.410  0.00  0.00    +0.000 C 
ENDBRANCH  13  10
ENDBRANCH  17  13
ENDBRANCH   7  17
TORSDOF 7
ENDMDL
MODEL 3
REMARK VINA RESULT:      -0.7     19.096     20.987
REMARK  Name = 11912136
REMARK  7 active torsions:
REMARK  status: ('A' for Active; 'I' for Inactive)
REMARK    1  A    between atoms: S_1  and  N_6
REMARK    2  A    between atoms: S_1  and  C_24
REMARK    3  A    between atoms: N_7  and  C_17
REMARK    4  A    between atoms: C_10  and  C_13
REMARK    5  A    between atoms: C_13  and  C_17
REMARK    6  A    between atoms: C_17  and  C_23
REMARK    7  A    between atoms: C_18  and  C_21
REMARK                            x       y       z     vdW  Elec       q    Type
REMARK                         _______ _______ _______ _____ _____    ______ ____
ROOT
ATOM      2  O   UNL     1      -3.399   2.287  22.607  0.00  0.00    -0.274 OA
ATOM      7  N   UNL     1      -3.636   2.322  24.921  0.00  0.00    -0.303 N 
ATOM     21  C   UNL     1      -2.950   2.489  23.731  0.00  0.00    +0.234 C 
ATOM     30  H   UNL     1      -3.181   2.552  25.800  0.00  0.00    +0.149 HD
ENDROOT
BRANCH  21  18
ATOM      6  N   UNL     1      -0.839   2.023  24.837  0.00  0.00    -0.162 NA
ATOM      8  N   UNL     1      -0.304   4.857  24.962  0.00  0.00    -0.313 NA
ATOM     18  C   UNL     1      -1.558   2.983  23.946  0.00  0.00    +0.179 C 
ATOM     19  C   UNL     1      -1.633   4.359  24.610  0.00  0.00    +0.111 C 
ATOM     20  C   UNL     1       0.508   2.550  25.226  0.00  0.00    +0.125 C 
ATOM     22  C   UNL     1       0.365   3.924  25.869  0.00  0.00    +0.098 C 
ATOM     31  H   UNL     1      -0.393   5.765  25.417  0.00  0.00    +0.122 HD
BRANCH   6   1
ATOM      1  S   UNL     1      -0.821   0.369  24.353  0.00  0.00    +0.062 S 
ATOM      3  O   UNL     1      -1.926   0.141  23.451  0.00  0.00    -0.153 OA
ATOM      4  O   UNL     1      -0.624  -0.451  25.525  0.00  0.00    -0.153 OA
BRANCH   1  24
ATOM     24  C   UNL     1       0.668   0.350  23.409  0.00  0.00    +0.106 A 
ATOM     25  C   UNL     1       1.755   1.129  23.806  0.00  0.00    +0.028 A 
ATOM     26  C   UNL     1       0.758  -0.442  22.265  0.00  0.00    +0.028 A 
ATOM     27  C   UNL     1       2.933   1.114  23.059  0.00  0.00    +0.002 A 
ATOM     28  C   UNL     1       1.936  -0.457  21.518  0.00  0.00    +0.002 A 
ATOM     29  C   UNL     1       3.024   0.321  21.914  0.00  0.00    +0.000 A 
ENDBRANCH   1  24
ENDBRANCH   6   1
ENDBRANCH  21  18
BRANCH   7  17
ATOM     17  C   UNL     1      -5.010   1.875  24.987  0.00  0.00    +0.159 C 
BRANCH  17  23
ATOM      5  O   UNL     1      -5.809   4.128  25.425  0.00  0.00    -0.274 OA
ATOM      9  N   UNL     1      -6.584   2.414  26.744  0.00  0.00    -0.328 N 
ATOM     23  C   UNL     1      -5.833   2.932  25.711  0.00  0.00    +0.231 C 
ATOM     32  H   UNL     1      -7.171   3.015  27.312  0.00  0.00    +0.145 HD
ATOM     33  H   UNL     1      -6.579   1.426  26.982  0.00  0.00    +0.145 HD
ENDBRANCH  17  23
BRANCH  17  13
ATOM     13  C   UNL     1      -5.137   0.487  25.620  0.00  0.00    +0.035 C 
BRANCH  13  10
ATOM     10  C   UNL     1      -4.182  -0.556  25.041  0.00  0.00    -0.009 C 
ATOM     11  C   UNL     1      -4.879  -1.384  23.953  0.00  0.00    +0.003 C 
ATOM     12  C   UNL     1      -3.634  -1.464  26.151  0.00  0.00    +0.003 C 
ATOM     14  C   UNL     1      -3.961  -2.469  23.397  0.00  0.00    +0.000 C 
ATOM     15  C   UNL     1      -2.718  -2.549  25.590  0.00  0.00    +0.000 C 
ATOM     16  C   UNL     1      -3.411  -3.363  24.502  0.00  0.00    +0.000 C 
ENDBRANCH  13  10
ENDBRANCH  17  13
ENDBRANCH   7  17
TORSDOF 7
ENDMDL
MODEL 4
REMARK VINA RESULT:      -0.6     19.134     20.856
REMARK  Name = 11912136
REMARK  7 active torsions:
REMARK  status: ('A' for Active; 'I' for Inactive)
REMARK    1  A    between atoms: S_1  and  N_6
REMARK    2  A    between atoms: S_1  and  C_24
REMARK    3  A    between atoms: N_7  and  C_17
REMARK    4  A    between atoms: C_10  and  C_13
REMARK    5  A    between atoms: C_13  and  C_17
REMARK    6  A    between atoms: C_17  and  C_23
REMARK    7  A    between atoms: C_18  and  C_21
REMARK                            x       y       z     vdW  Elec       q    Type
REMARK                         _______ _______ _______ _____ _____    ______ ____
ROOT
ATOM      2  O   UNL     1      -1.872   1.128  23.166  0.00  0.00    -0.274 OA
ATOM      7  N   UNL     1      -1.892  -0.715  24.586  0.00  0.00    -0.303 N 
ATOM     21  C   UNL     1      -1.290   0.266  23.819  0.00  0.00    +0.234 C 
ATOM     30  H   UNL     1      -1.317  -1.361  25.118  0.00  0.00    +0.149 HD
ENDROOT
BRANCH  21  18
ATOM      6  N   UNL     1       0.720   1.480  24.439  0.00  0.00    -0.162 NA
ATOM      8  N   UNL     1       2.190   0.032  22.420  0.00  0.00    -0.313 NA
ATOM     18  C   UNL     1       0.199   0.196  23.879  0.00  0.00    +0.179 C 
ATOM     19  C   UNL     1       0.729  -0.009  22.458  0.00  0.00    +0.111 C 
ATOM     20  C   UNL     1       2.214   1.536  24.367  0.00  0.00    +0.125 C 
ATOM     22  C   UNL     1       2.676   1.314  22.932  0.00  0.00    +0.098 C 
ATOM     31  H   UNL     1       2.507  -0.089  21.459  0.00  0.00    +0.122 HD
BRANCH   6   1
ATOM      1  S   UNL     1       0.080   1.986  25.957  0.00  0.00    +0.062 S 
ATOM      3  O   UNL     1       1.178   2.339  26.825  0.00  0.00    -0.153 OA
ATOM      4  O   UNL     1      -0.932   1.041  26.367  0.00  0.00    -0.153 OA
BRANCH   1  24
ATOM     24  C   UNL     1      -0.725   3.474  25.460  0.00  0.00    +0.106 A 
ATOM     25  C   UNL     1      -0.197   4.241  24.422  0.00  0.00    +0.028 A 
ATOM     26  C   UNL     1      -1.892   3.885  26.106  0.00  0.00    +0.028 A 
ATOM     27  C   UNL     1      -0.833   5.418  24.029  0.00  0.00    +0.002 A 
ATOM     28  C   UNL     1      -2.528   5.062  25.713  0.00  0.00    +0.002 A 
ATOM     29  C   UNL     1      -2.000   5.829  24.675  0.00  0.00    +0.000 A 
ENDBRANCH   1  24
ENDBRANCH   6   1
ENDBRANCH  21  18
BRANCH   7  17
ATOM     17  C   UNL     1      -3.326  -0.850  24.716  0.00  0.00    +0.159 C 
BRANCH  17  23
ATOM      5  O   UNL     1      -3.328  -3.144  25.517  0.00  0.00    -0.274 OA
ATOM      9  N   UNL     1      -4.421  -2.668  23.553  0.00  0.00    -0.328 N 
ATOM     23  C   UNL     1      -3.684  -2.330  24.668  0.00  0.00    +0.231 C 
ATOM     32  H   UNL     1      -4.717  -3.626  23.397  0.00  0.00    +0.145 HD
ATOM     33  H   UNL     1      -4.691  -1.988  22.849  0.00  0.00    +0.145 HD
ENDBRANCH  17  23
BRANCH  17  13
ATOM     13  C   UNL     1      -4.082  -0.022  23.672  0.00  0.00    +0.035 C 
BRANCH  13  10
ATOM     10  C   UNL     1      -4.999   1.046  24.264  0.00  0.00    -0.009 C 
ATOM     11  C   UNL     1      -4.383   2.442  24.097  0.00  0.00    +0.003 C 
ATOM     12  C   UNL     1      -5.292   0.751  25.741  0.00  0.00    +0.003 C 
ATOM     14  C   UNL     1      -5.258   3.522  24.729  0.00  0.00    +0.000 C 
ATOM     15  C   UNL     1      -6.165   1.835  26.370  0.00  0.00    +0.000 C 
ATOM     16  C   UNL     1      -5.554   3.221  26.194  0.00  0.00    +0.000 C 
ENDBRANCH  13  10
ENDBRANCH  17  13
ENDBRANCH   7  17
TORSDOF 7
ENDMDL
MODEL 5
REMARK VINA RESULT:      -0.5     19.330     21.018
REMARK  Name = 11912136
REMARK  7 active torsions:
REMARK  status: ('A' for Active; 'I' for Inactive)
REMARK    1  A    between atoms: S_1  and  N_6
REMARK    2  A    between atoms: S_1  and  C_24
REMARK    3  A    between atoms: N_7  and  C_17
REMARK    4  A    between atoms: C_10  and  C_13
REMARK    5  A    between atoms: C_13  and  C_17
REMARK    6  A    between atoms: C_17  and  C_23
REMARK    7  A    between atoms: C_18  and  C_21
REMARK                            x       y       z     vdW  Elec       q    Type
REMARK                         _______ _______ _______ _____ _____    ______ ____
ROOT
ATOM      2  O   UNL     1      -3.623   0.862  23.147  0.00  0.00    -0.274 OA
ATOM      7  N   UNL     1      -4.312   1.239  25.338  0.00  0.00    -0.303 N 
ATOM     21  C   UNL     1      -3.841   0.468  24.290  0.00  0.00    +0.234 C 
ATOM     30  H   UNL     1      -4.425   0.822  26.257  0.00  0.00    +0.149 HD
ENDROOT
BRANCH  21  18
ATOM      6  N   UNL     1      -2.123  -1.225  24.576  0.00  0.00    -0.162 NA
ATOM      8  N   UNL     1      -4.082  -3.274  24.026  0.00  0.00    -0.313 NA
ATOM     18  C   UNL     1      -3.586  -0.945  24.697  0.00  0.00    +0.179 C 
ATOM     19  C   UNL     1      -4.375  -1.865  23.763  0.00  0.00    +0.111 C 
ATOM     20  C   UNL     1      -1.828  -2.674  24.809  0.00  0.00    +0.125 C 
ATOM     22  C   UNL     1      -2.652  -3.534  23.858  0.00  0.00    +0.098 C 
ATOM     31  H   UNL     1      -4.608  -3.855  23.375  0.00  0.00    +0.122 HD
BRANCH   6   1
ATOM      1  S   UNL     1      -1.053  -0.158  25.403  0.00  0.00    +0.062 S 
ATOM      3  O   UNL     1      -0.468  -0.864  26.519  0.00  0.00    -0.153 OA
ATOM      4  O   UNL     1      -1.717   1.113  25.581  0.00  0.00    -0.153 OA
BRANCH   1  24
ATOM     24  C   UNL     1       0.189   0.037  24.167  0.00  0.00    +0.106 A 
ATOM     25  C   UNL     1       0.198  -0.797  23.049  0.00  0.00    +0.028 A 
ATOM     26  C   UNL     1       1.164   1.025  24.308  0.00  0.00    +0.028 A 
ATOM     27  C   UNL     1       1.181  -0.643  22.071  0.00  0.00    +0.002 A 
ATOM     28  C   UNL     1       2.148   1.178  23.330  0.00  0.00    +0.002 A 
ATOM     29  C   UNL     1       2.156   0.344  22.212  0.00  0.00    +0.000 A 
ENDBRANCH   1  24
ENDBRANCH   6   1
ENDBRANCH  21  18
BRANCH   7  17
ATOM     17  C   UNL     1      -4.615   2.647  25.211  0.00  0.00    +0.159 C 
BRANCH  17  23
ATOM      5  O   UNL     1      -6.934   1.968  25.461  0.00  0.00    -0.274 OA
ATOM      9  N   UNL     1      -6.387   4.165  25.851  0.00  0.00    -0.328 N 
ATOM     23  C   UNL     1      -6.090   2.859  25.523  0.00  0.00    +0.231 C 
ATOM     32  H   UNL     1      -7.338   4.442  26.073  0.00  0.00    +0.145 HD
ATOM     33  H   UNL     1      -5.683   4.896  25.879  0.00  0.00    +0.145 HD
ENDBRANCH  17  23
BRANCH  17  13
ATOM     13  C   UNL     1      -4.211   3.205  23.843  0.00  0.00    +0.035 C 
BRANCH  13  10
ATOM     10  C   UNL     1      -2.924   4.027  23.856  0.00  0.00    -0.009 C 
ATOM     11  C   UNL     1      -1.722   3.158  23.461  0.00  0.00    +0.003 C 
ATOM     12  C   UNL     1      -2.705   4.669  25.233  0.00  0.00    +0.003 C 
ATOM     14  C   UNL     1      -0.415   3.946  23.519  0.00  0.00    +0.000 C 
ATOM     15  C   UNL     1      -1.396   5.454  25.287  0.00  0.00    +0.000 C 
ATOM     16  C   UNL     1      -0.205   4.590  24.885  0.00  0.00    +0.000 C 
ENDBRANCH  13  10
ENDBRANCH  17  13
ENDBRANCH   7  17
TORSDOF 7
ENDMDL
MODEL 6
REMARK VINA RESULT:      -0.2     18.963     20.616
REMARK  Name = 11912136
REMARK  7 active torsions:
REMARK  status: ('A' for Active; 'I' for Inactive)
REMARK    1  A    between atoms: S_1  and  N_6
REMARK    2  A    between atoms: S_1  and  C_24
REMARK    3  A    between atoms: N_7  and  C_17
REMARK    4  A    between atoms: C_10  and  C_13
REMARK    5  A    between atoms: C_13  and  C_17
REMARK    6  A    between atoms: C_17  and  C_23
REMARK    7  A    between atoms: C_18  and  C_21
REMARK                            x       y       z     vdW  Elec       q    Type
REMARK                         _______ _______ _______ _____ _____    ______ ____
ROOT
ATOM      2  O   UNL     1      -0.987  -1.385  26.699  0.00  0.00    -0.274 OA
ATOM      7  N   UNL     1      -2.195  -0.702  24.831  0.00  0.00    -0.303 N 
ATOM     21  C   UNL     1      -1.050  -0.856  25.593  0.00  0.00    +0.234 C 
ATOM     30  H   UNL     1      -2.132  -0.280  23.910  0.00  0.00    +0.149 HD
ENDROOT
BRANCH  21  18
ATOM      6  N   UNL     1       0.063   1.170  24.849  0.00  0.00    -0.162 NA
ATOM      8  N   UNL     1       1.305  -0.323  22.713  0.00  0.00    -0.313 NA
ATOM     18  C   UNL     1       0.161  -0.320  24.907  0.00  0.00    +0.179 C 
ATOM     19  C   UNL     1       0.207  -0.897  23.490  0.00  0.00    +0.111 C 
ATOM     20  C   UNL     1       1.166   1.754  24.023  0.00  0.00    +0.125 C 
ATOM     22  C   UNL     1       1.164   1.131  22.633  0.00  0.00    +0.098 C 
ATOM     31  H   UNL     1       1.294  -0.715  21.772  0.00  0.00    +0.122 HD
BRANCH   6   1
ATOM      1  S   UNL     1      -0.197   1.994  26.340  0.00  0.00    +0.062 S 
ATOM      3  O   UNL     1       1.086   2.317  26.919  0.00  0.00    -0.153 OA
ATOM      4  O   UNL     1      -1.203   1.279  27.091  0.00  0.00    -0.153 OA
BRANCH   1  24
ATOM     24  C   UNL     1      -0.917   3.485  25.736  0.00  0.00    +0.106 A 
ATOM     25  C   UNL     1      -0.248   4.243  24.775  0.00  0.00    +0.028 A 
ATOM     26  C   UNL     1      -2.155   3.908  26.220  0.00  0.00    +0.028 A 
ATOM     27  C   UNL     1      -0.817   5.424  24.297  0.00  0.00    +0.002 A 
ATOM     28  C   UNL     1      -2.724   5.089  25.742  0.00  0.00    +0.002 A 
ATOM     29  C   UNL     1      -2.055   5.847  24.781  0.00  0.00    +0.000 A 
ENDBRANCH   1  24
ENDBRANCH   6   1
ENDBRANCH  21  18
BRANCH   7  17
ATOM     17  C   UNL     1      -3.498  -1.159  25.260  0.00  0.00    +0.159 C 
BRANCH  17  23
ATOM      5  O   UNL     1      -4.744  -2.277  23.499  0.00  0.00    -0.274 OA
ATOM      9  N   UNL     1      -3.267  -3.513  24.750  0.00  0.00    -0.328 N 
ATOM     23  C   UNL     1      -3.908  -2.344  24.397  0.00  0.00    +0.231 C 
ATOM     32  H   UNL     1      -3.457  -4.379  24.258  0.00  0.00    +0.145 HD
ATOM     33  H   UNL     1      -2.592  -3.559  25.508  0.00  0.00    +0.145 HD
ENDBRANCH  17  23
BRANCH  17  13
ATOM     13  C   UNL     1      -4.537  -0.033  25.256  0.00  0.00    +0.035 C 
BRANCH  13  10
ATOM     10  C   UNL     1      -4.017   1.297  24.713  0.00  0.00    -0.009 C 
ATOM     11  C   UNL     1      -5.163   2.307  24.568  0.00  0.00    +0.003 C 
ATOM     12  C   UNL     1      -3.297   1.091  23.373  0.00  0.00    +0.003 C 
ATOM     14  C   UNL     1      -4.677   3.629  23.977  0.00  0.00    +0.000 C 
ATOM     15  C   UNL     1      -2.815   2.415  22.783  0.00  0.00    +0.000 C 
ATOM     16  C   UNL     1      -3.955   3.420  22.650  0.00  0.00    +0.000 C 
ENDBRANCH  13  10
ENDBRANCH  17  13
ENDBRANCH   7  17
TORSDOF 7
ENDMDL
MODEL 7
REMARK VINA RESULT:      -0.0     19.165     20.642
REMARK  Name = 11912136
REMARK  7 active torsions:
REMARK  status: ('A' for Active; 'I' for Inactive)
REMARK    1  A    between atoms: S_1  and  N_6
REMARK    2  A    between atoms: S_1  and  C_24
REMARK    3  A    between atoms: N_7  and  C_17
REMARK    4  A    between atoms: C_10  and  C_13
REMARK    5  A    between atoms: C_13  and  C_17
REMARK    6  A    between atoms: C_17  and  C_23
REMARK    7  A    between atoms: C_18  and  C_21
REMARK                            x       y       z     vdW  Elec       q    Type
REMARK                         _______ _______ _______ _____ _____    ______ ____
ROOT
ATOM      2  O   UNL     1      -0.402  -0.313  25.670  0.00  0.00    -0.274 OA
ATOM      7  N   UNL     1      -0.093   0.487  23.507  0.00  0.00    -0.303 N 
ATOM     21  C   UNL     1      -0.672  -0.318  24.472  0.00  0.00    +0.234 C 
ATOM     30  H   UNL     1      -0.415   0.429  22.545  0.00  0.00    +0.149 HD
ENDROOT
BRANCH  21  18
ATOM      6  N   UNL     1      -3.052  -0.549  24.050  0.00  0.00    -0.162 NA
ATOM      8  N   UNL     1      -2.789  -3.416  24.268  0.00  0.00    -0.313 NA
ATOM     18  C   UNL     1      -1.722  -1.214  23.906  0.00  0.00    +0.179 C 
ATOM     19  C   UNL     1      -1.705  -2.529  24.688  0.00  0.00    +0.111 C 
ATOM     20  C   UNL     1      -4.164  -1.471  23.653  0.00  0.00    +0.125 C 
ATOM     22  C   UNL     1      -4.084  -2.762  24.458  0.00  0.00    +0.098 C 
ATOM     31  H   UNL     1      -2.759  -4.271  24.821  0.00  0.00    +0.122 HD
BRANCH   6   1
ATOM      1  S   UNL     1      -3.205   1.040  23.401  0.00  0.00    +0.062 S 
ATOM      3  O   UNL     1      -3.802   0.948  22.090  0.00  0.00    -0.153 OA
ATOM      4  O   UNL     1      -1.963   1.745  23.616  0.00  0.00    -0.153 OA
BRANCH   1  24
ATOM     24  C   UNL     1      -4.411   1.698  24.506  0.00  0.00    +0.106 A 
ATOM     25  C   UNL     1      -4.667   3.069  24.524  0.00  0.00    +0.028 A 
ATOM     26  C   UNL     1      -5.110   0.847  25.363  0.00  0.00    +0.028 A 
ATOM     27  C   UNL     1      -5.621   3.590  25.399  0.00  0.00    +0.002 A 
ATOM     28  C   UNL     1      -6.064   1.368  26.238  0.00  0.00    +0.002 A 
ATOM     29  C   UNL     1      -6.320   2.739  26.256  0.00  0.00    +0.000 A 
ENDBRANCH   1  24
ENDBRANCH   6   1
ENDBRANCH  21  18
BRANCH   7  17
ATOM     17  C   UNL     1       0.935   1.460  23.800  0.00  0.00    +0.159 C 
BRANCH  17  23
ATOM      5  O   UNL     1       3.270   1.611  23.144  0.00  0.00    -0.274 OA
ATOM      9  N   UNL     1       2.247  -0.445  23.090  0.00  0.00    -0.328 N 
ATOM     23  C   UNL     1       2.275   0.913  23.327  0.00  0.00    +0.231 C 
ATOM     32  H   UNL     1       3.074  -0.933  22.762  0.00  0.00    +0.145 HD
ATOM     33  H   UNL     1       1.412  -1.007  23.226  0.00  0.00    +0.145 HD
ENDBRANCH  17  23
BRANCH  17  13
ATOM     13  C   UNL     1       0.947   1.862  25.278  0.00  0.00    +0.035 C 
BRANCH  13  10
ATOM     10  C   UNL     1       0.165   3.138  25.587  0.00  0.00    -0.009 C 
ATOM     11  C   UNL     1      -1.216   2.801  26.163  0.00  0.00    +0.003 C 
ATOM     12  C   UNL     1       0.036   4.011  24.331  0.00  0.00    +0.003 C 
ATOM     14  C   UNL     1      -2.037   4.061  26.430  0.00  0.00    +0.000 C 
ATOM     15  C   UNL     1      -0.788   5.268  24.602  0.00  0.00    +0.000 C 
ATOM     16  C   UNL     1      -2.157   4.930  25.183  0.00  0.00    +0.000 C 
ENDBRANCH  13  10
ENDBRANCH  17  13
ENDBRANCH   7  17
TORSDOF 7
ENDMDL
MODEL 8
REMARK VINA RESULT:       0.3      1.724      2.026
REMARK  Name = 11912136
REMARK  7 active torsions:
REMARK  status: ('A' for Active; 'I' for Inactive)
REMARK    1  A    between atoms: S_1  and  N_6
REMARK    2  A    between atoms: S_1  and  C_24
REMARK    3  A    between atoms: N_7  and  C_17
REMARK    4  A    between atoms: C_10  and  C_13
REMARK    5  A    between atoms: C_13  and  C_17
REMARK    6  A    between atoms: C_17  and  C_23
REMARK    7  A    between atoms: C_18  and  C_21
REMARK                            x       y       z     vdW  Elec       q    Type
REMARK                         _______ _______ _______ _____ _____    ______ ____
ROOT
ATOM      2  O   UNL     1      15.319  -6.763  28.374  0.00  0.00    -0.274 OA
ATOM      7  N   UNL     1      16.678  -5.375  27.093  0.00  0.00    -0.303 N 
ATOM     21  C   UNL     1      16.137  -5.853  28.274  0.00  0.00    +0.234 C 
ATOM     30  H   UNL     1      17.377  -4.639  27.122  0.00  0.00    +0.149 HD
ENDROOT
BRANCH  21  18
ATOM      6  N   UNL     1      15.858  -5.515  30.662  0.00  0.00    -0.162 NA
ATOM      8  N   UNL     1      17.005  -2.879  30.401  0.00  0.00    -0.313 NA
ATOM     18  C   UNL     1      16.682  -5.148  29.470  0.00  0.00    +0.179 C 
ATOM     19  C   UNL     1      16.599  -3.641  29.221  0.00  0.00    +0.111 C 
ATOM     20  C   UNL     1      16.250  -4.709  31.861  0.00  0.00    +0.125 C 
ATOM     22  C   UNL     1      16.157  -3.222  31.543  0.00  0.00    +0.098 C 
ATOM     31  H   UNL     1      16.920  -1.882  30.206  0.00  0.00    +0.122 HD
BRANCH   6   1
ATOM      1  S   UNL     1      15.665  -7.196  30.990  0.00  0.00    +0.062 S 
ATOM      3  O   UNL     1      16.415  -7.524  32.179  0.00  0.00    -0.153 OA
ATOM      4  O   UNL     1      15.847  -7.929  29.759  0.00  0.00    -0.153 OA
BRANCH   1  24
ATOM     24  C   UNL     1      13.950  -7.226  31.400  0.00  0.00    +0.106 A 
ATOM     25  C   UNL     1      13.089  -6.267  30.867  0.00  0.00    +0.028 A 
ATOM     26  C   UNL     1      13.455  -8.208  32.258  0.00  0.00    +0.028 A 
ATOM     27  C   UNL     1      11.732  -6.290  31.191  0.00  0.00    +0.002 A 
ATOM     28  C   UNL     1      12.099  -8.230  32.583  0.00  0.00    +0.002 A 
ATOM     29  C   UNL     1      11.237  -7.272  32.050  0.00  0.00    +0.000 A 
ENDBRANCH   1  24
ENDBRANCH   6   1
ENDBRANCH  21  18
BRANCH   7  17
ATOM     17  C   UNL     1      16.333  -5.906  25.793  0.00  0.00    +0.159 C 
BRANCH  17  23
ATOM      5  O   UNL     1      14.935  -7.893  25.768  0.00  0.00    -0.274 OA
ATOM      9  N   UNL     1      17.157  -8.123  26.303  0.00  0.00    -0.328 N 
ATOM     23  C   UNL     1      16.046  -7.395  25.934  0.00  0.00    +0.231 C 
ATOM     32  H   UNL     1      17.099  -9.126  26.439  0.00  0.00    +0.145 HD
ATOM     33  H   UNL     1      18.066  -7.695  26.456  0.00  0.00    +0.145 HD
ENDBRANCH  17  23
BRANCH  17  13
ATOM     13  C   UNL     1      17.405  -5.604  24.741  0.00  0.00    +0.035 C 
BRANCH  13  10
ATOM     10  C   UNL     1      17.278  -4.227  24.093  0.00  0.00    -0.009 C 
ATOM     11  C   UNL     1      17.405  -3.119  25.147  0.00  0.00    +0.003 C 
ATOM     12  C   UNL     1      15.950  -4.107  23.332  0.00  0.00    +0.003 C 
ATOM     14  C   UNL     1      17.228  -1.733  24.530  0.00  0.00    +0.000 C 
ATOM     15  C   UNL     1      15.775  -2.719  22.719  0.00  0.00    +0.000 C 
ATOM     16  C   UNL     1      15.913  -1.620  23.768  0.00  0.00    +0.000 C 
ENDBRANCH  13  10
ENDBRANCH  17  13
ENDBRANCH   7  17
TORSDOF 7
ENDMDL
MODEL 9
REMARK VINA RESULT:       0.4     19.288     20.826
REMARK  Name = 11912136
REMARK  7 active torsions:
REMARK  status: ('A' for Active; 'I' for Inactive)
REMARK    1  A    between atoms: S_1  and  N_6
REMARK    2  A    between atoms: S_1  and  C_24
REMARK    3  A    between atoms: N_7  and  C_17
REMARK    4  A    between atoms: C_10  and  C_13
REMARK    5  A    between atoms: C_13  and  C_17
REMARK    6  A    between atoms: C_17  and  C_23
REMARK    7  A    between atoms: C_18  and  C_21
REMARK                            x       y       z     vdW  Elec       q    Type
REMARK                         _______ _______ _______ _____ _____    ______ ____
ROOT
ATOM      2  O   UNL     1      -0.862   1.389  22.591  0.00  0.00    -0.274 OA
ATOM      7  N   UNL     1       0.309   0.724  24.489  0.00  0.00    -0.303 N 
ATOM     21  C   UNL     1      -0.564   1.526  23.775  0.00  0.00    +0.234 C 
ATOM     30  H   UNL     1       0.460   0.902  25.477  0.00  0.00    +0.149 HD
ENDROOT
BRANCH  21  18
ATOM      6  N   UNL     1      -2.120   3.390  23.786  0.00  0.00    -0.162 NA
ATOM      8  N   UNL     1      -0.544   4.664  25.842  0.00  0.00    -0.313 NA
ATOM     18  C   UNL     1      -1.158   2.604  24.617  0.00  0.00    +0.179 C 
ATOM     19  C   UNL     1      -0.026   3.511  25.106  0.00  0.00    +0.111 C 
ATOM     20  C   UNL     1      -2.622   4.590  24.527  0.00  0.00    +0.125 C 
ATOM     22  C   UNL     1      -1.449   5.442  24.996  0.00  0.00    +0.098 C 
ATOM     31  H   UNL     1       0.233   5.254  26.136  0.00  0.00    +0.122 HD
BRANCH   6   1
ATOM      1  S   UNL     1      -3.360   2.505  22.980  0.00  0.00    +0.062 S 
ATOM      3  O   UNL     1      -2.842   1.205  22.624  0.00  0.00    -0.153 OA
ATOM      4  O   UNL     1      -3.975   3.366  21.997  0.00  0.00    -0.153 OA
BRANCH   1  24
ATOM     24  C   UNL     1      -4.492   2.295  24.315  0.00  0.00    +0.106 A 
ATOM     25  C   UNL     1      -5.068   3.410  24.923  0.00  0.00    +0.028 A 
ATOM     26  C   UNL     1      -4.811   1.013  24.764  0.00  0.00    +0.028 A 
ATOM     27  C   UNL     1      -5.964   3.245  25.980  0.00  0.00    +0.002 A 
ATOM     28  C   UNL     1      -5.707   0.848  25.821  0.00  0.00    +0.002 A 
ATOM     29  C   UNL     1      -6.283   1.963  26.429  0.00  0.00    +0.000 A 
ENDBRANCH   1  24
ENDBRANCH   6   1
ENDBRANCH  21  18
BRANCH   7  17
ATOM     17  C   UNL     1       1.000  -0.406  23.909  0.00  0.00    +0.159 C 
BRANCH  17  23
ATOM      5  O   UNL     1       1.654  -0.330  21.570  0.00  0.00    -0.274 OA
ATOM      9  N   UNL     1       2.779   1.001  23.067  0.00  0.00    -0.328 N 
ATOM     23  C   UNL     1       1.815   0.079  22.718  0.00  0.00    +0.231 C 
ATOM     32  H   UNL     1       3.396   1.398  22.366  0.00  0.00    +0.145 HD
ATOM     33  H   UNL     1       2.914   1.316  24.023  0.00  0.00    +0.145 HD
ENDBRANCH  17  23
BRANCH  17  13
ATOM     13  C   UNL     1       0.043  -1.547  23.549  0.00  0.00    +0.035 C 
BRANCH  13  10
ATOM     10  C   UNL     1      -1.344  -1.423  24.178  0.00  0.00    -0.009 C 
ATOM     11  C   UNL     1      -1.234  -1.197  25.692  0.00  0.00    +0.003 C 
ATOM     12  C   UNL     1      -2.191  -2.666  23.871  0.00  0.00    +0.003 C 
ATOM     14  C   UNL     1      -2.610  -1.124  26.351  0.00  0.00    +0.000 C 
ATOM     15  C   UNL     1      -3.565  -2.589  24.534  0.00  0.00    +0.000 C 
ATOM     16  C   UNL     1      -3.452  -2.355  26.037  0.00  0.00    +0.000 C 
ENDBRANCH  13  10
ENDBRANCH  17  13
ENDBRANCH   7  17
TORSDOF 7
ENDMDL
