MODEL 1
REMARK VINA RESULT:      -1.8      0.000      0.000
REMARK  Name = 51137797
REMARK  7 active torsions:
REMARK  status: ('A' for Active; 'I' for Inactive)
REMARK    1  A    between atoms: S_1  and  N_6
REMARK    2  A    between atoms: S_1  and  C_14
REMARK    3  A    between atoms: O_5  and  C_27
REMARK    4  A    between atoms: O_5  and  C_28
REMARK    5  A    between atoms: C_9  and  C_13
REMARK    6  A    between atoms: C_17  and  C_21
REMARK    7  A    between atoms: C_20  and  C_22
REMARK                            x       y       z     vdW  Elec       q    Type
REMARK                         _______ _______ _______ _____ _____    ______ ____
ROOT
ATOM      6  N   UNL     1      -4.313   3.076  25.375  0.00  0.00    -0.176 NA
ATOM      9  C   UNL     1      -1.917   3.236  25.087  0.00  0.00    +0.094 C 
ATOM     10  C   UNL     1      -2.639   4.218  24.162  0.00  0.00    +0.031 C 
ATOM     11  C   UNL     1      -3.020   2.823  26.076  0.00  0.00    +0.122 C 
ATOM     12  C   UNL     1      -4.037   3.633  24.030  0.00  0.00    +0.110 C 
ENDROOT
BRANCH   9  13
ATOM      2  O   UNL     1       0.120   2.090  24.335  0.00  0.00    -0.420 OA
ATOM      7  N   UNL     1      -1.775   1.158  23.594  0.00  0.00    -0.112 NA
ATOM      8  N   UNL     1      -0.714   0.421  23.100  0.00  0.00    -0.107 NA
ATOM     13  C   UNL     1      -1.241   2.122  24.307  0.00  0.00    +0.222 A 
ATOM     17  C   UNL     1       0.370   1.000  23.558  0.00  0.00    +0.248 A 
BRANCH  17  21
ATOM     21  C   UNL     1       1.752   0.670  23.370  0.00  0.00    +0.039 A 
ATOM     23  C   UNL     1       2.662   1.658  22.993  0.00  0.00    +0.017 A 
ATOM     24  C   UNL     1       2.189  -0.641  23.565  0.00  0.00    +0.017 A 
ATOM     25  C   UNL     1       4.006   1.337  22.809  0.00  0.00    +0.046 A 
ATOM     26  C   UNL     1       3.534  -0.962  23.383  0.00  0.00    +0.046 A 
ATOM     27  C   UNL     1       4.443   0.026  23.004  0.00  0.00    +0.120 A 
BRANCH  27   5
ATOM      5  O   UNL     1       5.755  -0.288  22.829  0.00  0.00    -0.495 OA
ATOM     28  C   UNL     1       6.498  -0.646  23.994  0.00  0.00    +0.277 C 
ENDBRANCH  27   5
ENDBRANCH  17  21
ENDBRANCH   9  13
BRANCH   6   1
ATOM      1  S   UNL     1      -5.572   1.954  25.545  0.00  0.00    +0.061 S 
ATOM      3  O   UNL     1      -6.534   2.136  24.473  0.00  0.00    -0.153 OA
ATOM      4  O   UNL     1      -6.012   1.925  26.929  0.00  0.00    -0.153 OA
BRANCH   1  14
ATOM     14  C   UNL     1      -4.705   0.447  25.229  0.00  0.00    +0.105 A 
ATOM     15  C   UNL     1      -4.820  -0.176  23.985  0.00  0.00    +0.029 A 
ATOM     16  C   UNL     1      -3.907  -0.122  26.221  0.00  0.00    +0.029 A 
ATOM     18  C   UNL     1      -4.138  -1.366  23.735  0.00  0.00    +0.005 A 
ATOM     19  C   UNL     1      -3.226  -1.312  25.972  0.00  0.00    +0.005 A 
ATOM     20  C   UNL     1      -3.340  -1.934  24.729  0.00  0.00    -0.050 A 
ATOM     22  C   UNL     1      -2.611  -3.208  24.463  0.00  0.00    +0.044 C 
ENDBRANCH   1  14
ENDBRANCH   6   1
TORSDOF 5
ENDMDL
MODEL 2
REMARK VINA RESULT:      -1.7      1.485      2.076
REMARK  Name = 51137797
REMARK  7 active torsions:
REMARK  status: ('A' for Active; 'I' for Inactive)
REMARK    1  A    between atoms: S_1  and  N_6
REMARK    2  A    between atoms: S_1  and  C_14
REMARK    3  A    between atoms: O_5  and  C_27
REMARK    4  A    between atoms: O_5  and  C_28
REMARK    5  A    between atoms: C_9  and  C_13
REMARK    6  A    between atoms: C_17  and  C_21
REMARK    7  A    between atoms: C_20  and  C_22
REMARK                            x       y       z     vdW  Elec       q    Type
REMARK                         _______ _______ _______ _____ _____    ______ ____
ROOT
ATOM      6  N   UNL     1      -5.159   2.987  24.755  0.00  0.00    -0.176 NA
ATOM      9  C   UNL     1      -3.110   4.240  25.042  0.00  0.00    +0.094 C 
ATOM     10  C   UNL     1      -3.471   4.129  23.559  0.00  0.00    +0.031 C 
ATOM     11  C   UNL     1      -4.411   3.817  25.745  0.00  0.00    +0.122 C 
ATOM     12  C   UNL     1      -4.379   2.909  23.497  0.00  0.00    +0.110 C 
ENDROOT
BRANCH   9  13
ATOM      2  O   UNL     1      -1.172   2.910  24.332  0.00  0.00    -0.420 OA
ATOM      7  N   UNL     1      -1.320   3.193  26.546  0.00  0.00    -0.112 NA
ATOM      8  N   UNL     1      -0.195   2.432  26.286  0.00  0.00    -0.107 NA
ATOM     13  C   UNL     1      -1.859   3.447  25.377  0.00  0.00    +0.222 A 
ATOM     17  C   UNL     1      -0.148   2.293  24.983  0.00  0.00    +0.248 A 
BRANCH  17  21
ATOM     21  C   UNL     1       0.797   1.604  24.153  0.00  0.00    +0.039 A 
ATOM     23  C   UNL     1       0.486   0.346  23.637  0.00  0.00    +0.017 A 
ATOM     24  C   UNL     1       2.028   2.193  23.861  0.00  0.00    +0.017 A 
ATOM     25  C   UNL     1       1.405  -0.324  22.831  0.00  0.00    +0.046 A 
ATOM     26  C   UNL     1       2.947   1.523  23.053  0.00  0.00    +0.046 A 
ATOM     27  C   UNL     1       2.636   0.265  22.538  0.00  0.00    +0.120 A 
BRANCH  27   5
ATOM      5  O   UNL     1       3.532  -0.388  21.748  0.00  0.00    -0.495 OA
ATOM     28  C   UNL     1       4.912  -0.263  22.091  0.00  0.00    +0.277 C 
ENDBRANCH  27   5
ENDBRANCH  17  21
ENDBRANCH   9  13
BRANCH   6   1
ATOM      1  S   UNL     1      -5.969   1.599  25.293  0.00  0.00    +0.061 S 
ATOM      3  O   UNL     1      -7.069   1.299  24.395  0.00  0.00    -0.153 OA
ATOM      4  O   UNL     1      -6.195   1.695  26.724  0.00  0.00    -0.153 OA
BRANCH   1  14
ATOM     14  C   UNL     1      -4.721   0.375  25.031  0.00  0.00    +0.105 A 
ATOM     15  C   UNL     1      -3.518   0.445  25.734  0.00  0.00    +0.029 A 
ATOM     16  C   UNL     1      -4.936  -0.658  24.119  0.00  0.00    +0.029 A 
ATOM     18  C   UNL     1      -2.532  -0.519  25.527  0.00  0.00    +0.005 A 
ATOM     19  C   UNL     1      -3.950  -1.621  23.910  0.00  0.00    +0.005 A 
ATOM     20  C   UNL     1      -2.748  -1.553  24.614  0.00  0.00    -0.050 A 
ATOM     22  C   UNL     1      -1.693  -2.583  24.391  0.00  0.00    +0.044 C 
ENDBRANCH   1  14
ENDBRANCH   6   1
TORSDOF 5
ENDMDL
MODEL 3
REMARK VINA RESULT:      -1.3      1.153      3.471
REMARK  Name = 51137797
REMARK  7 active torsions:
REMARK  status: ('A' for Active; 'I' for Inactive)
REMARK    1  A    between atoms: S_1  and  N_6
REMARK    2  A    between atoms: S_1  and  C_14
REMARK    3  A    between atoms: O_5  and  C_27
REMARK    4  A    between atoms: O_5  and  C_28
REMARK    5  A    between atoms: C_9  and  C_13
REMARK    6  A    between atoms: C_17  and  C_21
REMARK    7  A    between atoms: C_20  and  C_22
REMARK                            x       y       z     vdW  Elec       q    Type
REMARK                         _______ _______ _______ _____ _____    ______ ____
ROOT
ATOM      6  N   UNL     1      -4.830   0.098  25.153  0.00  0.00    -0.176 NA
ATOM      9  C   UNL     1      -2.861  -0.766  24.045  0.00  0.00    +0.094 C 
ATOM     10  C   UNL     1      -2.975  -1.333  25.462  0.00  0.00    +0.031 C 
ATOM     11  C   UNL     1      -4.257  -0.169  23.800  0.00  0.00    +0.122 C 
ATOM     12  C   UNL     1      -3.855  -0.324  26.186  0.00  0.00    +0.110 C 
ENDROOT
BRANCH   9  13
ATOM      2  O   UNL     1      -0.457  -0.394  23.707  0.00  0.00    -0.420 OA
ATOM      7  N   UNL     1      -1.643   1.486  23.956  0.00  0.00    -0.112 NA
ATOM      8  N   UNL     1      -0.318   1.837  23.775  0.00  0.00    -0.107 NA
ATOM     13  C   UNL     1      -1.677   0.176  23.909  0.00  0.00    +0.222 A 
ATOM     17  C   UNL     1       0.336   0.709  23.634  0.00  0.00    +0.248 A 
BRANCH  17  21
ATOM     21  C   UNL     1       1.733   0.463  23.419  0.00  0.00    +0.039 A 
ATOM     23  C   UNL     1       2.567   1.499  22.997  0.00  0.00    +0.017 A 
ATOM     24  C   UNL     1       2.258  -0.811  23.633  0.00  0.00    +0.017 A 
ATOM     25  C   UNL     1       3.924   1.260  22.787  0.00  0.00    +0.046 A 
ATOM     26  C   UNL     1       3.616  -1.050  23.425  0.00  0.00    +0.046 A 
ATOM     27  C   UNL     1       4.449  -0.015  23.001  0.00  0.00    +0.120 A 
BRANCH  27   5
ATOM      5  O   UNL     1       5.775  -0.248  22.800  0.00  0.00    -0.495 OA
ATOM     28  C   UNL     1       6.548  -0.626  23.939  0.00  0.00    +0.277 C 
ENDBRANCH  27   5
ENDBRANCH  17  21
ENDBRANCH   9  13
BRANCH   6   1
ATOM      1  S   UNL     1      -5.710   1.524  25.403  0.00  0.00    +0.061 S 
ATOM      3  O   UNL     1      -6.189   1.566  26.773  0.00  0.00    -0.153 OA
ATOM      4  O   UNL     1      -6.630   1.726  24.298  0.00  0.00    -0.153 OA
BRANCH   1  14
ATOM     14  C   UNL     1      -4.424   2.727  25.253  0.00  0.00    +0.105 A 
ATOM     15  C   UNL     1      -4.148   3.301  24.012  0.00  0.00    +0.029 A 
ATOM     16  C   UNL     1      -3.684   3.101  26.374  0.00  0.00    +0.029 A 
ATOM     18  C   UNL     1      -3.132   4.249  23.893  0.00  0.00    +0.005 A 
ATOM     19  C   UNL     1      -2.667   4.048  26.255  0.00  0.00    +0.005 A 
ATOM     20  C   UNL     1      -2.392   4.623  25.015  0.00  0.00    -0.050 A 
ATOM     22  C   UNL     1      -1.305   5.636  24.888  0.00  0.00    +0.044 C 
ENDBRANCH   1  14
ENDBRANCH   6   1
TORSDOF 5
ENDMDL
MODEL 4
REMARK VINA RESULT:       0.4      1.783      3.858
REMARK  Name = 51137797
REMARK  7 active torsions:
REMARK  status: ('A' for Active; 'I' for Inactive)
REMARK    1  A    between atoms: S_1  and  N_6
REMARK    2  A    between atoms: S_1  and  C_14
REMARK    3  A    between atoms: O_5  and  C_27
REMARK    4  A    between atoms: O_5  and  C_28
REMARK    5  A    between atoms: C_9  and  C_13
REMARK    6  A    between atoms: C_17  and  C_21
REMARK    7  A    between atoms: C_20  and  C_22
REMARK                            x       y       z     vdW  Elec       q    Type
REMARK                         _______ _______ _______ _____ _____    ______ ____
ROOT
ATOM      6  N   UNL     1      -5.533   2.127  25.012  0.00  0.00    -0.176 NA
ATOM      9  C   UNL     1      -4.323   0.475  23.725  0.00  0.00    +0.094 C 
ATOM     10  C   UNL     1      -5.456  -0.182  24.517  0.00  0.00    +0.031 C 
ATOM     11  C   UNL     1      -4.672   1.971  23.803  0.00  0.00    +0.122 C 
ATOM     12  C   UNL     1      -5.727   0.802  25.646  0.00  0.00    +0.110 C 
ENDROOT
BRANCH   9  13
ATOM      2  O   UNL     1      -1.876   0.465  23.526  0.00  0.00    -0.420 OA
ATOM      7  N   UNL     1      -2.648  -0.644  25.309  0.00  0.00    -0.112 NA
ATOM      8  N   UNL     1      -1.268  -0.729  25.317  0.00  0.00    -0.107 NA
ATOM     13  C   UNL     1      -2.958   0.060  24.246  0.00  0.00    +0.222 A 
ATOM     17  C   UNL     1      -0.861  -0.068  24.260  0.00  0.00    +0.248 A 
BRANCH  17  21
ATOM     21  C   UNL     1       0.464   0.176  23.768  0.00  0.00    +0.039 A 
ATOM     23  C   UNL     1       1.133  -0.813  23.046  0.00  0.00    +0.017 A 
ATOM     24  C   UNL     1       1.083   1.403  24.008  0.00  0.00    +0.017 A 
ATOM     25  C   UNL     1       2.421  -0.577  22.568  0.00  0.00    +0.046 A 
ATOM     26  C   UNL     1       2.371   1.640  23.529  0.00  0.00    +0.046 A 
ATOM     27  C   UNL     1       3.040   0.651  22.809  0.00  0.00    +0.120 A 
BRANCH  27   5
ATOM      5  O   UNL     1       4.296   0.883  22.339  0.00  0.00    -0.495 OA
ATOM     28  C   UNL     1       5.381   0.334  23.086  0.00  0.00    +0.277 C 
ENDBRANCH  27   5
ENDBRANCH  17  21
ENDBRANCH   9  13
BRANCH   6   1
ATOM      1  S   UNL     1      -5.308   3.478  26.010  0.00  0.00    +0.061 S 
ATOM      3  O   UNL     1      -5.316   3.062  27.401  0.00  0.00    -0.153 OA
ATOM      4  O   UNL     1      -6.167   4.560  25.563  0.00  0.00    -0.153 OA
BRANCH   1  14
ATOM     14  C   UNL     1      -3.645   3.911  25.596  0.00  0.00    +0.105 A 
ATOM     15  C   UNL     1      -3.391   5.048  24.829  0.00  0.00    +0.029 A 
ATOM     16  C   UNL     1      -2.586   3.115  26.034  0.00  0.00    +0.029 A 
ATOM     18  C   UNL     1      -2.079   5.390  24.500  0.00  0.00    +0.005 A 
ATOM     19  C   UNL     1      -1.275   3.455  25.704  0.00  0.00    +0.005 A 
ATOM     20  C   UNL     1      -1.021   4.593  24.938  0.00  0.00    -0.050 A 
ATOM     22  C   UNL     1       0.382   4.957  24.586  0.00  0.00    +0.044 C 
ENDBRANCH   1  14
ENDBRANCH   6   1
TORSDOF 5
ENDMDL
MODEL 5
REMARK VINA RESULT:       0.9      2.083      3.894
REMARK  Name = 51137797
REMARK  7 active torsions:
REMARK  status: ('A' for Active; 'I' for Inactive)
REMARK    1  A    between atoms: S_1  and  N_6
REMARK    2  A    between atoms: S_1  and  C_14
REMARK    3  A    between atoms: O_5  and  C_27
REMARK    4  A    between atoms: O_5  and  C_28
REMARK    5  A    between atoms: C_9  and  C_13
REMARK    6  A    between atoms: C_17  and  C_21
REMARK    7  A    between atoms: C_20  and  C_22
REMARK                            x       y       z     vdW  Elec       q    Type
REMARK                         _______ _______ _______ _____ _____    ______ ____
ROOT
ATOM      6  N   UNL     1      -4.179   1.313  23.904  0.00  0.00    -0.176 NA
ATOM      9  C   UNL     1      -3.645  -1.045  23.976  0.00  0.00    +0.094 C 
ATOM     10  C   UNL     1      -4.494  -0.647  25.186  0.00  0.00    +0.031 C 
ATOM     11  C   UNL     1      -3.805   0.159  23.033  0.00  0.00    +0.122 C 
ATOM     12  C   UNL     1      -4.266   0.852  25.310  0.00  0.00    +0.110 C 
ENDROOT
BRANCH   9  13
ATOM      2  O   UNL     1      -1.217  -0.819  23.697  0.00  0.00    -0.420 OA
ATOM      7  N   UNL     1      -1.818  -2.252  25.307  0.00  0.00    -0.112 NA
ATOM      8  N   UNL     1      -0.436  -2.220  25.256  0.00  0.00    -0.107 NA
ATOM     13  C   UNL     1      -2.230  -1.420  24.379  0.00  0.00    +0.222 A 
ATOM     17  C   UNL     1      -0.131  -1.372  24.303  0.00  0.00    +0.248 A 
BRANCH  17  21
ATOM     21  C   UNL     1       1.147  -0.944  23.812  0.00  0.00    +0.039 A 
ATOM     23  C   UNL     1       2.309  -1.592  24.232  0.00  0.00    +0.017 A 
ATOM     24  C   UNL     1       1.228   0.118  22.912  0.00  0.00    +0.017 A 
ATOM     25  C   UNL     1       3.551  -1.177  23.755  0.00  0.00    +0.046 A 
ATOM     26  C   UNL     1       2.471   0.534  22.433  0.00  0.00    +0.046 A 
ATOM     27  C   UNL     1       3.632  -0.113  22.855  0.00  0.00    +0.120 A 
BRANCH  27   5
ATOM      5  O   UNL     1       4.844   0.290  22.386  0.00  0.00    -0.495 OA
ATOM     28  C   UNL     1       5.976   0.050  23.221  0.00  0.00    +0.277 C 
ENDBRANCH  27   5
ENDBRANCH  17  21
ENDBRANCH   9  13
BRANCH   6   1
ATOM      1  S   UNL     1      -3.498   2.832  23.589  0.00  0.00    +0.061 S 
ATOM      3  O   UNL     1      -4.410   3.873  24.027  0.00  0.00    -0.153 OA
ATOM      4  O   UNL     1      -2.956   2.851  22.242  0.00  0.00    -0.153 OA
BRANCH   1  14
ATOM     14  C   UNL     1      -2.134   2.814  24.713  0.00  0.00    +0.105 A 
ATOM     15  C   UNL     1      -0.929   2.221  24.336  0.00  0.00    +0.029 A 
ATOM     16  C   UNL     1      -2.263   3.389  25.976  0.00  0.00    +0.029 A 
ATOM     18  C   UNL     1       0.147   2.204  25.223  0.00  0.00    +0.005 A 
ATOM     19  C   UNL     1      -1.188   3.371  26.864  0.00  0.00    +0.005 A 
ATOM     20  C   UNL     1       0.018   2.780  26.487  0.00  0.00    -0.050 A 
ATOM     22  C   UNL     1       1.168   2.761  27.436  0.00  0.00    +0.044 C 
ENDBRANCH   1  14
ENDBRANCH   6   1
TORSDOF 5
ENDMDL
MODEL 6
REMARK VINA RESULT:       1.1      1.463      3.600
REMARK  Name = 51137797
REMARK  7 active torsions:
REMARK  status: ('A' for Active; 'I' for Inactive)
REMARK    1  A    between atoms: S_1  and  N_6
REMARK    2  A    between atoms: S_1  and  C_14
REMARK    3  A    between atoms: O_5  and  C_27
REMARK    4  A    between atoms: O_5  and  C_28
REMARK    5  A    between atoms: C_9  and  C_13
REMARK    6  A    between atoms: C_17  and  C_21
REMARK    7  A    between atoms: C_20  and  C_22
REMARK                            x       y       z     vdW  Elec       q    Type
REMARK                         _______ _______ _______ _____ _____    ______ ____
ROOT
ATOM      6  N   UNL     1      -3.884  -0.633  25.214  0.00  0.00    -0.176 NA
ATOM      9  C   UNL     1      -1.980  -1.651  24.123  0.00  0.00    +0.094 C 
ATOM     10  C   UNL     1      -1.875  -1.802  25.642  0.00  0.00    +0.031 C 
ATOM     11  C   UNL     1      -3.447  -1.234  23.920  0.00  0.00    +0.122 C 
ATOM     12  C   UNL     1      -2.760  -0.687  26.179  0.00  0.00    +0.110 C 
ENDROOT
BRANCH   9  13
ATOM      2  O   UNL     1       0.380  -1.046  23.818  0.00  0.00    -0.420 OA
ATOM      7  N   UNL     1      -1.057   0.393  22.885  0.00  0.00    -0.112 NA
ATOM      8  N   UNL     1       0.226   0.850  22.641  0.00  0.00    -0.107 NA
ATOM     13  C   UNL     1      -0.918  -0.714  23.575  0.00  0.00    +0.222 A 
ATOM     17  C   UNL     1       1.030  -0.021  23.203  0.00  0.00    +0.248 A 
BRANCH  17  21
ATOM     21  C   UNL     1       2.462  -0.058  23.268  0.00  0.00    +0.039 A 
ATOM     23  C   UNL     1       3.210   1.024  22.804  0.00  0.00    +0.017 A 
ATOM     24  C   UNL     1       3.107  -1.176  23.797  0.00  0.00    +0.017 A 
ATOM     25  C   UNL     1       4.603   0.987  22.866  0.00  0.00    +0.046 A 
ATOM     26  C   UNL     1       4.500  -1.213  23.861  0.00  0.00    +0.046 A 
ATOM     27  C   UNL     1       5.248  -0.132  23.396  0.00  0.00    +0.120 A 
BRANCH  27   5
ATOM      5  O   UNL     1       6.607  -0.166  23.460  0.00  0.00    -0.495 OA
ATOM     28  C   UNL     1       7.284  -0.954  22.482  0.00  0.00    +0.277 C 
ENDBRANCH  27   5
ENDBRANCH  17  21
ENDBRANCH   9  13
BRANCH   6   1
ATOM      1  S   UNL     1      -4.865   0.748  25.188  0.00  0.00    +0.061 S 
ATOM      3  O   UNL     1      -5.549   0.883  26.461  0.00  0.00    -0.153 OA
ATOM      4  O   UNL     1      -5.614   0.787  23.944  0.00  0.00    -0.153 OA
BRANCH   1  14
ATOM     14  C   UNL     1      -3.635   2.015  25.109  0.00  0.00    +0.105 A 
ATOM     15  C   UNL     1      -3.923   3.228  24.483  0.00  0.00    +0.029 A 
ATOM     16  C   UNL     1      -2.376   1.802  25.671  0.00  0.00    +0.029 A 
ATOM     18  C   UNL     1      -2.952   4.227  24.419  0.00  0.00    +0.005 A 
ATOM     19  C   UNL     1      -1.405   2.801  25.606  0.00  0.00    +0.005 A 
ATOM     20  C   UNL     1      -1.693   4.014  24.981  0.00  0.00    -0.050 A 
ATOM     22  C   UNL     1      -0.654   5.082  24.911  0.00  0.00    +0.044 C 
ENDBRANCH   1  14
ENDBRANCH   6   1
TORSDOF 5
ENDMDL
MODEL 7
REMARK VINA RESULT:       1.3      3.094      7.658
REMARK  Name = 51137797
REMARK  7 active torsions:
REMARK  status: ('A' for Active; 'I' for Inactive)
REMARK    1  A    between atoms: S_1  and  N_6
REMARK    2  A    between atoms: S_1  and  C_14
REMARK    3  A    between atoms: O_5  and  C_27
REMARK    4  A    between atoms: O_5  and  C_28
REMARK    5  A    between atoms: C_9  and  C_13
REMARK    6  A    between atoms: C_17  and  C_21
REMARK    7  A    between atoms: C_20  and  C_22
REMARK                            x       y       z     vdW  Elec       q    Type
REMARK                         _______ _______ _______ _____ _____    ______ ____
ROOT
ATOM      6  N   UNL     1       0.374  -1.388  23.900  0.00  0.00    -0.176 NA
ATOM      9  C   UNL     1      -1.523  -2.185  25.170  0.00  0.00    +0.094 C 
ATOM     10  C   UNL     1      -1.093  -3.225  24.134  0.00  0.00    +0.031 C 
ATOM     11  C   UNL     1      -0.325  -1.221  25.208  0.00  0.00    +0.122 C 
ATOM     12  C   UNL     1      -0.336  -2.410  23.096  0.00  0.00    +0.110 C 
ENDROOT
BRANCH   9  13
ATOM      2  O   UNL     1      -3.109  -0.312  25.264  0.00  0.00    -0.420 OA
ATOM      7  N   UNL     1      -3.887  -2.110  24.183  0.00  0.00    -0.112 NA
ATOM      8  N   UNL     1      -4.871  -1.139  24.163  0.00  0.00    -0.107 NA
ATOM     13  C   UNL     1      -2.878  -1.584  24.836  0.00  0.00    +0.222 A 
ATOM     17  C   UNL     1      -4.374  -0.109  24.804  0.00  0.00    +0.248 A 
BRANCH  17  21
ATOM     21  C   UNL     1      -4.946   1.174  25.090  0.00  0.00    +0.039 A 
ATOM     23  C   UNL     1      -5.786   1.334  26.192  0.00  0.00    +0.017 A 
ATOM     24  C   UNL     1      -4.661   2.264  24.266  0.00  0.00    +0.017 A 
ATOM     25  C   UNL     1      -6.343   2.582  26.470  0.00  0.00    +0.046 A 
ATOM     26  C   UNL     1      -5.217   3.513  24.545  0.00  0.00    +0.046 A 
ATOM     27  C   UNL     1      -6.058   3.672  25.646  0.00  0.00    +0.120 A 
BRANCH  27   5
ATOM      5  O   UNL     1      -6.598   4.891  25.919  0.00  0.00    -0.495 OA
ATOM     28  C   UNL     1      -6.301   5.951  25.011  0.00  0.00    +0.277 C 
ENDBRANCH  27   5
ENDBRANCH  17  21
ENDBRANCH   9  13
BRANCH   6   1
ATOM      1  S   UNL     1       0.979  -0.015  23.113  0.00  0.00    +0.061 S 
ATOM      3  O   UNL     1       0.566  -0.029  21.721  0.00  0.00    -0.153 OA
ATOM      4  O   UNL     1       2.378   0.166  23.461  0.00  0.00    -0.153 OA
BRANCH   1  14
ATOM     14  C   UNL     1       0.058   1.256  23.926  0.00  0.00    +0.105 A 
ATOM     15  C   UNL     1      -1.104   1.758  23.340  0.00  0.00    +0.029 A 
ATOM     16  C   UNL     1       0.493   1.758  25.152  0.00  0.00    +0.029 A 
ATOM     18  C   UNL     1      -1.830   2.762  23.980  0.00  0.00    +0.005 A 
ATOM     19  C   UNL     1      -0.232   2.762  25.792  0.00  0.00    +0.005 A 
ATOM     20  C   UNL     1      -1.394   3.264  25.207  0.00  0.00    -0.050 A 
ATOM     22  C   UNL     1      -2.170   4.338  25.891  0.00  0.00    +0.044 C 
ENDBRANCH   1  14
ENDBRANCH   6   1
TORSDOF 5
ENDMDL
