MODEL 1
REMARK VINA RESULT:      -4.9      0.000      0.000
REMARK  Name = 11913349
REMARK  4 active torsions:
REMARK  status: ('A' for Active; 'I' for Inactive)
REMARK    1  A    between atoms: N_5  and  C_11
REMARK    2  A    between atoms: N_6  and  C_12
REMARK    3  A    between atoms: C_13  and  C_18
REMARK    4  A    between atoms: C_20  and  C_23
REMARK                            x       y       z     vdW  Elec       q    Type
REMARK                         _______ _______ _______ _____ _____    ______ ____
ROOT
ATOM      6  N   UNL     1      -3.606   4.535  24.667  0.00  0.00    -0.306 N 
ATOM      7  N   UNL     1      -4.046   2.244  24.924  0.00  0.00    -0.214 NA
ATOM      8  N   UNL     1      -5.620   3.900  25.689  0.00  0.00    -0.223 NA
ATOM     19  C   UNL     1      -4.449   3.530  25.106  0.00  0.00    +0.216 A 
ATOM     20  C   UNL     1      -4.891   1.290  25.363  0.00  0.00    +0.076 A 
ATOM     21  C   UNL     1      -6.418   2.895  26.104  0.00  0.00    +0.116 A 
ATOM     22  C   UNL     1      -6.103   1.558  25.967  0.00  0.00    +0.048 A 
ATOM     30  H   UNL     1      -3.892   5.489  24.855  0.00  0.00    +0.149 HD
ENDROOT
BRANCH   6  12
ATOM      2  O   UNL     1      -0.921   2.458  23.314  0.00  0.00    -0.370 OA
ATOM      3  O   UNL     1      -0.719   4.322  25.783  0.00  0.00    -0.370 OA
ATOM      9  C   UNL     1      -1.149   2.959  25.625  0.00  0.00    +0.171 C 
ATOM     10  C   UNL     1      -1.883   2.870  24.301  0.00  0.00    +0.171 C 
ATOM     11  C   UNL     1       0.047   2.048  25.448  0.00  0.00    +0.130 C 
ATOM     12  C   UNL     1      -2.328   4.288  24.034  0.00  0.00    +0.130 C 
ATOM     14  C   UNL     1       0.333   2.196  23.961  0.00  0.00    +0.185 C 
ATOM     15  C   UNL     1      -1.242   5.111  24.702  0.00  0.00    +0.185 C 
BRANCH  11   5
ATOM      4  O   UNL     1       0.304  -0.284  23.709  0.00  0.00    -0.276 OA
ATOM      5  N   UNL     1      -0.313   0.664  25.746  0.00  0.00    -0.307 N 
ATOM     18  C   UNL     1      -0.149  -0.373  24.845  0.00  0.00    +0.216 C 
ATOM     29  H   UNL     1      -0.672   0.457  26.673  0.00  0.00    +0.149 HD
BRANCH  18  13
ATOM     13  C   UNL     1      -0.583  -1.705  25.360  0.00  0.00    +0.075 C 
ATOM     16  C   UNL     1      -0.611  -2.857  24.414  0.00  0.00    +0.013 C 
ATOM     17  C   UNL     1       0.439  -2.783  25.484  0.00  0.00    +0.013 C 
ENDBRANCH  18  13
ENDBRANCH  11   5
ENDBRANCH   6  12
BRANCH  20  23
ATOM      1  F   UNL     1      -4.429  -2.614  22.559  0.00  0.00    -0.205 F 
ATOM     23  C   UNL     1      -4.444  -0.067  25.160  0.00  0.00    +0.003 A 
ATOM     24  C   UNL     1      -4.656  -0.699  23.934  0.00  0.00    +0.048 A 
ATOM     25  C   UNL     1      -3.795  -0.752  26.190  0.00  0.00    +0.010 A 
ATOM     26  C   UNL     1      -4.223  -2.010  23.737  0.00  0.00    +0.124 A 
ATOM     27  C   UNL     1      -3.362  -2.064  25.993  0.00  0.00    +0.003 A 
ATOM     28  C   UNL     1      -3.575  -2.693  24.767  0.00  0.00    +0.038 A 
ENDBRANCH  20  23
TORSDOF 4
ENDMDL
MODEL 2
REMARK VINA RESULT:      -3.4      1.873      4.821
REMARK  Name = 11913349
REMARK  4 active torsions:
REMARK  status: ('A' for Active; 'I' for Inactive)
REMARK    1  A    between atoms: N_5  and  C_11
REMARK    2  A    between atoms: N_6  and  C_12
REMARK    3  A    between atoms: C_13  and  C_18
REMARK    4  A    between atoms: C_20  and  C_23
REMARK                            x       y       z     vdW  Elec       q    Type
REMARK                         _______ _______ _______ _____ _____    ______ ____
ROOT
ATOM      6  N   UNL     1       1.044   2.961  24.372  0.00  0.00    -0.306 N 
ATOM      7  N   UNL     1      -0.235   1.003  24.554  0.00  0.00    -0.214 NA
ATOM      8  N   UNL     1       1.617   1.133  23.017  0.00  0.00    -0.223 NA
ATOM     19  C   UNL     1       0.801   1.661  23.969  0.00  0.00    +0.216 A 
ATOM     20  C   UNL     1      -0.443  -0.264  24.138  0.00  0.00    +0.076 A 
ATOM     21  C   UNL     1       1.353  -0.137  22.649  0.00  0.00    +0.116 A 
ATOM     22  C   UNL     1       0.326  -0.892  23.179  0.00  0.00    +0.048 A 
ATOM     30  H   UNL     1       1.785   3.459  23.892  0.00  0.00    +0.149 HD
ENDROOT
BRANCH   6  12
ATOM      2  O   UNL     1      -1.768   3.382  26.666  0.00  0.00    -0.370 OA
ATOM      3  O   UNL     1      -1.174   5.120  24.169  0.00  0.00    -0.370 OA
ATOM      9  C   UNL     1      -1.886   3.884  24.347  0.00  0.00    +0.171 C 
ATOM     10  C   UNL     1      -1.145   3.088  25.404  0.00  0.00    +0.171 C 
ATOM     11  C   UNL     1      -3.244   4.144  24.963  0.00  0.00    +0.130 C 
ATOM     12  C   UNL     1       0.256   3.650  25.371  0.00  0.00    +0.130 C 
ATOM     14  C   UNL     1      -2.903   4.233  26.443  0.00  0.00    +0.185 C 
ATOM     15  C   UNL     1       0.026   5.092  24.957  0.00  0.00    +0.185 C 
BRANCH  11   5
ATOM      4  O   UNL     1      -6.047   3.886  25.739  0.00  0.00    -0.276 OA
ATOM      5  N   UNL     1      -4.138   3.012  24.730  0.00  0.00    -0.307 N 
ATOM     18  C   UNL     1      -5.459   2.992  25.142  0.00  0.00    +0.216 C 
ATOM     29  H   UNL     1      -3.773   2.217  24.214  0.00  0.00    +0.149 HD
BRANCH  18  13
ATOM     13  C   UNL     1      -6.187   1.735  24.799  0.00  0.00    +0.075 C 
ATOM     16  C   UNL     1      -5.391   0.546  24.380  0.00  0.00    +0.013 C 
ATOM     17  C   UNL     1      -6.063   0.571  25.722  0.00  0.00    +0.013 C 
ENDBRANCH  18  13
ENDBRANCH  11   5
ENDBRANCH   6  12
BRANCH  20  23
ATOM      1  F   UNL     1      -3.986  -3.543  24.031  0.00  0.00    -0.205 F 
ATOM     23  C   UNL     1      -1.548  -0.943  24.771  0.00  0.00    +0.003 A 
ATOM     24  C   UNL     1      -2.248  -1.935  24.083  0.00  0.00    +0.048 A 
ATOM     25  C   UNL     1      -1.920  -0.610  26.075  0.00  0.00    +0.010 A 
ATOM     26  C   UNL     1      -3.316  -2.592  24.694  0.00  0.00    +0.124 A 
ATOM     27  C   UNL     1      -2.988  -1.267  26.687  0.00  0.00    +0.003 A 
ATOM     28  C   UNL     1      -3.686  -2.258  25.998  0.00  0.00    +0.038 A 
ENDBRANCH  20  23
TORSDOF 4
ENDMDL
MODEL 3
REMARK VINA RESULT:      -2.6      2.608      5.214
REMARK  Name = 11913349
REMARK  4 active torsions:
REMARK  status: ('A' for Active; 'I' for Inactive)
REMARK    1  A    between atoms: N_5  and  C_11
REMARK    2  A    between atoms: N_6  and  C_12
REMARK    3  A    between atoms: C_13  and  C_18
REMARK    4  A    between atoms: C_20  and  C_23
REMARK                            x       y       z     vdW  Elec       q    Type
REMARK                         _______ _______ _______ _____ _____    ______ ____
ROOT
ATOM      6  N   UNL     1      -4.639  -0.662  25.433  0.00  0.00    -0.306 N 
ATOM      7  N   UNL     1      -3.439   1.347  25.254  0.00  0.00    -0.214 NA
ATOM      8  N   UNL     1      -5.762   1.233  24.624  0.00  0.00    -0.223 NA
ATOM     19  C   UNL     1      -4.613   0.679  25.093  0.00  0.00    +0.216 A 
ATOM     20  C   UNL     1      -3.449   2.652  24.913  0.00  0.00    +0.076 A 
ATOM     21  C   UNL     1      -5.702   2.541  24.303  0.00  0.00    +0.116 A 
ATOM     22  C   UNL     1      -4.561   3.310  24.428  0.00  0.00    +0.048 A 
ATOM     30  H   UNL     1      -5.503  -1.162  25.260  0.00  0.00    +0.149 HD
ENDROOT
BRANCH   6  12
ATOM      2  O   UNL     1      -1.102  -1.132  26.220  0.00  0.00    -0.370 OA
ATOM      3  O   UNL     1      -2.744  -2.757  24.153  0.00  0.00    -0.370 OA
ATOM      9  C   UNL     1      -2.024  -1.515  24.065  0.00  0.00    +0.171 C 
ATOM     10  C   UNL     1      -2.219  -0.789  25.382  0.00  0.00    +0.171 C 
ATOM     11  C   UNL     1      -0.534  -1.774  24.001  0.00  0.00    +0.130 C 
ATOM     12  C   UNL     1      -3.491  -1.381  25.941  0.00  0.00    +0.130 C 
ATOM     14  C   UNL     1      -0.185  -1.944  25.472  0.00  0.00    +0.185 C 
ATOM     15  C   UNL     1      -3.471  -2.795  25.390  0.00  0.00    +0.185 C 
BRANCH  11   5
ATOM      4  O   UNL     1       2.344  -1.414  23.664  0.00  0.00    -0.276 OA
ATOM      5  N   UNL     1       0.167  -0.612  23.459  0.00  0.00    -0.307 N 
ATOM     18  C   UNL     1       1.544  -0.543  23.342  0.00  0.00    +0.216 C 
ATOM     29  H   UNL     1      -0.394   0.167  23.127  0.00  0.00    +0.149 HD
BRANCH  18  13
ATOM     13  C   UNL     1       2.044   0.737  22.762  0.00  0.00    +0.075 C 
ATOM     16  C   UNL     1       3.398   1.216  23.162  0.00  0.00    +0.013 C 
ATOM     17  C   UNL     1       3.165   0.679  21.780  0.00  0.00    +0.013 C 
ENDBRANCH  18  13
ENDBRANCH  11   5
ENDBRANCH   6  12
BRANCH  20  23
ATOM      1  F   UNL     1       1.136   2.723  26.426  0.00  0.00    -0.205 F 
ATOM     23  C   UNL     1      -2.194   3.341  25.090  0.00  0.00    +0.003 A 
ATOM     24  C   UNL     1      -1.113   2.688  25.684  0.00  0.00    +0.048 A 
ATOM     25  C   UNL     1      -2.055   4.665  24.667  0.00  0.00    +0.010 A 
ATOM     26  C   UNL     1       0.101   3.353  25.855  0.00  0.00    +0.124 A 
ATOM     27  C   UNL     1      -0.842   5.332  24.838  0.00  0.00    +0.003 A 
ATOM     28  C   UNL     1       0.237   4.676  25.432  0.00  0.00    +0.038 A 
ENDBRANCH  20  23
TORSDOF 4
ENDMDL
MODEL 4
REMARK VINA RESULT:      -1.7      2.272      5.345
REMARK  Name = 11913349
REMARK  4 active torsions:
REMARK  status: ('A' for Active; 'I' for Inactive)
REMARK    1  A    between atoms: N_5  and  C_11
REMARK    2  A    between atoms: N_6  and  C_12
REMARK    3  A    between atoms: C_13  and  C_18
REMARK    4  A    between atoms: C_20  and  C_23
REMARK                            x       y       z     vdW  Elec       q    Type
REMARK                         _______ _______ _______ _____ _____    ______ ____
ROOT
ATOM      6  N   UNL     1      -0.953  -2.062  24.544  0.00  0.00    -0.306 N 
ATOM      7  N   UNL     1      -2.883  -0.743  24.750  0.00  0.00    -0.214 NA
ATOM      8  N   UNL     1      -2.994  -2.961  23.813  0.00  0.00    -0.223 NA
ATOM     19  C   UNL     1      -2.317  -1.917  24.364  0.00  0.00    +0.216 A 
ATOM     20  C   UNL     1      -4.214  -0.636  24.560  0.00  0.00    +0.076 A 
ATOM     21  C   UNL     1      -4.321  -2.786  23.653  0.00  0.00    +0.116 A 
ATOM     22  C   UNL     1      -4.993  -1.634  24.010  0.00  0.00    +0.048 A 
ATOM     30  H   UNL     1      -0.534  -2.921  24.205  0.00  0.00    +0.149 HD
ENDROOT
BRANCH   6  12
ATOM      2  O   UNL     1      -0.250   1.166  26.104  0.00  0.00    -0.370 OA
ATOM      3  O   UNL     1       0.655   0.269  23.278  0.00  0.00    -0.370 OA
ATOM      9  C   UNL     1      -0.551   0.882  23.765  0.00  0.00    +0.171 C 
ATOM     10  C   UNL     1      -0.838   0.287  25.130  0.00  0.00    +0.171 C 
ATOM     11  C   UNL     1      -0.318   2.352  24.043  0.00  0.00    +0.130 C 
ATOM     12  C   UNL     1      -0.108  -1.035  25.114  0.00  0.00    +0.130 C 
ATOM     14  C   UNL     1       0.297   2.311  25.434  0.00  0.00    +0.185 C 
ATOM     15  C   UNL     1       1.069  -0.754  24.197  0.00  0.00    +0.185 C 
BRANCH  11   5
ATOM      4  O   UNL     1      -0.793   5.088  24.947  0.00  0.00    -0.276 OA
ATOM      5  N   UNL     1      -1.588   3.074  24.086  0.00  0.00    -0.307 N 
ATOM     18  C   UNL     1      -1.704   4.378  24.535  0.00  0.00    +0.216 C 
ATOM     29  H   UNL     1      -2.415   2.598  23.740  0.00  0.00    +0.149 HD
BRANCH  18  13
ATOM     13  C   UNL     1      -3.094   4.917  24.492  0.00  0.00    +0.075 C 
ATOM     16  C   UNL     1      -3.454   5.864  23.398  0.00  0.00    +0.013 C 
ATOM     17  C   UNL     1      -3.995   4.464  23.393  0.00  0.00    +0.013 C 
ENDBRANCH  18  13
ENDBRANCH  11   5
ENDBRANCH   6  12
BRANCH  20  23
ATOM      1  F   UNL     1      -3.882   3.594  26.865  0.00  0.00    -0.205 F 
ATOM     23  C   UNL     1      -4.793   0.619  24.975  0.00  0.00    +0.003 A 
ATOM     24  C   UNL     1      -4.044   1.520  25.735  0.00  0.00    +0.048 A 
ATOM     25  C   UNL     1      -6.106   0.937  24.619  0.00  0.00    +0.010 A 
ATOM     26  C   UNL     1      -4.604   2.732  26.137  0.00  0.00    +0.124 A 
ATOM     27  C   UNL     1      -6.666   2.150  25.020  0.00  0.00    +0.003 A 
ATOM     28  C   UNL     1      -5.915   3.048  25.779  0.00  0.00    +0.038 A 
ENDBRANCH  20  23
TORSDOF 4
ENDMDL
MODEL 5
REMARK VINA RESULT:      -1.2      2.360      4.630
REMARK  Name = 11913349
REMARK  4 active torsions:
REMARK  status: ('A' for Active; 'I' for Inactive)
REMARK    1  A    between atoms: N_5  and  C_11
REMARK    2  A    between atoms: N_6  and  C_12
REMARK    3  A    between atoms: C_13  and  C_18
REMARK    4  A    between atoms: C_20  and  C_23
REMARK                            x       y       z     vdW  Elec       q    Type
REMARK                         _______ _______ _______ _____ _____    ______ ____
ROOT
ATOM      6  N   UNL     1      -3.072   5.176  25.746  0.00  0.00    -0.306 N 
ATOM      7  N   UNL     1      -1.796   3.277  25.226  0.00  0.00    -0.214 NA
ATOM      8  N   UNL     1      -1.047   5.481  24.601  0.00  0.00    -0.223 NA
ATOM     19  C   UNL     1      -1.938   4.628  25.174  0.00  0.00    +0.216 A 
ATOM     20  C   UNL     1      -0.679   2.777  24.659  0.00  0.00    +0.076 A 
ATOM     21  C   UNL     1       0.048   4.913  24.055  0.00  0.00    +0.116 A 
ATOM     22  C   UNL     1       0.288   3.554  24.053  0.00  0.00    +0.048 A 
ATOM     30  H   UNL     1      -3.193   6.179  25.655  0.00  0.00    +0.149 HD
ENDROOT
BRANCH   6  12
ATOM      2  O   UNL     1      -4.730   2.088  26.776  0.00  0.00    -0.370 OA
ATOM      3  O   UNL     1      -5.848   4.182  24.783  0.00  0.00    -0.370 OA
ATOM      9  C   UNL     1      -4.979   3.049  24.618  0.00  0.00    +0.171 C 
ATOM     10  C   UNL     1      -4.092   2.980  25.846  0.00  0.00    +0.171 C 
ATOM     11  C   UNL     1      -5.778   1.763  24.665  0.00  0.00    +0.130 C 
ATOM     12  C   UNL     1      -4.105   4.391  26.385  0.00  0.00    +0.130 C 
ATOM     14  C   UNL     1      -5.902   1.529  26.163  0.00  0.00    +0.185 C 
ATOM     15  C   UNL     1      -5.477   4.892  25.975  0.00  0.00    +0.185 C 
BRANCH  11   5
ATOM      4  O   UNL     1      -4.411  -0.439  26.011  0.00  0.00    -0.276 OA
ATOM      5  N   UNL     1      -5.026   0.669  24.056  0.00  0.00    -0.307 N 
ATOM     18  C   UNL     1      -4.413  -0.331  24.790  0.00  0.00    +0.216 C 
ATOM     29  H   UNL     1      -4.981   0.631  23.042  0.00  0.00    +0.149 HD
BRANCH  18  13
ATOM     13  C   UNL     1      -3.700  -1.348  23.961  0.00  0.00    +0.075 C 
ATOM     16  C   UNL     1      -3.441  -2.691  24.554  0.00  0.00    +0.013 C 
ATOM     17  C   UNL     1      -4.469  -2.528  23.473  0.00  0.00    +0.013 C 
ENDBRANCH  18  13
ENDBRANCH  11   5
ENDBRANCH   6  12
BRANCH  20  23
ATOM      1  F   UNL     1      -1.383  -1.412  26.956  0.00  0.00    -0.205 F 
ATOM     23  C   UNL     1      -0.548   1.341  24.725  0.00  0.00    +0.003 A 
ATOM     24  C   UNL     1      -1.038   0.642  25.830  0.00  0.00    +0.048 A 
ATOM     25  C   UNL     1       0.067   0.645  23.682  0.00  0.00    +0.010 A 
ATOM     26  C   UNL     1      -0.913  -0.745  25.894  0.00  0.00    +0.124 A 
ATOM     27  C   UNL     1       0.193  -0.743  23.745  0.00  0.00    +0.003 A 
ATOM     28  C   UNL     1      -0.297  -1.439  24.851  0.00  0.00    +0.038 A 
ENDBRANCH  20  23
TORSDOF 4
ENDMDL
MODEL 6
REMARK VINA RESULT:      -1.2      1.932      4.592
REMARK  Name = 11913349
REMARK  4 active torsions:
REMARK  status: ('A' for Active; 'I' for Inactive)
REMARK    1  A    between atoms: N_5  and  C_11
REMARK    2  A    between atoms: N_6  and  C_12
REMARK    3  A    between atoms: C_13  and  C_18
REMARK    4  A    between atoms: C_20  and  C_23
REMARK                            x       y       z     vdW  Elec       q    Type
REMARK                         _______ _______ _______ _____ _____    ______ ____
ROOT
ATOM      6  N   UNL     1       0.754   3.138  24.514  0.00  0.00    -0.306 N 
ATOM      7  N   UNL     1      -0.200   0.998  24.634  0.00  0.00    -0.214 NA
ATOM      8  N   UNL     1       1.635   1.452  23.140  0.00  0.00    -0.223 NA
ATOM     19  C   UNL     1       0.729   1.823  24.083  0.00  0.00    +0.216 A 
ATOM     20  C   UNL     1      -0.197  -0.277  24.191  0.00  0.00    +0.076 A 
ATOM     21  C   UNL     1       1.583   0.164  22.744  0.00  0.00    +0.116 A 
ATOM     22  C   UNL     1       0.679  -0.755  23.239  0.00  0.00    +0.048 A 
ATOM     30  H   UNL     1       1.416   3.757  24.059  0.00  0.00    +0.149 HD
ENDROOT
BRANCH   6  12
ATOM      2  O   UNL     1      -2.179   3.094  26.692  0.00  0.00    -0.370 OA
ATOM      3  O   UNL     1      -1.700   5.024  24.315  0.00  0.00    -0.370 OA
ATOM      9  C   UNL     1      -2.263   3.704  24.398  0.00  0.00    +0.171 C 
ATOM     10  C   UNL     1      -1.474   2.945  25.447  0.00  0.00    +0.171 C 
ATOM     11  C   UNL     1      -3.666   3.766  24.962  0.00  0.00    +0.130 C 
ATOM     12  C   UNL     1      -0.151   3.672  25.508  0.00  0.00    +0.130 C 
ATOM     14  C   UNL     1      -3.398   3.814  26.458  0.00  0.00    +0.185 C 
ATOM     15  C   UNL     1      -0.538   5.097  25.156  0.00  0.00    +0.185 C 
BRANCH  11   5
ATOM      4  O   UNL     1      -2.981   1.734  22.979  0.00  0.00    -0.276 OA
ATOM      5  N   UNL     1      -4.406   2.550  24.632  0.00  0.00    -0.307 N 
ATOM     18  C   UNL     1      -3.991   1.647  23.669  0.00  0.00    +0.216 C 
ATOM     29  H   UNL     1      -5.250   2.350  25.161  0.00  0.00    +0.149 HD
BRANCH  18  13
ATOM     13  C   UNL     1      -4.899   0.476  23.498  0.00  0.00    +0.075 C 
ATOM     16  C   UNL     1      -4.299  -0.889  23.464  0.00  0.00    +0.013 C 
ATOM     17  C   UNL     1      -5.096  -0.443  24.656  0.00  0.00    +0.013 C 
ENDBRANCH  18  13
ENDBRANCH  11   5
ENDBRANCH   6  12
BRANCH  20  23
ATOM      1  F   UNL     1      -3.360  -1.240  27.710  0.00  0.00    -0.205 F 
ATOM     23  C   UNL     1      -1.191  -1.136  24.788  0.00  0.00    +0.003 A 
ATOM     24  C   UNL     1      -1.809  -0.767  25.985  0.00  0.00    +0.048 A 
ATOM     25  C   UNL     1      -1.540  -2.338  24.171  0.00  0.00    +0.010 A 
ATOM     26  C   UNL     1      -2.770  -1.596  26.562  0.00  0.00    +0.124 A 
ATOM     27  C   UNL     1      -2.502  -3.169  24.748  0.00  0.00    +0.003 A 
ATOM     28  C   UNL     1      -3.117  -2.798  25.943  0.00  0.00    +0.038 A 
ENDBRANCH  20  23
TORSDOF 4
ENDMDL
