MODEL 1
REMARK VINA RESULT:       5.2      0.000      0.000
REMARK  Name = 9422184
REMARK  4 active torsions:
REMARK  status: ('A' for Active; 'I' for Inactive)
REMARK    1  A    between atoms: O_3  and  C_26
REMARK    2  A    between atoms: O_3  and  C_31
REMARK    3  A    between atoms: N_6  and  C_25
REMARK    4  A    between atoms: C_14  and  C_15
REMARK                            x       y       z     vdW  Elec       q    Type
REMARK                         _______ _______ _______ _____ _____    ______ ____
ROOT
ATOM      1  O   UNL     1       0.295   2.216  26.083  0.00  0.00    -0.267 OA
ATOM      2  O   UNL     1      -4.517   0.198  26.525  0.00  0.00    -0.252 OA
ATOM      4  N   UNL     1      -1.580   2.987  24.924  0.00  0.00    -0.312 N 
ATOM      5  N   UNL     1      -4.622   2.041  25.130  0.00  0.00    -0.284 N 
ATOM      6  N   UNL     1      -4.603  -0.141  24.233  0.00  0.00    -0.266 N 
ATOM      7  C   UNL     1      -3.568   4.094  26.095  0.00  0.00    +0.027 C 
ATOM      8  C   UNL     1      -3.609   3.777  23.658  0.00  0.00    +0.054 C 
ATOM      9  C   UNL     1      -3.773   4.813  24.768  0.00  0.00    +0.018 C 
ATOM     10  C   UNL     1      -2.131   3.563  26.158  0.00  0.00    +0.130 C 
ATOM     11  C   UNL     1      -4.608   2.973  26.262  0.00  0.00    +0.114 C 
ATOM     12  C   UNL     1      -4.685   2.680  23.803  0.00  0.00    +0.119 C 
ATOM     13  C   UNL     1      -2.230   3.147  23.699  0.00  0.00    +0.027 A 
ATOM     15  C   UNL     1       0.288   1.865  23.746  0.00  0.00    +0.020 A 
ATOM     16  C   UNL     1      -0.321   2.362  25.026  0.00  0.00    +0.255 A 
ATOM     17  C   UNL     1      -1.649   2.714  22.567  0.00  0.00    +0.022 A 
ATOM     20  C   UNL     1      -0.371   2.062  22.598  0.00  0.00    +0.011 A 
ATOM     24  C   UNL     1      -4.569   0.651  25.379  0.00  0.00    +0.307 C 
ATOM     32  H   UNL     1      -5.074   0.220  23.412  0.00  0.00    +0.156 HD
ENDROOT
BRANCH  15  14
ATOM     14  C   UNL     1       1.618   1.178  23.824  0.00  0.00    +0.024 C 
ATOM     18  C   UNL     1       1.509  -0.281  23.359  0.00  0.00    +0.008 C 
ATOM     19  C   UNL     1       2.672   1.933  23.002  0.00  0.00    +0.008 C 
ATOM     21  C   UNL     1       2.864  -0.986  23.384  0.00  0.00    +0.001 C 
ATOM     22  C   UNL     1       4.025   1.224  23.028  0.00  0.00    +0.001 C 
ATOM     23  C   UNL     1       3.908  -0.227  22.573  0.00  0.00    +0.000 C 
ENDBRANCH  15  14
BRANCH   6  25
ATOM     25  C   UNL     1      -4.093  -1.455  24.087  0.00  0.00    +0.077 A 
ATOM     26  C   UNL     1      -2.752  -1.728  24.350  0.00  0.00    +0.141 A 
ATOM     27  C   UNL     1      -4.948  -2.476  23.677  0.00  0.00    +0.027 A 
ATOM     28  C   UNL     1      -2.264  -3.026  24.202  0.00  0.00    +0.047 A 
ATOM     29  C   UNL     1      -4.461  -3.774  23.529  0.00  0.00    +0.002 A 
ATOM     30  C   UNL     1      -3.120  -4.049  23.792  0.00  0.00    +0.004 A 
BRANCH  26   3
ATOM      3  O   UNL     1      -1.901  -0.742  24.751  0.00  0.00    -0.493 OA
ATOM     31  C   UNL     1      -1.139  -0.986  25.931  0.00  0.00    +0.277 C 
ENDBRANCH  26   3
ENDBRANCH   6  25
TORSDOF 3
ENDMDL
MODEL 2
REMARK VINA RESULT:       6.6      1.860      5.364
REMARK  Name = 9422184
REMARK  4 active torsions:
REMARK  status: ('A' for Active; 'I' for Inactive)
REMARK    1  A    between atoms: O_3  and  C_26
REMARK    2  A    between atoms: O_3  and  C_31
REMARK    3  A    between atoms: N_6  and  C_25
REMARK    4  A    between atoms: C_14  and  C_15
REMARK                            x       y       z     vdW  Elec       q    Type
REMARK                         _______ _______ _______ _____ _____    ______ ____
ROOT
ATOM      1  O   UNL     1      -0.133  -1.386  21.904  0.00  0.00    -0.267 OA
ATOM      2  O   UNL     1      -4.188   1.540  23.459  0.00  0.00    -0.252 OA
ATOM      4  N   UNL     1      -1.402  -1.789  23.822  0.00  0.00    -0.312 N 
ATOM      5  N   UNL     1      -3.992  -0.262  24.896  0.00  0.00    -0.284 N 
ATOM      6  N   UNL     1      -3.183   1.864  25.523  0.00  0.00    -0.266 N 
ATOM      7  C   UNL     1      -3.867  -2.470  23.729  0.00  0.00    +0.027 C 
ATOM      8  C   UNL     1      -2.762  -2.179  25.906  0.00  0.00    +0.054 C 
ATOM      9  C   UNL     1      -3.586  -3.150  25.063  0.00  0.00    +0.018 C 
ATOM     10  C   UNL     1      -2.538  -2.231  23.003  0.00  0.00    +0.130 C 
ATOM     11  C   UNL     1      -4.651  -1.166  23.949  0.00  0.00    +0.114 C 
ATOM     12  C   UNL     1      -3.573  -0.891  26.162  0.00  0.00    +0.119 C 
ATOM     13  C   UNL     1      -1.456  -1.831  25.217  0.00  0.00    +0.027 A 
ATOM     15  C   UNL     1       0.963  -1.067  23.973  0.00  0.00    +0.020 A 
ATOM     16  C   UNL     1      -0.230  -1.421  23.132  0.00  0.00    +0.255 A 
ATOM     17  C   UNL     1      -0.366  -1.533  25.943  0.00  0.00    +0.022 A 
ATOM     20  C   UNL     1       0.859  -1.144  25.305  0.00  0.00    +0.011 A 
ATOM     24  C   UNL     1      -3.806   1.093  24.543  0.00  0.00    +0.307 C 
ATOM     32  H   UNL     1      -3.297   1.593  26.493  0.00  0.00    +0.156 HD
ENDROOT
BRANCH  15  14
ATOM     14  C   UNL     1       2.220  -0.653  23.267  0.00  0.00    +0.024 C 
ATOM     18  C   UNL     1       2.374   0.874  23.276  0.00  0.00    +0.008 C 
ATOM     19  C   UNL     1       3.446  -1.327  23.897  0.00  0.00    +0.008 C 
ATOM     21  C   UNL     1       3.673   1.315  22.604  0.00  0.00    +0.001 C 
ATOM     22  C   UNL     1       4.744  -0.882  23.224  0.00  0.00    +0.001 C 
ATOM     23  C   UNL     1       4.887   0.636  23.229  0.00  0.00    +0.000 C 
ENDBRANCH  15  14
BRANCH   6  25
ATOM     25  C   UNL     1      -2.434   3.051  25.329  0.00  0.00    +0.077 A 
ATOM     26  C   UNL     1      -2.955   4.287  25.709  0.00  0.00    +0.141 A 
ATOM     27  C   UNL     1      -1.168   2.971  24.755  0.00  0.00    +0.027 A 
ATOM     28  C   UNL     1      -2.206   5.447  25.513  0.00  0.00    +0.047 A 
ATOM     29  C   UNL     1      -0.419   4.130  24.558  0.00  0.00    +0.002 A 
ATOM     30  C   UNL     1      -0.937   5.368  24.937  0.00  0.00    +0.004 A 
BRANCH  26   3
ATOM      3  O   UNL     1      -4.192   4.384  26.273  0.00  0.00    -0.493 OA
ATOM     31  C   UNL     1      -5.313   4.252  25.401  0.00  0.00    +0.277 C 
ENDBRANCH  26   3
ENDBRANCH   6  25
TORSDOF 3
ENDMDL
