MODEL 1
REMARK VINA RESULT:      -3.3      0.000      0.000
REMARK  Name = 45783484
REMARK  9 active torsions:
REMARK  status: ('A' for Active; 'I' for Inactive)
REMARK    1  A    between atoms: O_4  and  C_30
REMARK    2  A    between atoms: O_4  and  C_31
REMARK    3  A    between atoms: N_5  and  C_14
REMARK    4  A    between atoms: N_9  and  C_28
REMARK    5  A    between atoms: N_9  and  C_29
REMARK    6  A    between atoms: C_10  and  C_15
REMARK    7  A    between atoms: C_14  and  C_16
REMARK    8  A    between atoms: C_19  and  C_23
REMARK    9  A    between atoms: C_29  and  C_30
REMARK                            x       y       z     vdW  Elec       q    Type
REMARK                         _______ _______ _______ _____ _____    ______ ____
ROOT
ATOM      1  O   UNL     1      -2.673   3.795  24.830  0.00  0.00    -0.336 OA
ATOM      6  N   UNL     1      -2.531   1.734  23.964  0.00  0.00    -0.190 NA
ATOM      7  N   UNL     1      -1.311   3.564  24.598  0.00  0.00    -0.056 NA
ATOM     15  C   UNL     1      -3.320   2.668  24.431  0.00  0.00    +0.245 A 
ATOM     19  C   UNL     1      -1.309   2.329  24.087  0.00  0.00    +0.204 A 
ENDROOT
BRANCH  19  23
ATOM      8  N   UNL     1       2.310   1.673  23.536  0.00  0.00    -0.240 NA
ATOM     23  C   UNL     1      -0.102   1.661  23.691  0.00  0.00    +0.041 A 
ATOM     25  C   UNL     1      -0.141   0.404  23.096  0.00  0.00    +0.016 A 
ATOM     26  C   UNL     1       1.137   2.248  23.887  0.00  0.00    +0.124 A 
ATOM     27  C   UNL     1       1.044  -0.219  22.722  0.00  0.00    +0.044 A 
ATOM     28  C   UNL     1       2.233   0.451  22.962  0.00  0.00    +0.119 A 
BRANCH  28   9
ATOM      9  N   UNL     1       3.433  -0.197  22.576  0.00  0.00    -0.327 N 
ATOM     32  H   UNL     1       3.355  -1.172  22.312  0.00  0.00    +0.148 HD
BRANCH   9  29
ATOM     29  C   UNL     1       4.695   0.468  22.559  0.00  0.00    +0.131 C 
BRANCH  29  30
ATOM     30  C   UNL     1       5.284   0.500  23.960  0.00  0.00    +0.178 C 
BRANCH  30   4
ATOM      4  O   UNL     1       5.742  -0.798  24.311  0.00  0.00    -0.381 OA
ATOM     31  C   UNL     1       4.784  -1.795  23.986  0.00  0.00    +0.194 C 
ENDBRANCH  30   4
ENDBRANCH  29  30
ENDBRANCH   9  29
ENDBRANCH  28   9
ENDBRANCH  19  23
BRANCH  15  10
ATOM      5  N   UNL     1      -5.316   1.528  25.382  0.00  0.00    -0.287 NA
ATOM     10  C   UNL     1      -4.826   2.667  24.580  0.00  0.00    +0.146 C 
ATOM     11  C   UNL     1      -5.352   3.916  25.313  0.00  0.00    +0.030 C 
ATOM     12  C   UNL     1      -6.175   3.378  26.475  0.00  0.00    +0.017 C 
ATOM     13  C   UNL     1      -6.548   1.979  26.030  0.00  0.00    +0.085 C 
BRANCH   5  14
ATOM     14  C   UNL     1      -5.523   0.318  24.596  0.00  0.00    +0.120 C 
BRANCH  14  16
ATOM      2  O   UNL     1      -1.016  -0.966  26.189  0.00  0.00    -0.453 OA
ATOM      3  O   UNL     1      -1.002  -2.992  24.884  0.00  0.00    -0.453 OA
ATOM     16  C   UNL     1      -4.325  -0.593  24.647  0.00  0.00    -0.030 A 
ATOM     17  C   UNL     1      -3.233  -0.259  25.453  0.00  0.00    +0.054 A 
ATOM     18  C   UNL     1      -4.316  -1.775  23.885  0.00  0.00    +0.009 A 
ATOM     20  C   UNL     1      -2.160  -1.126  25.470  0.00  0.00    +0.167 A 
ATOM     21  C   UNL     1      -3.216  -2.635  23.921  0.00  0.00    +0.050 A 
ATOM     22  C   UNL     1      -2.152  -2.282  24.724  0.00  0.00    +0.166 A 
ATOM     24  C   UNL     1      -0.287  -2.153  25.813  0.00  0.00    +0.466 C 
ENDBRANCH  14  16
ENDBRANCH   5  14
ENDBRANCH  15  10
TORSDOF 8
ENDMDL
MODEL 2
REMARK VINA RESULT:      -1.4      1.047      1.787
REMARK  Name = 45783484
REMARK  9 active torsions:
REMARK  status: ('A' for Active; 'I' for Inactive)
REMARK    1  A    between atoms: O_4  and  C_30
REMARK    2  A    between atoms: O_4  and  C_31
REMARK    3  A    between atoms: N_5  and  C_14
REMARK    4  A    between atoms: N_9  and  C_28
REMARK    5  A    between atoms: N_9  and  C_29
REMARK    6  A    between atoms: C_10  and  C_15
REMARK    7  A    between atoms: C_14  and  C_16
REMARK    8  A    between atoms: C_19  and  C_23
REMARK    9  A    between atoms: C_29  and  C_30
REMARK                            x       y       z     vdW  Elec       q    Type
REMARK                         _______ _______ _______ _____ _____    ______ ____
ROOT
ATOM      1  O   UNL     1      -2.345   2.949  25.698  0.00  0.00    -0.336 OA
ATOM      6  N   UNL     1      -2.215   1.994  23.676  0.00  0.00    -0.190 NA
ATOM      7  N   UNL     1      -1.021   2.516  25.556  0.00  0.00    -0.056 NA
ATOM     15  C   UNL     1      -2.980   2.601  24.547  0.00  0.00    +0.245 A 
ATOM     19  C   UNL     1      -1.023   1.964  24.338  0.00  0.00    +0.204 A 
ENDROOT
BRANCH  19  23
ATOM      8  N   UNL     1       1.183  -0.519  22.666  0.00  0.00    -0.240 NA
ATOM     23  C   UNL     1       0.148   1.373  23.758  0.00  0.00    +0.041 A 
ATOM     25  C   UNL     1       1.353   2.068  23.712  0.00  0.00    +0.016 A 
ATOM     26  C   UNL     1       0.116   0.095  23.226  0.00  0.00    +0.124 A 
ATOM     27  C   UNL     1       2.472   1.470  23.144  0.00  0.00    +0.044 A 
ATOM     28  C   UNL     1       2.337   0.187  22.640  0.00  0.00    +0.119 A 
BRANCH  28   9
ATOM      9  N   UNL     1       3.486  -0.409  22.063  0.00  0.00    -0.327 N 
ATOM     32  H   UNL     1       3.335  -0.966  21.230  0.00  0.00    +0.148 HD
BRANCH   9  29
ATOM     29  C   UNL     1       4.793  -0.250  22.612  0.00  0.00    +0.131 C 
BRANCH  29  30
ATOM     30  C   UNL     1       5.006  -1.246  23.740  0.00  0.00    +0.178 C 
BRANCH  30   4
ATOM      4  O   UNL     1       5.578  -0.580  24.858  0.00  0.00    -0.381 OA
ATOM     31  C   UNL     1       5.876   0.776  24.559  0.00  0.00    +0.194 C 
ENDBRANCH  30   4
ENDBRANCH  29  30
ENDBRANCH   9  29
ENDBRANCH  28   9
ENDBRANCH  19  23
BRANCH  15  10
ATOM      5  N   UNL     1      -5.272   2.273  25.458  0.00  0.00    -0.287 NA
ATOM     10  C   UNL     1      -4.446   2.966  24.449  0.00  0.00    +0.146 C 
ATOM     11  C   UNL     1      -4.703   4.464  24.697  0.00  0.00    +0.030 C 
ATOM     12  C   UNL     1      -5.730   4.512  25.819  0.00  0.00    +0.017 C 
ATOM     13  C   UNL     1      -6.403   3.157  25.744  0.00  0.00    +0.085 C 
BRANCH   5  14
ATOM     14  C   UNL     1      -5.706   0.948  25.033  0.00  0.00    +0.120 C 
BRANCH  14  16
ATOM      2  O   UNL     1      -3.232  -2.972  23.300  0.00  0.00    -0.453 OA
ATOM      3  O   UNL     1      -1.544  -2.814  25.013  0.00  0.00    -0.453 OA
ATOM     16  C   UNL     1      -4.576  -0.046  25.060  0.00  0.00    -0.030 A 
ATOM     17  C   UNL     1      -4.512  -1.050  24.090  0.00  0.00    +0.054 A 
ATOM     18  C   UNL     1      -3.591   0.046  26.059  0.00  0.00    +0.009 A 
ATOM     20  C   UNL     1      -3.456  -1.935  24.153  0.00  0.00    +0.167 A 
ATOM     21  C   UNL     1      -2.532  -0.864  26.100  0.00  0.00    +0.050 A 
ATOM     22  C   UNL     1      -2.493  -1.845  25.132  0.00  0.00    +0.166 A 
ATOM     24  C   UNL     1      -2.018  -3.523  23.851  0.00  0.00    +0.466 C 
ENDBRANCH  14  16
ENDBRANCH   5  14
ENDBRANCH  15  10
TORSDOF 8
ENDMDL
MODEL 3
REMARK VINA RESULT:      -0.3      1.701      4.073
REMARK  Name = 45783484
REMARK  9 active torsions:
REMARK  status: ('A' for Active; 'I' for Inactive)
REMARK    1  A    between atoms: O_4  and  C_30
REMARK    2  A    between atoms: O_4  and  C_31
REMARK    3  A    between atoms: N_5  and  C_14
REMARK    4  A    between atoms: N_9  and  C_28
REMARK    5  A    between atoms: N_9  and  C_29
REMARK    6  A    between atoms: C_10  and  C_15
REMARK    7  A    between atoms: C_14  and  C_16
REMARK    8  A    between atoms: C_19  and  C_23
REMARK    9  A    between atoms: C_29  and  C_30
REMARK                            x       y       z     vdW  Elec       q    Type
REMARK                         _______ _______ _______ _____ _____    ______ ____
ROOT
ATOM      1  O   UNL     1      -2.052  -0.018  26.022  0.00  0.00    -0.336 OA
ATOM      6  N   UNL     1      -1.359  -0.953  24.109  0.00  0.00    -0.190 NA
ATOM      7  N   UNL     1      -0.795   0.539  25.750  0.00  0.00    -0.056 NA
ATOM     15  C   UNL     1      -2.307  -0.886  25.008  0.00  0.00    +0.245 A 
ATOM     19  C   UNL     1      -0.452  -0.063  24.606  0.00  0.00    +0.204 A 
ENDROOT
BRANCH  19  23
ATOM      8  N   UNL     1       2.642  -0.615  22.619  0.00  0.00    -0.240 NA
ATOM     23  C   UNL     1       0.789   0.204  23.938  0.00  0.00    +0.041 A 
ATOM     25  C   UNL     1       1.346   1.478  23.943  0.00  0.00    +0.016 A 
ATOM     26  C   UNL     1       1.470  -0.799  23.268  0.00  0.00    +0.124 A 
ATOM     27  C   UNL     1       2.551   1.707  23.288  0.00  0.00    +0.044 A 
ATOM     28  C   UNL     1       3.154   0.637  22.646  0.00  0.00    +0.119 A 
BRANCH  28   9
ATOM      9  N   UNL     1       4.380   0.885  21.981  0.00  0.00    -0.327 N 
ATOM     32  H   UNL     1       4.351   1.544  21.212  0.00  0.00    +0.148 HD
BRANCH   9  29
ATOM     29  C   UNL     1       5.601   0.249  22.355  0.00  0.00    +0.131 C 
BRANCH  29  30
ATOM     30  C   UNL     1       5.924   0.557  23.808  0.00  0.00    +0.178 C 
BRANCH  30   4
ATOM      4  O   UNL     1       5.417  -0.481  24.636  0.00  0.00    -0.381 OA
ATOM     31  C   UNL     1       5.385  -1.725  23.952  0.00  0.00    +0.194 C 
ENDBRANCH  30   4
ENDBRANCH  29  30
ENDBRANCH   9  29
ENDBRANCH  28   9
ENDBRANCH  19  23
BRANCH  15  10
ATOM      5  N   UNL     1      -4.545  -1.239  23.980  0.00  0.00    -0.287 NA
ATOM     10  C   UNL     1      -3.626  -1.625  25.070  0.00  0.00    +0.146 C 
ATOM     11  C   UNL     1      -3.460  -3.149  24.919  0.00  0.00    +0.030 C 
ATOM     12  C   UNL     1      -4.369  -3.536  23.761  0.00  0.00    +0.017 C 
ATOM     13  C   UNL     1      -5.381  -2.410  23.710  0.00  0.00    +0.085 C 
BRANCH   5  14
ATOM     14  C   UNL     1      -5.341  -0.058  24.290  0.00  0.00    +0.120 C 
BRANCH  14  16
ATOM      2  O   UNL     1      -3.745   4.097  26.455  0.00  0.00    -0.453 OA
ATOM      3  O   UNL     1      -2.237   4.603  24.644  0.00  0.00    -0.453 OA
ATOM     16  C   UNL     1      -4.494   1.186  24.350  0.00  0.00    -0.030 A 
ATOM     17  C   UNL     1      -4.587   2.035  25.456  0.00  0.00    +0.054 A 
ATOM     18  C   UNL     1      -3.614   1.482  23.294  0.00  0.00    +0.009 A 
ATOM     20  C   UNL     1      -3.789   3.160  25.469  0.00  0.00    +0.167 A 
ATOM     21  C   UNL     1      -2.818   2.628  23.331  0.00  0.00    +0.050 A 
ATOM     22  C   UNL     1      -2.929   3.449  24.434  0.00  0.00    +0.166 A 
ATOM     24  C   UNL     1      -2.759   5.007  25.926  0.00  0.00    +0.466 C 
ENDBRANCH  14  16
ENDBRANCH   5  14
ENDBRANCH  15  10
TORSDOF 8
ENDMDL
