MODEL 1
REMARK VINA RESULT:      -0.3      0.000      0.000
REMARK  Name = 45784302
REMARK  6 active torsions:
REMARK  status: ('A' for Active; 'I' for Inactive)
REMARK    1  A    between atoms: O_4  and  C_21
REMARK    2  A    between atoms: O_4  and  C_27
REMARK    3  A    between atoms: N_5  and  C_13
REMARK    4  A    between atoms: C_8  and  C_12
REMARK    5  A    between atoms: C_13  and  C_14
REMARK    6  A    between atoms: C_25  and  C_26
REMARK                            x       y       z     vdW  Elec       q    Type
REMARK                         _______ _______ _______ _____ _____    ______ ____
ROOT
ATOM      5  N   UNL     1      -3.340  -0.667  24.702  0.00  0.00    -0.297 NA
ATOM      8  C   UNL     1      -1.231  -1.286  23.884  0.00  0.00    +0.070 C 
ATOM      9  C   UNL     1      -1.439  -1.895  25.281  0.00  0.00    +0.028 C 
ATOM     10  C   UNL     1      -2.313  -0.204  23.765  0.00  0.00    +0.096 C 
ATOM     11  C   UNL     1      -2.599  -1.112  25.882  0.00  0.00    +0.085 C 
ENDROOT
BRANCH   8  12
ATOM      6  N   UNL     1       1.268  -1.521  23.865  0.00  0.00    -0.341 N 
ATOM      7  N   UNL     1       0.475   0.431  23.159  0.00  0.00    -0.232 NA
ATOM     12  C   UNL     1       0.161  -0.758  23.622  0.00  0.00    +0.113 A 
ATOM     15  C   UNL     1       2.371  -0.777  23.536  0.00  0.00    +0.070 A 
ATOM     16  C   UNL     1       1.851   0.438  23.098  0.00  0.00    +0.089 A 
ATOM     19  C   UNL     1       3.738  -1.052  23.582  0.00  0.00    +0.073 A 
ATOM     20  C   UNL     1       2.731   1.449  22.677  0.00  0.00    +0.033 A 
ATOM     21  C   UNL     1       4.600  -0.035  23.160  0.00  0.00    +0.122 A 
ATOM     24  C   UNL     1       4.108   1.194  22.715  0.00  0.00    +0.048 A 
ATOM     28  H   UNL     1       1.276  -2.468  24.224  0.00  0.00    +0.167 HD
BRANCH  21   4
ATOM      4  O   UNL     1       5.947  -0.248  23.183  0.00  0.00    -0.495 OA
ATOM     27  C   UNL     1       6.475  -0.914  24.329  0.00  0.00    +0.277 C 
ENDBRANCH  21   4
ENDBRANCH   8  12
BRANCH   5  13
ATOM     13  C   UNL     1      -4.312   0.368  25.015  0.00  0.00    +0.119 C 
BRANCH  13  14
ATOM     14  C   UNL     1      -3.698   1.743  24.988  0.00  0.00    -0.033 A 
ATOM     17  C   UNL     1      -2.514   1.991  25.684  0.00  0.00    +0.005 A 
ATOM     18  C   UNL     1      -4.313   2.767  24.269  0.00  0.00    +0.005 A 
ATOM     22  C   UNL     1      -1.945   3.263  25.658  0.00  0.00    +0.012 A 
ATOM     23  C   UNL     1      -3.742   4.041  24.244  0.00  0.00    +0.012 A 
ATOM     25  C   UNL     1      -2.559   4.289  24.938  0.00  0.00    +0.055 A 
BRANCH  25  26
ATOM      1  F   UNL     1      -0.583   5.634  24.868  0.00  0.00    -0.166 F 
ATOM      2  F   UNL     1      -2.273   6.395  26.004  0.00  0.00    -0.166 F 
ATOM      3  F   UNL     1      -2.328   6.396  23.830  0.00  0.00    -0.166 F 
ATOM     26  C   UNL     1      -1.947   5.648  24.908  0.00  0.00    +0.417 C 
ENDBRANCH  25  26
ENDBRANCH  13  14
ENDBRANCH   5  13
TORSDOF 5
ENDMDL
MODEL 2
REMARK VINA RESULT:      -0.3      0.089      1.170
REMARK  Name = 45784302
REMARK  6 active torsions:
REMARK  status: ('A' for Active; 'I' for Inactive)
REMARK    1  A    between atoms: O_4  and  C_21
REMARK    2  A    between atoms: O_4  and  C_27
REMARK    3  A    between atoms: N_5  and  C_13
REMARK    4  A    between atoms: C_8  and  C_12
REMARK    5  A    between atoms: C_13  and  C_14
REMARK    6  A    between atoms: C_25  and  C_26
REMARK                            x       y       z     vdW  Elec       q    Type
REMARK                         _______ _______ _______ _____ _____    ______ ____
ROOT
ATOM      5  N   UNL     1      -3.331  -0.702  24.689  0.00  0.00    -0.297 NA
ATOM      8  C   UNL     1      -1.216  -1.307  23.874  0.00  0.00    +0.070 C 
ATOM      9  C   UNL     1      -1.425  -1.921  25.269  0.00  0.00    +0.028 C 
ATOM     10  C   UNL     1      -2.305  -0.231  23.756  0.00  0.00    +0.096 C 
ATOM     11  C   UNL     1      -2.591  -1.147  25.870  0.00  0.00    +0.085 C 
ENDROOT
BRANCH   8  12
ATOM      6  N   UNL     1       1.282  -1.536  23.838  0.00  0.00    -0.341 N 
ATOM      7  N   UNL     1       0.482   0.430  23.179  0.00  0.00    -0.232 NA
ATOM     12  C   UNL     1       0.173  -0.770  23.618  0.00  0.00    +0.113 A 
ATOM     15  C   UNL     1       2.383  -0.782  23.519  0.00  0.00    +0.070 A 
ATOM     16  C   UNL     1       1.857   0.441  23.111  0.00  0.00    +0.089 A 
ATOM     19  C   UNL     1       3.750  -1.055  23.553  0.00  0.00    +0.073 A 
ATOM     20  C   UNL     1       2.733   1.463  22.708  0.00  0.00    +0.033 A 
ATOM     21  C   UNL     1       4.608  -0.027  23.149  0.00  0.00    +0.122 A 
ATOM     24  C   UNL     1       4.111   1.210  22.733  0.00  0.00    +0.048 A 
ATOM     28  H   UNL     1       1.295  -2.490  24.176  0.00  0.00    +0.167 HD
BRANCH  21   4
ATOM      4  O   UNL     1       5.956  -0.238  23.161  0.00  0.00    -0.495 OA
ATOM     27  C   UNL     1       6.494  -0.905  24.300  0.00  0.00    +0.277 C 
ENDBRANCH  21   4
ENDBRANCH   8  12
BRANCH   5  13
ATOM     13  C   UNL     1      -4.310   0.326  25.004  0.00  0.00    +0.119 C 
BRANCH  13  14
ATOM     14  C   UNL     1      -3.702   1.704  24.993  0.00  0.00    -0.033 A 
ATOM     17  C   UNL     1      -4.411   2.774  24.446  0.00  0.00    +0.005 A 
ATOM     18  C   UNL     1      -2.431   1.909  25.529  0.00  0.00    +0.005 A 
ATOM     22  C   UNL     1      -3.849   4.050  24.437  0.00  0.00    +0.012 A 
ATOM     23  C   UNL     1      -1.869   3.186  25.519  0.00  0.00    +0.012 A 
ATOM     25  C   UNL     1      -2.577   4.256  24.974  0.00  0.00    +0.055 A 
BRANCH  25  26
ATOM      1  F   UNL     1      -2.303   6.357  23.863  0.00  0.00    -0.166 F 
ATOM      2  F   UNL     1      -0.613   5.597  25.000  0.00  0.00    -0.166 F 
ATOM      3  F   UNL     1      -2.355   6.390  26.032  0.00  0.00    -0.166 F 
ATOM     26  C   UNL     1      -1.978   5.621  24.967  0.00  0.00    +0.417 C 
ENDBRANCH  25  26
ENDBRANCH  13  14
ENDBRANCH   5  13
TORSDOF 5
ENDMDL
MODEL 3
REMARK VINA RESULT:      -0.1      1.467      1.982
REMARK  Name = 45784302
REMARK  6 active torsions:
REMARK  status: ('A' for Active; 'I' for Inactive)
REMARK    1  A    between atoms: O_4  and  C_21
REMARK    2  A    between atoms: O_4  and  C_27
REMARK    3  A    between atoms: N_5  and  C_13
REMARK    4  A    between atoms: C_8  and  C_12
REMARK    5  A    between atoms: C_13  and  C_14
REMARK    6  A    between atoms: C_25  and  C_26
REMARK                            x       y       z     vdW  Elec       q    Type
REMARK                         _______ _______ _______ _____ _____    ______ ____
ROOT
ATOM      5  N   UNL     1      -3.473  -1.729  24.752  0.00  0.00    -0.297 NA
ATOM      8  C   UNL     1      -1.142  -1.932  24.601  0.00  0.00    +0.070 C 
ATOM      9  C   UNL     1      -1.542  -1.679  26.064  0.00  0.00    +0.028 C 
ATOM     10  C   UNL     1      -2.386  -1.554  23.786  0.00  0.00    +0.096 C 
ATOM     11  C   UNL     1      -2.968  -1.149  25.996  0.00  0.00    +0.085 C 
ENDROOT
BRANCH   8  12
ATOM      6  N   UNL     1       1.328  -1.807  24.175  0.00  0.00    -0.341 N 
ATOM      7  N   UNL     1       0.170   0.028  23.694  0.00  0.00    -0.232 NA
ATOM     12  C   UNL     1       0.102  -1.204  24.146  0.00  0.00    +0.113 A 
ATOM     15  C   UNL     1       2.250  -0.904  23.709  0.00  0.00    +0.070 A 
ATOM     16  C   UNL     1       1.503   0.233  23.417  0.00  0.00    +0.089 A 
ATOM     19  C   UNL     1       3.631  -0.982  23.525  0.00  0.00    +0.073 A 
ATOM     20  C   UNL     1       2.155   1.370  22.908  0.00  0.00    +0.033 A 
ATOM     21  C   UNL     1       4.264   0.158  23.019  0.00  0.00    +0.122 A 
ATOM     24  C   UNL     1       3.541   1.314  22.715  0.00  0.00    +0.048 A 
ATOM     28  H   UNL     1       1.526  -2.750  24.484  0.00  0.00    +0.167 HD
BRANCH  21   4
ATOM      4  O   UNL     1       5.613   0.139  22.818  0.00  0.00    -0.495 OA
ATOM     27  C   UNL     1       6.423  -0.271  23.918  0.00  0.00    +0.277 C 
ENDBRANCH  21   4
ENDBRANCH   8  12
BRANCH   5  13
ATOM     13  C   UNL     1      -4.712  -1.107  24.313  0.00  0.00    +0.119 C 
BRANCH  13  14
ATOM     14  C   UNL     1      -4.701   0.383  24.532  0.00  0.00    -0.033 A 
ATOM     17  C   UNL     1      -5.625   0.966  25.401  0.00  0.00    +0.005 A 
ATOM     18  C   UNL     1      -3.769   1.179  23.869  0.00  0.00    +0.005 A 
ATOM     22  C   UNL     1      -5.614   2.345  25.606  0.00  0.00    +0.012 A 
ATOM     23  C   UNL     1      -3.759   2.560  24.074  0.00  0.00    +0.012 A 
ATOM     25  C   UNL     1      -4.681   3.142  24.942  0.00  0.00    +0.055 A 
BRANCH  25  26
ATOM      1  F   UNL     1      -5.882   5.128  25.519  0.00  0.00    -0.166 F 
ATOM      2  F   UNL     1      -4.289   5.312  24.051  0.00  0.00    -0.166 F 
ATOM      3  F   UNL     1      -3.811   5.014  26.152  0.00  0.00    -0.166 F 
ATOM     26  C   UNL     1      -4.668   4.616  25.164  0.00  0.00    +0.417 C 
ENDBRANCH  25  26
ENDBRANCH  13  14
ENDBRANCH   5  13
TORSDOF 5
ENDMDL
MODEL 4
REMARK VINA RESULT:       1.0      3.743      5.083
REMARK  Name = 45784302
REMARK  6 active torsions:
REMARK  status: ('A' for Active; 'I' for Inactive)
REMARK    1  A    between atoms: O_4  and  C_21
REMARK    2  A    between atoms: O_4  and  C_27
REMARK    3  A    between atoms: N_5  and  C_13
REMARK    4  A    between atoms: C_8  and  C_12
REMARK    5  A    between atoms: C_13  and  C_14
REMARK    6  A    between atoms: C_25  and  C_26
REMARK                            x       y       z     vdW  Elec       q    Type
REMARK                         _______ _______ _______ _____ _____    ______ ____
ROOT
ATOM      5  N   UNL     1      -3.227   2.953  25.442  0.00  0.00    -0.297 NA
ATOM      8  C   UNL     1      -0.945   2.958  24.899  0.00  0.00    +0.070 C 
ATOM      9  C   UNL     1      -1.686   3.977  24.016  0.00  0.00    +0.028 C 
ATOM     10  C   UNL     1      -2.054   2.077  25.490  0.00  0.00    +0.096 C 
ATOM     11  C   UNL     1      -3.158   3.603  24.133  0.00  0.00    +0.085 C 
ENDROOT
BRANCH   8  12
ATOM      6  N   UNL     1       1.450   2.449  24.349  0.00  0.00    -0.341 N 
ATOM      7  N   UNL     1      -0.064   1.149  23.370  0.00  0.00    -0.232 NA
ATOM     12  C   UNL     1       0.124   2.161  24.188  0.00  0.00    +0.113 A 
ATOM     15  C   UNL     1       2.167   1.564  23.585  0.00  0.00    +0.070 A 
ATOM     16  C   UNL     1       1.200   0.764  22.983  0.00  0.00    +0.089 A 
ATOM     19  C   UNL     1       3.536   1.400  23.374  0.00  0.00    +0.073 A 
ATOM     20  C   UNL     1       1.604  -0.267  22.118  0.00  0.00    +0.033 A 
ATOM     21  C   UNL     1       3.921   0.371  22.509  0.00  0.00    +0.122 A 
ATOM     24  C   UNL     1       2.975  -0.449  21.891  0.00  0.00    +0.048 A 
ATOM     28  H   UNL     1       1.838   3.183  24.927  0.00  0.00    +0.167 HD
BRANCH  21   4
ATOM      4  O   UNL     1       5.248   0.164  22.265  0.00  0.00    -0.495 OA
ATOM     27  C   UNL     1       6.064  -0.173  23.385  0.00  0.00    +0.277 C 
ENDBRANCH  21   4
ENDBRANCH   8  12
BRANCH   5  13
ATOM     13  C   UNL     1      -4.472   2.226  25.635  0.00  0.00    +0.119 C 
BRANCH  13  14
ATOM     14  C   UNL     1      -4.339   0.774  25.258  0.00  0.00    -0.033 A 
ATOM     17  C   UNL     1      -4.740   0.345  23.992  0.00  0.00    +0.005 A 
ATOM     18  C   UNL     1      -3.816  -0.139  26.173  0.00  0.00    +0.005 A 
ATOM     22  C   UNL     1      -4.616  -1.000  23.642  0.00  0.00    +0.012 A 
ATOM     23  C   UNL     1      -3.692  -1.484  25.821  0.00  0.00    +0.012 A 
ATOM     25  C   UNL     1      -4.092  -1.914  24.557  0.00  0.00    +0.055 A 
BRANCH  25  26
ATOM      1  F   UNL     1      -4.921  -3.784  23.318  0.00  0.00    -0.166 F 
ATOM      2  F   UNL     1      -4.028  -4.185  25.259  0.00  0.00    -0.166 F 
ATOM      3  F   UNL     1      -2.771  -3.646  23.568  0.00  0.00    -0.166 F 
ATOM     26  C   UNL     1      -3.956  -3.350  24.181  0.00  0.00    +0.417 C 
ENDBRANCH  25  26
ENDBRANCH  13  14
ENDBRANCH   5  13
TORSDOF 5
ENDMDL
MODEL 5
REMARK VINA RESULT:       3.7      3.674      5.761
REMARK  Name = 45784302
REMARK  6 active torsions:
REMARK  status: ('A' for Active; 'I' for Inactive)
REMARK    1  A    between atoms: O_4  and  C_21
REMARK    2  A    between atoms: O_4  and  C_27
REMARK    3  A    between atoms: N_5  and  C_13
REMARK    4  A    between atoms: C_8  and  C_12
REMARK    5  A    between atoms: C_13  and  C_14
REMARK    6  A    between atoms: C_25  and  C_26
REMARK                            x       y       z     vdW  Elec       q    Type
REMARK                         _______ _______ _______ _____ _____    ______ ____
ROOT
ATOM      5  N   UNL     1       0.186   3.788  24.975  0.00  0.00    -0.297 NA
ATOM      8  C   UNL     1       0.438   1.458  24.880  0.00  0.00    +0.070 C 
ATOM      9  C   UNL     1       1.013   2.090  23.601  0.00  0.00    +0.028 C 
ATOM     10  C   UNL     1      -0.418   2.566  25.510  0.00  0.00    +0.096 C 
ATOM     11  C   UNL     1       0.434   3.498  23.563  0.00  0.00    +0.085 C 
ENDROOT
BRANCH   8  12
ATOM      6  N   UNL     1      -1.693   0.143  24.717  0.00  0.00    -0.341 N 
ATOM      7  N   UNL     1       0.181  -1.013  24.419  0.00  0.00    -0.232 NA
ATOM     12  C   UNL     1      -0.328   0.173  24.666  0.00  0.00    +0.113 A 
ATOM     15  C   UNL     1      -2.093  -1.148  24.487  0.00  0.00    +0.070 A 
ATOM     16  C   UNL     1      -0.905  -1.851  24.304  0.00  0.00    +0.089 A 
ATOM     19  C   UNL     1      -3.353  -1.745  24.425  0.00  0.00    +0.073 A 
ATOM     20  C   UNL     1      -0.958  -3.230  24.043  0.00  0.00    +0.033 A 
ATOM     21  C   UNL     1      -3.387  -3.118  24.165  0.00  0.00    +0.122 A 
ATOM     24  C   UNL     1      -2.213  -3.850  23.977  0.00  0.00    +0.048 A 
ATOM     28  H   UNL     1      -2.304   0.931  24.893  0.00  0.00    +0.167 HD
BRANCH  21   4
ATOM      4  O   UNL     1      -4.592  -3.755  24.093  0.00  0.00    -0.495 OA
ATOM     27  C   UNL     1      -5.565  -3.197  23.212  0.00  0.00    +0.277 C 
ENDBRANCH  21   4
ENDBRANCH   8  12
BRANCH   5  13
ATOM     13  C   UNL     1      -0.664   4.954  25.160  0.00  0.00    +0.119 C 
BRANCH  13  14
ATOM     14  C   UNL     1      -2.115   4.577  25.301  0.00  0.00    -0.033 A 
ATOM     17  C   UNL     1      -2.872   4.286  24.166  0.00  0.00    +0.005 A 
ATOM     18  C   UNL     1      -2.700   4.517  26.565  0.00  0.00    +0.005 A 
ATOM     22  C   UNL     1      -4.215   3.935  24.296  0.00  0.00    +0.012 A 
ATOM     23  C   UNL     1      -4.045   4.165  26.694  0.00  0.00    +0.012 A 
ATOM     25  C   UNL     1      -4.802   3.874  25.560  0.00  0.00    +0.055 A 
BRANCH  25  26
ATOM      1  F   UNL     1      -6.689   2.685  24.697  0.00  0.00    -0.166 F 
ATOM      2  F   UNL     1      -7.069   4.578  25.697  0.00  0.00    -0.166 F 
ATOM      3  F   UNL     1      -6.516   2.822  26.854  0.00  0.00    -0.166 F 
ATOM     26  C   UNL     1      -6.237   3.495  25.699  0.00  0.00    +0.417 C 
ENDBRANCH  25  26
ENDBRANCH  13  14
ENDBRANCH   5  13
TORSDOF 5
ENDMDL
