MODEL 1
REMARK VINA RESULT:       0.9      0.000      0.000
REMARK  Name = 45361205
REMARK  7 active torsions:
REMARK  status: ('A' for Active; 'I' for Inactive)
REMARK    1  A    between atoms: O_4  and  C_26
REMARK    2  A    between atoms: N_5  and  C_18
REMARK    3  A    between atoms: N_6  and  C_17
REMARK    4  A    between atoms: C_12  and  C_16
REMARK    5  A    between atoms: C_16  and  C_19
REMARK    6  A    between atoms: C_17  and  C_20
REMARK    7  A    between atoms: C_19  and  C_21
REMARK                            x       y       z     vdW  Elec       q    Type
REMARK                         _______ _______ _______ _____ _____    ______ ____
ROOT
ATOM      2  O   UNL     1      -1.048   2.025  23.551  0.00  0.00    -0.274 OA
ATOM      5  N   UNL     1      -3.000  -0.816  25.315  0.00  0.00    -0.296 NA
ATOM      6  N   UNL     1       0.282  -0.315  23.775  0.00  0.00    -0.286 NA
ATOM      7  N   UNL     1      -3.079   1.061  23.126  0.00  0.00    -0.312 N 
ATOM      9  C   UNL     1      -1.768  -1.284  24.641  0.00  0.00    +0.084 C 
ATOM     10  C   UNL     1      -1.165  -0.406  23.505  0.00  0.00    +0.161 C 
ATOM     11  C   UNL     1      -0.565  -1.455  25.587  0.00  0.00    +0.036 C 
ATOM     12  C   UNL     1      -4.192  -0.729  24.426  0.00  0.00    +0.074 C 
ATOM     13  C   UNL     1       0.625  -1.429  24.651  0.00  0.00    +0.087 C 
ATOM     14  C   UNL     1      -3.925  -0.113  23.040  0.00  0.00    +0.123 C 
ATOM     15  C   UNL     1      -1.729   1.009  23.414  0.00  0.00    +0.232 C 
ATOM     18  C   UNL     1      -3.301  -1.648  26.493  0.00  0.00    +0.105 C 
ATOM     32  H   UNL     1      -3.499   1.974  22.974  0.00  0.00    +0.149 HD
ENDROOT
BRANCH  12  16
ATOM     16  C   UNL     1      -5.305   0.105  25.097  0.00  0.00    +0.029 C 
BRANCH  16  19
ATOM     19  C   UNL     1      -4.740   1.260  25.901  0.00  0.00    +0.097 C 
BRANCH  19  21
ATOM      3  O   UNL     1      -5.677   2.682  24.252  0.00  0.00    -0.276 OA
ATOM      8  N   UNL     1      -3.880   3.532  25.455  0.00  0.00    -0.301 N 
ATOM     21  C   UNL     1      -4.815   2.551  25.126  0.00  0.00    +0.216 C 
ATOM     22  C   UNL     1      -2.844   3.405  26.489  0.00  0.00    +0.110 C 
ATOM     23  C   UNL     1      -3.917   4.831  24.778  0.00  0.00    +0.110 C 
ATOM     24  C   UNL     1      -1.466   3.719  25.913  0.00  0.00    +0.050 C 
ATOM     25  C   UNL     1      -2.560   5.169  24.172  0.00  0.00    +0.050 C 
ATOM     26  C   UNL     1      -1.449   5.082  25.221  0.00  0.00    +0.118 C 
BRANCH  26   4
ATOM      4  O   UNL     1      -0.184   5.265  24.599  0.00  0.00    -0.392 OA
ATOM     33  H   UNL     1      -0.344   5.606  23.702  0.00  0.00    +0.210 HD
ENDBRANCH  26   4
ENDBRANCH  19  21
ENDBRANCH  16  19
ENDBRANCH  12  16
BRANCH   6  17
ATOM     17  C   UNL     1       1.095  -0.297  22.566  0.00  0.00    +0.120 C 
BRANCH  17  20
ATOM      1 CL   UNL     1       5.721  -1.998  24.258  0.00  0.00    -0.084 Cl
ATOM     20  C   UNL     1       2.542  -0.009  22.866  0.00  0.00    -0.032 A 
ATOM     27  C   UNL     1       3.365  -1.019  23.365  0.00  0.00    +0.025 A 
ATOM     28  C   UNL     1       3.059   1.267  22.645  0.00  0.00    +0.005 A 
ATOM     29  C   UNL     1       4.707  -0.753  23.642  0.00  0.00    +0.041 A 
ATOM     30  C   UNL     1       4.400   1.534  22.923  0.00  0.00    +0.002 A 
ATOM     31  C   UNL     1       5.223   0.523  23.420  0.00  0.00    +0.020 A 
ENDBRANCH  17  20
ENDBRANCH   6  17
TORSDOF 6
ENDMDL
MODEL 2
REMARK VINA RESULT:       2.7      1.099      1.275
REMARK  Name = 45361205
REMARK  7 active torsions:
REMARK  status: ('A' for Active; 'I' for Inactive)
REMARK    1  A    between atoms: O_4  and  C_26
REMARK    2  A    between atoms: N_5  and  C_18
REMARK    3  A    between atoms: N_6  and  C_17
REMARK    4  A    between atoms: C_12  and  C_16
REMARK    5  A    between atoms: C_16  and  C_19
REMARK    6  A    between atoms: C_17  and  C_20
REMARK    7  A    between atoms: C_19  and  C_21
REMARK                            x       y       z     vdW  Elec       q    Type
REMARK                         _______ _______ _______ _____ _____    ______ ____
ROOT
ATOM      2  O   UNL     1      -0.695   2.041  23.260  0.00  0.00    -0.274 OA
ATOM      5  N   UNL     1      -3.408   0.070  25.197  0.00  0.00    -0.296 NA
ATOM      6  N   UNL     1      -0.012  -0.480  23.949  0.00  0.00    -0.286 NA
ATOM      7  N   UNL     1      -2.871   1.532  22.768  0.00  0.00    -0.312 N 
ATOM      9  C   UNL     1      -2.291  -0.781  24.727  0.00  0.00    +0.084 C 
ATOM     10  C   UNL     1      -1.414  -0.267  23.547  0.00  0.00    +0.161 C 
ATOM     11  C   UNL     1      -1.233  -1.076  25.806  0.00  0.00    +0.036 C 
ATOM     12  C   UNL     1      -4.480   0.293  24.187  0.00  0.00    +0.074 C 
ATOM     13  C   UNL     1      -0.016  -1.486  25.004  0.00  0.00    +0.087 C 
ATOM     14  C   UNL     1      -3.976   0.594  22.762  0.00  0.00    +0.123 C 
ATOM     15  C   UNL     1      -1.599   1.207  23.199  0.00  0.00    +0.232 C 
ATOM     18  C   UNL     1      -3.983  -0.464  26.443  0.00  0.00    +0.105 C 
ATOM     32  H   UNL     1      -3.038   2.481  22.447  0.00  0.00    +0.149 HD
ENDROOT
BRANCH  12  16
ATOM     16  C   UNL     1      -5.389   1.464  24.615  0.00  0.00    +0.029 C 
BRANCH  16  19
ATOM     19  C   UNL     1      -4.752   2.308  25.702  0.00  0.00    +0.097 C 
BRANCH  19  21
ATOM      3  O   UNL     1      -4.338   4.069  24.171  0.00  0.00    -0.276 OA
ATOM      8  N   UNL     1      -2.640   3.590  25.683  0.00  0.00    -0.301 N 
ATOM     21  C   UNL     1      -3.899   3.403  25.112  0.00  0.00    +0.216 C 
ATOM     22  C   UNL     1      -2.092   2.814  26.804  0.00  0.00    +0.110 C 
ATOM     23  C   UNL     1      -1.772   4.664  25.196  0.00  0.00    +0.110 C 
ATOM     24  C   UNL     1      -0.725   2.239  26.444  0.00  0.00    +0.050 C 
ATOM     25  C   UNL     1      -0.401   4.122  24.807  0.00  0.00    +0.050 C 
ATOM     26  C   UNL     1       0.227   3.332  25.957  0.00  0.00    +0.118 C 
BRANCH  26   4
ATOM      4  O   UNL     1       1.436   2.724  25.519  0.00  0.00    -0.392 OA
ATOM     33  H   UNL     1       1.960   3.407  25.065  0.00  0.00    +0.210 HD
ENDBRANCH  26   4
ENDBRANCH  19  21
ENDBRANCH  16  19
ENDBRANCH  12  16
BRANCH   6  17
ATOM     17  C   UNL     1       0.857  -0.853  22.840  0.00  0.00    +0.120 C 
BRANCH  17  20
ATOM      1 CL   UNL     1       5.812  -1.667  24.233  0.00  0.00    -0.084 Cl
ATOM     20  C   UNL     1       2.251  -0.312  23.012  0.00  0.00    -0.032 A 
ATOM     27  C   UNL     1       3.267  -1.143  23.487  0.00  0.00    +0.025 A 
ATOM     28  C   UNL     1       2.528   1.017  22.697  0.00  0.00    +0.005 A 
ATOM     29  C   UNL     1       4.560  -0.643  23.646  0.00  0.00    +0.041 A 
ATOM     30  C   UNL     1       3.821   1.518  22.857  0.00  0.00    +0.002 A 
ATOM     31  C   UNL     1       4.836   0.687  23.330  0.00  0.00    +0.020 A 
ENDBRANCH  17  20
ENDBRANCH   6  17
TORSDOF 6
ENDMDL
MODEL 3
REMARK VINA RESULT:       3.7      2.393      6.422
REMARK  Name = 45361205
REMARK  7 active torsions:
REMARK  status: ('A' for Active; 'I' for Inactive)
REMARK    1  A    between atoms: O_4  and  C_26
REMARK    2  A    between atoms: N_5  and  C_18
REMARK    3  A    between atoms: N_6  and  C_17
REMARK    4  A    between atoms: C_12  and  C_16
REMARK    5  A    between atoms: C_16  and  C_19
REMARK    6  A    between atoms: C_17  and  C_20
REMARK    7  A    between atoms: C_19  and  C_21
REMARK                            x       y       z     vdW  Elec       q    Type
REMARK                         _______ _______ _______ _____ _____    ______ ____
ROOT
ATOM      2  O   UNL     1      -3.053   2.381  22.485  0.00  0.00    -0.274 OA
ATOM      5  N   UNL     1      -2.993  -1.021  24.334  0.00  0.00    -0.296 NA
ATOM      6  N   UNL     1      -4.669   2.217  24.643  0.00  0.00    -0.286 NA
ATOM      7  N   UNL     1      -1.351   1.166  23.417  0.00  0.00    -0.312 N 
ATOM      9  C   UNL     1      -3.686   0.044  25.093  0.00  0.00    +0.084 C 
ATOM     10  C   UNL     1      -3.369   1.528  24.743  0.00  0.00    +0.161 C 
ATOM     11  C   UNL     1      -5.220   0.006  24.966  0.00  0.00    +0.036 C 
ATOM     12  C   UNL     1      -1.515  -1.047  24.517  0.00  0.00    +0.074 C 
ATOM     13  C   UNL     1      -5.641   1.405  25.364  0.00  0.00    +0.087 C 
ATOM     14  C   UNL     1      -0.833   0.335  24.485  0.00  0.00    +0.123 C 
ATOM     15  C   UNL     1      -2.610   1.737  23.436  0.00  0.00    +0.232 C 
ATOM     18  C   UNL     1      -3.568  -2.342  24.642  0.00  0.00    +0.105 C 
ATOM     32  H   UNL     1      -0.764   1.336  22.605  0.00  0.00    +0.149 HD
ENDROOT
BRANCH  12  16
ATOM     16  C   UNL     1      -0.851  -1.916  23.428  0.00  0.00    +0.029 C 
BRANCH  16  19
ATOM     19  C   UNL     1       0.661  -1.896  23.531  0.00  0.00    +0.097 C 
BRANCH  19  21
ATOM      3  O   UNL     1       0.605  -0.218  21.858  0.00  0.00    -0.276 OA
ATOM      8  N   UNL     1       2.490  -0.265  23.217  0.00  0.00    -0.301 N 
ATOM     21  C   UNL     1       1.241  -0.718  22.790  0.00  0.00    +0.216 C 
ATOM     22  C   UNL     1       3.269  -0.839  24.321  0.00  0.00    +0.110 C 
ATOM     23  C   UNL     1       3.098   0.904  22.577  0.00  0.00    +0.110 C 
ATOM     24  C   UNL     1       4.682  -1.189  23.860  0.00  0.00    +0.050 C 
ATOM     25  C   UNL     1       4.505   0.585  22.085  0.00  0.00    +0.050 C 
ATOM     26  C   UNL     1       5.368   0.013  23.211  0.00  0.00    +0.118 C 
BRANCH  26   4
ATOM      4  O   UNL     1       6.625  -0.402  22.692  0.00  0.00    -0.392 OA
ATOM     33  H   UNL     1       6.740  -1.342  22.917  0.00  0.00    +0.210 HD
ENDBRANCH  26   4
ENDBRANCH  19  21
ENDBRANCH  16  19
ENDBRANCH  12  16
BRANCH   6  17
ATOM     17  C   UNL     1      -4.634   3.591  25.130  0.00  0.00    +0.120 C 
BRANCH  17  20
ATOM      1 CL   UNL     1       0.325   2.966  26.603  0.00  0.00    -0.084 Cl
ATOM     20  C   UNL     1      -3.230   4.131  25.187  0.00  0.00    -0.032 A 
ATOM     27  C   UNL     1      -2.220   3.385  25.797  0.00  0.00    +0.025 A 
ATOM     28  C   UNL     1      -2.938   5.375  24.629  0.00  0.00    +0.005 A 
ATOM     29  C   UNL     1      -0.919   3.885  25.849  0.00  0.00    +0.041 A 
ATOM     30  C   UNL     1      -1.636   5.875  24.682  0.00  0.00    +0.002 A 
ATOM     31  C   UNL     1      -0.627   5.129  25.291  0.00  0.00    +0.020 A 
ENDBRANCH  17  20
ENDBRANCH   6  17
TORSDOF 6
ENDMDL
MODEL 4
REMARK VINA RESULT:       3.8      2.647      6.749
REMARK  Name = 45361205
REMARK  7 active torsions:
REMARK  status: ('A' for Active; 'I' for Inactive)
REMARK    1  A    between atoms: O_4  and  C_26
REMARK    2  A    between atoms: N_5  and  C_18
REMARK    3  A    between atoms: N_6  and  C_17
REMARK    4  A    between atoms: C_12  and  C_16
REMARK    5  A    between atoms: C_16  and  C_19
REMARK    6  A    between atoms: C_17  and  C_20
REMARK    7  A    between atoms: C_19  and  C_21
REMARK                            x       y       z     vdW  Elec       q    Type
REMARK                         _______ _______ _______ _____ _____    ______ ____
ROOT
ATOM      2  O   UNL     1      -2.259   1.772  22.456  0.00  0.00    -0.274 OA
ATOM      5  N   UNL     1      -1.964  -1.421  24.628  0.00  0.00    -0.296 NA
ATOM      6  N   UNL     1      -4.489   1.105  23.828  0.00  0.00    -0.286 NA
ATOM      7  N   UNL     1      -0.812   1.176  24.126  0.00  0.00    -0.312 N 
ATOM      9  C   UNL     1      -3.184  -0.632  24.911  0.00  0.00    +0.084 C 
ATOM     10  C   UNL     1      -3.203   0.873  24.512  0.00  0.00    +0.161 C 
ATOM     11  C   UNL     1      -4.448  -1.165  24.210  0.00  0.00    +0.036 C 
ATOM     12  C   UNL     1      -0.753  -0.966  25.367  0.00  0.00    +0.074 C 
ATOM     13  C   UNL     1      -5.385   0.024  24.222  0.00  0.00    +0.087 C 
ATOM     14  C   UNL     1      -0.555   0.561  25.413  0.00  0.00    +0.123 C 
ATOM     15  C   UNL     1      -2.075   1.310  23.582  0.00  0.00    +0.232 C 
ATOM     18  C   UNL     1      -2.199  -2.854  24.867  0.00  0.00    +0.105 C 
ATOM     32  H   UNL     1      -0.023   1.523  23.588  0.00  0.00    +0.149 HD
ENDROOT
BRANCH  12  16
ATOM     16  C   UNL     1       0.520  -1.579  24.746  0.00  0.00    +0.029 C 
BRANCH  16  19
ATOM     19  C   UNL     1       0.475  -1.564  23.230  0.00  0.00    +0.097 C 
BRANCH  19  21
ATOM      3  O   UNL     1       0.653   0.322  21.805  0.00  0.00    -0.276 OA
ATOM      8  N   UNL     1       2.464  -0.098  23.198  0.00  0.00    -0.301 N 
ATOM     21  C   UNL     1       1.197  -0.361  22.676  0.00  0.00    +0.216 C 
ATOM     22  C   UNL     1       3.136  -0.892  24.235  0.00  0.00    +0.110 C 
ATOM     23  C   UNL     1       3.209   1.079  22.745  0.00  0.00    +0.110 C 
ATOM     24  C   UNL     1       4.527  -1.318  23.772  0.00  0.00    +0.050 C 
ATOM     25  C   UNL     1       4.599   0.688  22.254  0.00  0.00    +0.050 C 
ATOM     26  C   UNL     1       5.353  -0.115  23.316  0.00  0.00    +0.118 C 
BRANCH  26   4
ATOM      4  O   UNL     1       6.585  -0.582  22.781  0.00  0.00    -0.392 OA
ATOM     33  H   UNL     1       6.782  -1.437  23.200  0.00  0.00    +0.210 HD
ENDBRANCH  26   4
ENDBRANCH  19  21
ENDBRANCH  16  19
ENDBRANCH  12  16
BRANCH   6  17
ATOM     17  C   UNL     1      -5.060   2.417  24.099  0.00  0.00    +0.120 C 
BRANCH  17  20
ATOM      1 CL   UNL     1      -0.839   5.418  24.680  0.00  0.00    -0.084 Cl
ATOM     20  C   UNL     1      -4.177   3.238  25.002  0.00  0.00    -0.032 A 
ATOM     27  C   UNL     1      -3.049   3.874  24.484  0.00  0.00    +0.025 A 
ATOM     28  C   UNL     1      -4.488   3.363  26.355  0.00  0.00    +0.005 A 
ATOM     29  C   UNL     1      -2.232   4.636  25.320  0.00  0.00    +0.041 A 
ATOM     30  C   UNL     1      -3.671   4.124  27.192  0.00  0.00    +0.002 A 
ATOM     31  C   UNL     1      -2.543   4.760  26.673  0.00  0.00    +0.020 A 
ENDBRANCH  17  20
ENDBRANCH   6  17
TORSDOF 6
ENDMDL
MODEL 5
REMARK VINA RESULT:       4.7      2.494      6.610
REMARK  Name = 45361205
REMARK  7 active torsions:
REMARK  status: ('A' for Active; 'I' for Inactive)
REMARK    1  A    between atoms: O_4  and  C_26
REMARK    2  A    between atoms: N_5  and  C_18
REMARK    3  A    between atoms: N_6  and  C_17
REMARK    4  A    between atoms: C_12  and  C_16
REMARK    5  A    between atoms: C_16  and  C_19
REMARK    6  A    between atoms: C_17  and  C_20
REMARK    7  A    between atoms: C_19  and  C_21
REMARK                            x       y       z     vdW  Elec       q    Type
REMARK                         _______ _______ _______ _____ _____    ______ ____
ROOT
ATOM      2  O   UNL     1      -2.824   2.174  22.501  0.00  0.00    -0.274 OA
ATOM      5  N   UNL     1      -2.936  -1.034  24.668  0.00  0.00    -0.296 NA
ATOM      6  N   UNL     1      -4.704   2.162  24.441  0.00  0.00    -0.286 NA
ATOM      7  N   UNL     1      -1.234   1.110  23.757  0.00  0.00    -0.312 N 
ATOM      9  C   UNL     1      -3.743   0.075  25.223  0.00  0.00    +0.084 C 
ATOM     10  C   UNL     1      -3.414   1.529  24.773  0.00  0.00    +0.161 C 
ATOM     11  C   UNL     1      -5.246  -0.026  24.906  0.00  0.00    +0.036 C 
ATOM     12  C   UNL     1      -1.494  -0.993  25.040  0.00  0.00    +0.074 C 
ATOM     13  C   UNL     1      -5.745   1.389  25.107  0.00  0.00    +0.087 C 
ATOM     14  C   UNL     1      -0.842   0.401  24.959  0.00  0.00    +0.123 C 
ATOM     15  C   UNL     1      -2.495   1.638  23.560  0.00  0.00    +0.232 C 
ATOM     18  C   UNL     1      -3.518  -2.338  25.028  0.00  0.00    +0.105 C 
ATOM     32  H   UNL     1      -0.549   1.221  23.015  0.00  0.00    +0.149 HD
ENDROOT
BRANCH  12  16
ATOM     16  C   UNL     1      -0.676  -1.939  24.135  0.00  0.00    +0.029 C 
BRANCH  16  19
ATOM     19  C   UNL     1       0.506  -1.234  23.498  0.00  0.00    +0.097 C 
BRANCH  19  21
ATOM      3  O   UNL     1       1.794  -2.611  24.933  0.00  0.00    -0.276 OA
ATOM      8  N   UNL     1       2.976  -1.224  23.493  0.00  0.00    -0.301 N 
ATOM     21  C   UNL     1       1.811  -1.757  24.043  0.00  0.00    +0.216 C 
ATOM     22  C   UNL     1       3.027  -0.207  22.434  0.00  0.00    +0.110 C 
ATOM     23  C   UNL     1       4.283  -1.714  23.938  0.00  0.00    +0.110 C 
ATOM     24  C   UNL     1       3.896   0.973  22.860  0.00  0.00    +0.050 C 
ATOM     25  C   UNL     1       5.172  -0.562  24.391  0.00  0.00    +0.050 C 
ATOM     26  C   UNL     1       5.283   0.510  23.305  0.00  0.00    +0.118 C 
BRANCH  26   4
ATOM      4  O   UNL     1       6.001   1.631  23.806  0.00  0.00    -0.392 OA
ATOM     33  H   UNL     1       5.445   2.058  24.481  0.00  0.00    +0.210 HD
ENDBRANCH  26   4
ENDBRANCH  19  21
ENDBRANCH  16  19
ENDBRANCH  12  16
BRANCH   6  17
ATOM     17  C   UNL     1      -4.761   3.575  24.791  0.00  0.00    +0.120 C 
BRANCH  17  20
ATOM      1 CL   UNL     1       0.098   3.231  26.641  0.00  0.00    -0.084 Cl
ATOM     20  C   UNL     1      -3.388   4.177  24.922  0.00  0.00    -0.032 A 
ATOM     27  C   UNL     1      -2.396   3.504  25.637  0.00  0.00    +0.025 A 
ATOM     28  C   UNL     1      -3.106   5.407  24.329  0.00  0.00    +0.005 A 
ATOM     29  C   UNL     1      -1.123   4.061  25.758  0.00  0.00    +0.041 A 
ATOM     30  C   UNL     1      -1.832   5.965  24.450  0.00  0.00    +0.002 A 
ATOM     31  C   UNL     1      -0.842   5.291  25.164  0.00  0.00    +0.020 A 
ENDBRANCH  17  20
ENDBRANCH   6  17
TORSDOF 6
ENDMDL
