MODEL 1
REMARK VINA RESULT:       6.8      0.000      0.000
REMARK  Name = 11883082
REMARK  8 active torsions:
REMARK  status: ('A' for Active; 'I' for Inactive)
REMARK    1  A    between atoms: O_2  and  C_15
REMARK    2  A    between atoms: O_3  and  C_20
REMARK    3  A    between atoms: C_10  and  C_18
REMARK    4  A    between atoms: C_12  and  C_20
REMARK    5  A    between atoms: C_12  and  C_21
REMARK    6  A    between atoms: C_13  and  C_23
REMARK    7  A    between atoms: C_23  and  C_24
REMARK    8  A    between atoms: C_31  and  C_32
REMARK                            x       y       z     vdW  Elec       q    Type
REMARK                         _______ _______ _______ _____ _____    ______ ____
ROOT
ATOM      1  S   UNL     1       0.462   2.189  25.794  0.00  0.00    -0.057 S 
ATOM      5  O   UNL     1       1.943  -0.040  22.024  0.00  0.00    -0.266 OA
ATOM      7  N   UNL     1      -0.237   1.214  23.502  0.00  0.00    -0.229 NA
ATOM      9  N   UNL     1       2.078   0.971  24.125  0.00  0.00    -0.258 N 
ATOM     10  C   UNL     1      -3.888   2.073  24.397  0.00  0.00    -0.019 C 
ATOM     11  C   UNL     1      -3.459   3.331  25.276  0.00  0.00    +0.011 C 
ATOM     12  C   UNL     1      -4.605   4.083  26.057  0.00  0.00    +0.021 C 
ATOM     13  C   UNL     1      -2.698   1.754  23.379  0.00  0.00    +0.054 C 
ATOM     14  C   UNL     1      -5.154   2.427  23.575  0.00  0.00    +0.010 C 
ATOM     15  C   UNL     1      -5.809   4.315  25.102  0.00  0.00    +0.123 C 
ATOM     16  C   UNL     1      -2.207   3.017  26.145  0.00  0.00    +0.049 C 
ATOM     17  C   UNL     1      -6.274   3.044  24.400  0.00  0.00    +0.032 C 
ATOM     18  C   UNL     1      -4.185   0.817  25.251  0.00  0.00    +0.012 C 
ATOM     19  C   UNL     1      -1.365   1.762  24.083  0.00  0.00    +0.058 A 
ATOM     21  C   UNL     1      -4.086   5.480  26.497  0.00  0.00    +0.016 C 
ATOM     22  C   UNL     1      -1.164   2.350  25.315  0.00  0.00    +0.015 A 
ATOM     25  C   UNL     1       0.783   1.376  24.316  0.00  0.00    +0.165 A 
ATOM     31  C   UNL     1       2.604   0.289  23.006  0.00  0.00    +0.285 C 
ATOM     38  H   UNL     1       2.713   1.191  24.889  0.00  0.00    +0.157 HD
ENDROOT
BRANCH  31  32
ATOM      6  O   UNL     1       4.313  -1.228  23.685  0.00  0.00    -0.458 OA
ATOM     32  C   UNL     1       4.034  -0.059  23.103  0.00  0.00    +0.189 A 
ATOM     33  C   UNL     1       5.116   0.622  22.692  0.00  0.00    +0.054 A 
ATOM     34  C   UNL     1       6.209  -0.202  23.050  0.00  0.00    +0.042 A 
ATOM     35  C   UNL     1       5.669  -1.314  23.652  0.00  0.00    +0.196 A 
ENDBRANCH  31  32
BRANCH  15   2
ATOM      2  O   UNL     1      -6.912   4.876  25.813  0.00  0.00    -0.391 OA
ATOM     36  H   UNL     1      -7.085   4.320  26.590  0.00  0.00    +0.210 HD
ENDBRANCH  15   2
BRANCH  12  20
ATOM     20  C   UNL     1      -5.060   3.381  27.357  0.00  0.00    +0.165 C 
BRANCH  20   3
ATOM      3  O   UNL     1      -6.164   2.563  27.041  0.00  0.00    -0.394 OA
ATOM     37  H   UNL     1      -6.712   2.476  27.838  0.00  0.00    +0.209 HD
ENDBRANCH  20   3
ENDBRANCH  12  20
BRANCH  13  23
ATOM     23  C   UNL     1      -2.890   0.475  22.554  0.00  0.00    +0.106 C 
BRANCH  23  24
ATOM      4  O   UNL     1      -4.784  -0.540  23.553  0.00  0.00    -0.276 OA
ATOM      8  N   UNL     1      -2.733  -1.552  23.956  0.00  0.00    -0.301 N 
ATOM     24  C   UNL     1      -3.562  -0.580  23.396  0.00  0.00    +0.216 C 
ATOM     26  C   UNL     1      -3.310  -2.610  24.788  0.00  0.00    +0.108 C 
ATOM     27  C   UNL     1      -1.283  -1.653  23.751  0.00  0.00    +0.108 C 
ATOM     28  C   UNL     1      -2.617  -2.675  26.146  0.00  0.00    +0.019 C 
ATOM     29  C   UNL     1      -0.549  -1.701  25.090  0.00  0.00    +0.019 C 
ATOM     30  C   UNL     1      -1.102  -2.807  25.988  0.00  0.00    +0.003 C 
ENDBRANCH  23  24
ENDBRANCH  13  23
TORSDOF 6
ENDMDL
