MODEL 1
REMARK VINA RESULT:      -2.9      0.000      0.000
REMARK  Name = 38028098
REMARK  11 active torsions:
REMARK  status: ('A' for Active; 'I' for Inactive)
REMARK    1  A    between atoms: S_1  and  N_6
REMARK    2  A    between atoms: S_1  and  C_26
REMARK    3  A    between atoms: N_6  and  C_16
REMARK    4  A    between atoms: C_9  and  C_13
REMARK    5  A    between atoms: C_10  and  C_16
REMARK    6  A    between atoms: C_12  and  C_17
REMARK    7  A    between atoms: C_13  and  C_18
REMARK    8  A    between atoms: C_13  and  C_19
REMARK    9  A    between atoms: C_14  and  C_20
REMARK   10  A    between atoms: C_17  and  C_21
REMARK   11  A    between atoms: C_31  and  C_32
REMARK                            x       y       z     vdW  Elec       q    Type
REMARK                         _______ _______ _______ _____ _____    ______ ____
ROOT
ATOM      9  C   UNL     1      -2.209  -1.505  24.311  0.00  0.00    +0.000 C 
ATOM     10  C   UNL     1      -2.935  -0.421  25.146  0.00  0.00    +0.030 C 
ATOM     11  C   UNL     1      -0.756  -1.663  24.785  0.00  0.00    +0.012 C 
ATOM     12  C   UNL     1       0.040  -0.349  24.676  0.00  0.00    +0.023 C 
ATOM     14  C   UNL     1      -0.733   0.826  25.243  0.00  0.00    -0.073 C 
ATOM     15  C   UNL     1      -2.059   0.771  25.458  0.00  0.00    -0.023 C 
ATOM     20  C   UNL     1       0.062   2.050  25.598  0.00  0.00    +0.039 C 
ENDROOT
BRANCH   9  13
ATOM     13  C   UNL     1      -2.928  -2.855  24.383  0.00  0.00    -0.013 C 
ATOM     18  C   UNL     1      -3.234  -3.217  25.833  0.00  0.00    +0.007 C 
ATOM     19  C   UNL     1      -4.206  -2.823  23.552  0.00  0.00    +0.007 C 
ENDBRANCH   9  13
BRANCH  10  16
ATOM     16  C   UNL     1      -4.213   0.055  24.444  0.00  0.00    +0.113 C 
BRANCH  16   6
ATOM      6  N   UNL     1      -5.251   0.306  25.455  0.00  0.00    -0.189 NA
ATOM     33  H   UNL     1      -5.810  -0.500  25.757  0.00  0.00    +0.148 HD
BRANCH   6   1
ATOM      1  S   UNL     1      -5.954   1.853  25.594  0.00  0.00    +0.058 S 
ATOM      4  O   UNL     1      -6.436   2.038  26.950  0.00  0.00    -0.153 OA
ATOM      5  O   UNL     1      -6.840   2.075  24.469  0.00  0.00    -0.153 OA
BRANCH   1  26
ATOM     26  C   UNL     1      -4.554   2.907  25.365  0.00  0.00    +0.105 A 
ATOM     27  C   UNL     1      -4.078   3.165  24.080  0.00  0.00    +0.030 A 
ATOM     28  C   UNL     1      -3.924   3.479  26.471  0.00  0.00    +0.030 A 
ATOM     29  C   UNL     1      -2.972   3.997  23.900  0.00  0.00    +0.021 A 
ATOM     30  C   UNL     1      -2.819   4.311  26.290  0.00  0.00    +0.021 A 
ATOM     31  C   UNL     1      -2.343   4.570  25.005  0.00  0.00    +0.052 A 
BRANCH  31  32
ATOM      8  N   UNL     1      -0.291   6.114  24.669  0.00  0.00    -0.191 NA
ATOM     32  C   UNL     1      -1.211   5.422  24.819  0.00  0.00    +0.099 C 
ENDBRANCH  31  32
ENDBRANCH   1  26
ENDBRANCH   6   1
ENDBRANCH  16   6
ENDBRANCH  10  16
BRANCH  12  17
ATOM     17  C   UNL     1       0.464  -0.078  23.229  0.00  0.00    +0.103 C 
BRANCH  17  21
ATOM      2  O   UNL     1       1.457   2.074  23.296  0.00  0.00    -0.276 OA
ATOM      3  O   UNL     1       5.441  -0.840  23.616  0.00  0.00    -0.377 OA
ATOM      7  N   UNL     1       2.904   0.269  23.093  0.00  0.00    -0.297 N 
ATOM     21  C   UNL     1       1.647   0.858  23.208  0.00  0.00    +0.216 C 
ATOM     22  C   UNL     1       4.104   1.104  23.069  0.00  0.00    +0.136 C 
ATOM     23  C   UNL     1       3.157  -1.157  22.859  0.00  0.00    +0.136 C 
ATOM     24  C   UNL     1       5.176   0.517  23.977  0.00  0.00    +0.179 C 
ATOM     25  C   UNL     1       4.273  -1.651  23.772  0.00  0.00    +0.179 C 
ENDBRANCH  17  21
ENDBRANCH  12  17
TORSDOF 8
ENDMDL
MODEL 2
REMARK VINA RESULT:       0.7      2.330      7.290
REMARK  Name = 38028098
REMARK  11 active torsions:
REMARK  status: ('A' for Active; 'I' for Inactive)
REMARK    1  A    between atoms: S_1  and  N_6
REMARK    2  A    between atoms: S_1  and  C_26
REMARK    3  A    between atoms: N_6  and  C_16
REMARK    4  A    between atoms: C_9  and  C_13
REMARK    5  A    between atoms: C_10  and  C_16
REMARK    6  A    between atoms: C_12  and  C_17
REMARK    7  A    between atoms: C_13  and  C_18
REMARK    8  A    between atoms: C_13  and  C_19
REMARK    9  A    between atoms: C_14  and  C_20
REMARK   10  A    between atoms: C_17  and  C_21
REMARK   11  A    between atoms: C_31  and  C_32
REMARK                            x       y       z     vdW  Elec       q    Type
REMARK                         _______ _______ _______ _____ _____    ______ ____
ROOT
ATOM      9  C   UNL     1      -1.819  -0.629  25.284  0.00  0.00    +0.000 C 
ATOM     10  C   UNL     1      -1.589  -2.063  24.743  0.00  0.00    +0.030 C 
ATOM     11  C   UNL     1      -3.208  -0.515  25.930  0.00  0.00    +0.012 C 
ATOM     12  C   UNL     1      -4.341  -0.851  24.942  0.00  0.00    +0.023 C 
ATOM     14  C   UNL     1      -4.056  -2.124  24.169  0.00  0.00    -0.073 C 
ATOM     15  C   UNL     1      -2.823  -2.658  24.103  0.00  0.00    -0.023 C 
ATOM     20  C   UNL     1      -5.229  -2.794  23.512  0.00  0.00    +0.039 C 
ENDROOT
BRANCH   9  13
ATOM     13  C   UNL     1      -0.742  -0.224  26.295  0.00  0.00    -0.013 C 
ATOM     18  C   UNL     1      -0.735   1.289  26.486  0.00  0.00    +0.007 C 
ATOM     19  C   UNL     1      -0.965  -0.936  27.624  0.00  0.00    +0.007 C 
ENDBRANCH   9  13
BRANCH  10  16
ATOM     16  C   UNL     1      -0.428  -2.098  23.743  0.00  0.00    +0.113 C 
BRANCH  16   6
ATOM      6  N   UNL     1       0.552  -1.063  24.108  0.00  0.00    -0.189 NA
ATOM     33  H   UNL     1       0.606  -0.804  25.100  0.00  0.00    +0.148 HD
BRANCH   6   1
ATOM      1  S   UNL     1       1.040   0.097  22.960  0.00  0.00    +0.058 S 
ATOM      4  O   UNL     1       0.626   1.414  23.406  0.00  0.00    -0.153 OA
ATOM      5  O   UNL     1       0.684  -0.368  21.633  0.00  0.00    -0.153 OA
BRANCH   1  26
ATOM     26  C   UNL     1       2.801   0.008  23.083  0.00  0.00    +0.105 A 
ATOM     27  C   UNL     1       3.582   1.098  22.703  0.00  0.00    +0.030 A 
ATOM     28  C   UNL     1       3.408  -1.154  23.560  0.00  0.00    +0.030 A 
ATOM     29  C   UNL     1       4.972   1.028  22.800  0.00  0.00    +0.021 A 
ATOM     30  C   UNL     1       4.798  -1.224  23.657  0.00  0.00    +0.021 A 
ATOM     31  C   UNL     1       5.580  -0.134  23.277  0.00  0.00    +0.052 A 
BRANCH  31  32
ATOM      8  N   UNL     1       8.161  -0.265  23.457  0.00  0.00    -0.191 NA
ATOM     32  C   UNL     1       7.004  -0.206  23.376  0.00  0.00    +0.099 C 
ENDBRANCH  31  32
ENDBRANCH   1  26
ENDBRANCH   6   1
ENDBRANCH  16   6
ENDBRANCH  10  16
BRANCH  12  17
ATOM     17  C   UNL     1      -4.607   0.320  23.989  0.00  0.00    +0.103 C 
BRANCH  17  21
ATOM      2  O   UNL     1      -5.985   1.548  25.477  0.00  0.00    -0.276 OA
ATOM      3  O   UNL     1      -2.066   4.541  25.095  0.00  0.00    -0.377 OA
ATOM      7  N   UNL     1      -4.099   2.637  24.670  0.00  0.00    -0.297 N 
ATOM     21  C   UNL     1      -4.967   1.552  24.780  0.00  0.00    +0.216 C 
ATOM     22  C   UNL     1      -4.372   3.870  25.408  0.00  0.00    +0.136 C 
ATOM     23  C   UNL     1      -2.955   2.721  23.757  0.00  0.00    +0.136 C 
ATOM     24  C   UNL     1      -3.100   4.384  26.069  0.00  0.00    +0.179 C 
ATOM     25  C   UNL     1      -1.742   3.289  24.484  0.00  0.00    +0.179 C 
ENDBRANCH  17  21
ENDBRANCH  12  17
TORSDOF 8
ENDMDL
