MODEL 1
REMARK VINA RESULT:      -4.1      0.000      0.000
REMARK  Name = 45783256
REMARK  7 active torsions:
REMARK  status: ('A' for Active; 'I' for Inactive)
REMARK    1  A    between atoms: N_3  and  C_13
REMARK    2  A    between atoms: N_3  and  C_16
REMARK    3  A    between atoms: C_7  and  C_14
REMARK    4  A    between atoms: C_8  and  C_13
REMARK    5  A    between atoms: C_16  and  C_19
REMARK    6  A    between atoms: C_17  and  C_20
REMARK    7  A    between atoms: C_18  and  C_21
REMARK                            x       y       z     vdW  Elec       q    Type
REMARK                         _______ _______ _______ _____ _____    ______ ____
ROOT
ATOM      2  N   UNL     1      -2.740  -2.304  23.742  0.00  0.00    -0.298 NA
ATOM      6  C   UNL     1      -2.901  -1.271  26.127  0.00  0.00    +0.002 C 
ATOM      7  C   UNL     1      -3.908  -0.580  25.165  0.00  0.00    +0.055 C 
ATOM      8  C   UNL     1      -1.383  -1.943  24.232  0.00  0.00    +0.071 C 
ATOM      9  C   UNL     1      -1.475  -1.143  25.549  0.00  0.00    +0.024 C 
ATOM     10  C   UNL     1      -3.254  -2.773  26.137  0.00  0.00    +0.019 C 
ATOM     11  C   UNL     1      -3.613  -1.104  23.731  0.00  0.00    +0.094 C 
ATOM     12  C   UNL     1      -3.317  -3.288  24.688  0.00  0.00    +0.085 C 
ENDROOT
BRANCH   7  14
ATOM      4  N   UNL     1      -5.248   1.446  25.460  0.00  0.00    -0.237 NA
ATOM      5  N   UNL     1      -4.287   3.652  25.313  0.00  0.00    -0.229 NA
ATOM     14  C   UNL     1      -4.023   0.937  25.215  0.00  0.00    +0.050 A 
ATOM     15  C   UNL     1      -2.897   1.710  25.011  0.00  0.00    +0.055 A 
ATOM     17  C   UNL     1      -3.092   3.075  25.072  0.00  0.00    +0.110 A 
ATOM     18  C   UNL     1      -5.308   2.790  25.496  0.00  0.00    +0.127 A 
ATOM     21  C   UNL     1      -6.646   3.391  25.765  0.00  0.00    +0.088 C 
BRANCH  17  20
ATOM      1  O   UNL     1      -0.893   3.472  24.297  0.00  0.00    -0.461 OA
ATOM     20  C   UNL     1      -2.005   3.997  24.877  0.00  0.00    +0.153 A 
ATOM     24  C   UNL     1      -1.823   5.333  25.149  0.00  0.00    +0.051 A 
ATOM     27  C   UNL     1      -0.516   5.649  24.709  0.00  0.00    +0.042 A 
ATOM     28  C   UNL     1       0.008   4.484  24.198  0.00  0.00    +0.196 A 
ENDBRANCH  17  20
ENDBRANCH   7  14
BRANCH   8  13
ATOM     13  C   UNL     1      -0.559  -1.205  23.175  0.00  0.00    +0.100 C 
BRANCH  13   3
ATOM      3  N   UNL     1       0.546  -0.487  23.789  0.00  0.00    -0.311 NA
ATOM     30  H   UNL     1       1.091  -1.130  24.362  0.00  0.00    +0.122 HD
BRANCH   3  16
ATOM     16  C   UNL     1       1.403   0.119  22.779  0.00  0.00    +0.116 C 
BRANCH  16  19
ATOM     19  C   UNL     1       2.863  -0.058  23.103  0.00  0.00    -0.034 A 
ATOM     22  C   UNL     1       3.322  -1.274  23.609  0.00  0.00    +0.005 A 
ATOM     23  C   UNL     1       3.756   0.994  22.898  0.00  0.00    +0.005 A 
ATOM     25  C   UNL     1       4.674  -1.439  23.909  0.00  0.00    +0.000 A 
ATOM     26  C   UNL     1       5.108   0.830  23.199  0.00  0.00    +0.000 A 
ATOM     29  C   UNL     1       5.568  -0.387  23.704  0.00  0.00    +0.000 A 
ENDBRANCH  16  19
ENDBRANCH   3  16
ENDBRANCH  13   3
ENDBRANCH   8  13
TORSDOF 6
ENDMDL
MODEL 2
REMARK VINA RESULT:      -2.6      1.803      6.940
REMARK  Name = 45783256
REMARK  7 active torsions:
REMARK  status: ('A' for Active; 'I' for Inactive)
REMARK    1  A    between atoms: N_3  and  C_13
REMARK    2  A    between atoms: N_3  and  C_16
REMARK    3  A    between atoms: C_7  and  C_14
REMARK    4  A    between atoms: C_8  and  C_13
REMARK    5  A    between atoms: C_16  and  C_19
REMARK    6  A    between atoms: C_17  and  C_20
REMARK    7  A    between atoms: C_18  and  C_21
REMARK                            x       y       z     vdW  Elec       q    Type
REMARK                         _______ _______ _______ _____ _____    ______ ____
ROOT
ATOM      2  N   UNL     1      -2.923   4.125  24.234  0.00  0.00    -0.298 NA
ATOM      6  C   UNL     1      -0.563   3.875  25.307  0.00  0.00    +0.002 C 
ATOM      7  C   UNL     1      -0.600   3.196  23.909  0.00  0.00    +0.055 C 
ATOM      8  C   UNL     1      -3.048   3.611  25.623  0.00  0.00    +0.071 C 
ATOM      9  C   UNL     1      -1.660   3.260  26.201  0.00  0.00    +0.024 C 
ATOM     10  C   UNL     1      -0.932   5.358  25.091  0.00  0.00    +0.019 C 
ATOM     11  C   UNL     1      -2.079   3.209  23.427  0.00  0.00    +0.094 C 
ATOM     12  C   UNL     1      -2.247   5.443  24.297  0.00  0.00    +0.085 C 
ENDROOT
BRANCH   7  14
ATOM      4  N   UNL     1      -0.785   0.761  23.757  0.00  0.00    -0.237 NA
ATOM      5  N   UNL     1       1.145  -0.658  23.495  0.00  0.00    -0.229 NA
ATOM     14  C   UNL     1       0.044   1.825  23.759  0.00  0.00    +0.050 A 
ATOM     15  C   UNL     1       1.416   1.730  23.635  0.00  0.00    +0.055 A 
ATOM     17  C   UNL     1       1.915   0.450  23.505  0.00  0.00    +0.110 A 
ATOM     18  C   UNL     1      -0.177  -0.432  23.622  0.00  0.00    +0.127 A 
ATOM     21  C   UNL     1      -1.061  -1.633  23.614  0.00  0.00    +0.088 C 
BRANCH  17  20
ATOM      1  O   UNL     1       3.750  -1.012  23.804  0.00  0.00    -0.461 OA
ATOM     20  C   UNL     1       3.327   0.205  23.370  0.00  0.00    +0.153 A 
ATOM     24  C   UNL     1       4.384   0.941  22.887  0.00  0.00    +0.051 A 
ATOM     27  C   UNL     1       5.530   0.125  23.034  0.00  0.00    +0.042 A 
ATOM     28  C   UNL     1       5.092  -1.052  23.595  0.00  0.00    +0.196 A 
ENDBRANCH  17  20
ENDBRANCH   7  14
BRANCH   8  13
ATOM     13  C   UNL     1      -4.021   2.434  25.724  0.00  0.00    +0.100 C 
BRANCH  13   3
ATOM      3  N   UNL     1      -4.005   1.645  24.503  0.00  0.00    -0.311 NA
ATOM     30  H   UNL     1      -3.084   1.224  24.383  0.00  0.00    +0.122 HD
BRANCH   3  16
ATOM     16  C   UNL     1      -5.022   0.602  24.539  0.00  0.00    +0.116 C 
BRANCH  16  19
ATOM     19  C   UNL     1      -4.416  -0.766  24.711  0.00  0.00    -0.034 A 
ATOM     22  C   UNL     1      -4.568  -1.726  23.711  0.00  0.00    +0.005 A 
ATOM     23  C   UNL     1      -3.704  -1.072  25.871  0.00  0.00    +0.005 A 
ATOM     25  C   UNL     1      -4.007  -2.993  23.870  0.00  0.00    +0.000 A 
ATOM     26  C   UNL     1      -3.144  -2.340  26.030  0.00  0.00    +0.000 A 
ATOM     29  C   UNL     1      -3.294  -3.300  25.030  0.00  0.00    +0.000 A 
ENDBRANCH  16  19
ENDBRANCH   3  16
ENDBRANCH  13   3
ENDBRANCH   8  13
TORSDOF 6
ENDMDL
MODEL 3
REMARK VINA RESULT:      -2.1      1.777      6.390
REMARK  Name = 45783256
REMARK  7 active torsions:
REMARK  status: ('A' for Active; 'I' for Inactive)
REMARK    1  A    between atoms: N_3  and  C_13
REMARK    2  A    between atoms: N_3  and  C_16
REMARK    3  A    between atoms: C_7  and  C_14
REMARK    4  A    between atoms: C_8  and  C_13
REMARK    5  A    between atoms: C_16  and  C_19
REMARK    6  A    between atoms: C_17  and  C_20
REMARK    7  A    between atoms: C_18  and  C_21
REMARK                            x       y       z     vdW  Elec       q    Type
REMARK                         _______ _______ _______ _____ _____    ______ ____
ROOT
ATOM      2  N   UNL     1      -3.527  -1.447  25.913  0.00  0.00    -0.298 NA
ATOM      6  C   UNL     1      -2.504  -1.585  23.522  0.00  0.00    +0.002 C 
ATOM      7  C   UNL     1      -1.394  -1.308  24.574  0.00  0.00    +0.055 C 
ATOM      8  C   UNL     1      -4.293  -0.577  24.982  0.00  0.00    +0.071 C 
ATOM      9  C   UNL     1      -3.581  -0.483  23.616  0.00  0.00    +0.024 C 
ATOM     10  C   UNL     1      -3.179  -2.913  23.926  0.00  0.00    +0.019 C 
ATOM     11  C   UNL     1      -2.101  -1.040  25.934  0.00  0.00    +0.094 C 
ATOM     12  C   UNL     1      -3.605  -2.837  25.403  0.00  0.00    +0.085 C 
ENDROOT
BRANCH   7  14
ATOM      4  N   UNL     1      -0.757   1.030  24.241  0.00  0.00    -0.237 NA
ATOM      5  N   UNL     1       1.494   1.678  23.675  0.00  0.00    -0.229 NA
ATOM     14  C   UNL     1      -0.345  -0.254  24.250  0.00  0.00    +0.050 A 
ATOM     15  C   UNL     1       0.952  -0.646  23.986  0.00  0.00    +0.055 A 
ATOM     17  C   UNL     1       1.837   0.374  23.702  0.00  0.00    +0.110 A 
ATOM     18  C   UNL     1       0.200   1.932  23.951  0.00  0.00    +0.127 A 
ATOM     21  C   UNL     1      -0.217   3.363  23.932  0.00  0.00    +0.088 C 
BRANCH  17  20
ATOM      1  O   UNL     1       3.669  -1.119  23.785  0.00  0.00    -0.461 OA
ATOM     20  C   UNL     1       3.220   0.107  23.406  0.00  0.00    +0.153 A 
ATOM     24  C   UNL     1       4.227   0.827  22.807  0.00  0.00    +0.051 A 
ATOM     27  C   UNL     1       5.369  -0.008  22.819  0.00  0.00    +0.042 A 
ATOM     28  C   UNL     1       4.978  -1.181  23.424  0.00  0.00    +0.196 A 
ENDBRANCH  17  20
ENDBRANCH   7  14
BRANCH   8  13
ATOM     13  C   UNL     1      -4.573   0.806  25.575  0.00  0.00    +0.100 C 
BRANCH  13   3
ATOM      3  N   UNL     1      -5.810   1.354  25.045  0.00  0.00    -0.311 NA
ATOM     30  H   UNL     1      -6.599   0.807  25.389  0.00  0.00    +0.122 HD
BRANCH   3  16
ATOM     16  C   UNL     1      -5.974   2.750  25.432  0.00  0.00    +0.116 C 
BRANCH  16  19
ATOM     19  C   UNL     1      -4.674   3.507  25.363  0.00  0.00    -0.034 A 
ATOM     22  C   UNL     1      -3.976   3.802  26.534  0.00  0.00    +0.005 A 
ATOM     23  C   UNL     1      -4.168   3.914  24.129  0.00  0.00    +0.005 A 
ATOM     25  C   UNL     1      -2.772   4.503  26.471  0.00  0.00    +0.000 A 
ATOM     26  C   UNL     1      -2.964   4.616  24.065  0.00  0.00    +0.000 A 
ATOM     29  C   UNL     1      -2.266   4.910  25.237  0.00  0.00    +0.000 A 
ENDBRANCH  16  19
ENDBRANCH   3  16
ENDBRANCH  13   3
ENDBRANCH   8  13
TORSDOF 6
ENDMDL
MODEL 4
REMARK VINA RESULT:      -1.7      1.987      5.709
REMARK  Name = 45783256
REMARK  7 active torsions:
REMARK  status: ('A' for Active; 'I' for Inactive)
REMARK    1  A    between atoms: N_3  and  C_13
REMARK    2  A    between atoms: N_3  and  C_16
REMARK    3  A    between atoms: C_7  and  C_14
REMARK    4  A    between atoms: C_8  and  C_13
REMARK    5  A    between atoms: C_16  and  C_19
REMARK    6  A    between atoms: C_17  and  C_20
REMARK    7  A    between atoms: C_18  and  C_21
REMARK                            x       y       z     vdW  Elec       q    Type
REMARK                         _______ _______ _______ _____ _____    ______ ____
ROOT
ATOM      2  N   UNL     1      -5.157   2.732  24.168  0.00  0.00    -0.298 NA
ATOM      6  C   UNL     1      -3.751   3.889  26.030  0.00  0.00    +0.002 C 
ATOM      7  C   UNL     1      -2.854   3.538  24.809  0.00  0.00    +0.055 C 
ATOM      8  C   UNL     1      -5.405   2.072  25.477  0.00  0.00    +0.071 C 
ATOM      9  C   UNL     1      -4.430   2.604  26.549  0.00  0.00    +0.024 C 
ATOM     10  C   UNL     1      -4.870   4.815  25.509  0.00  0.00    +0.019 C 
ATOM     11  C   UNL     1      -3.712   2.678  23.837  0.00  0.00    +0.094 C 
ATOM     12  C   UNL     1      -5.550   4.155  24.296  0.00  0.00    +0.085 C 
ENDROOT
BRANCH   7  14
ATOM      4  N   UNL     1      -0.974   3.094  26.310  0.00  0.00    -0.237 NA
ATOM      5  N   UNL     1       0.959   1.838  25.608  0.00  0.00    -0.229 NA
ATOM     14  C   UNL     1      -1.488   2.921  25.075  0.00  0.00    +0.050 A 
ATOM     15  C   UNL     1      -0.848   2.229  24.067  0.00  0.00    +0.055 A 
ATOM     17  C   UNL     1       0.386   1.704  24.394  0.00  0.00    +0.110 A 
ATOM     18  C   UNL     1       0.234   2.534  26.505  0.00  0.00    +0.127 A 
ATOM     21  C   UNL     1       0.836   2.702  27.860  0.00  0.00    +0.088 C 
BRANCH  17  20
ATOM      1  O   UNL     1       2.481   1.289  23.379  0.00  0.00    -0.461 OA
ATOM     20  C   UNL     1       1.163   0.961  23.438  0.00  0.00    +0.153 A 
ATOM     24  C   UNL     1       0.873  -0.037  22.537  0.00  0.00    +0.051 A 
ATOM     27  C   UNL     1       2.089  -0.343  21.884  0.00  0.00    +0.042 A 
ATOM     28  C   UNL     1       3.037   0.490  22.432  0.00  0.00    +0.196 A 
ENDBRANCH  17  20
ENDBRANCH   7  14
BRANCH   8  13
ATOM     13  C   UNL     1      -5.363   0.545  25.377  0.00  0.00    +0.100 C 
BRANCH  13   3
ATOM      3  N   UNL     1      -4.739   0.126  24.133  0.00  0.00    -0.311 NA
ATOM     30  H   UNL     1      -3.911   0.697  23.960  0.00  0.00    +0.122 HD
BRANCH   3  16
ATOM     16  C   UNL     1      -4.363  -1.281  24.183  0.00  0.00    +0.116 C 
BRANCH  16  19
ATOM     19  C   UNL     1      -2.955  -1.468  24.685  0.00  0.00    -0.034 A 
ATOM     22  C   UNL     1      -2.137  -2.445  24.117  0.00  0.00    +0.005 A 
ATOM     23  C   UNL     1      -2.470  -0.665  25.716  0.00  0.00    +0.005 A 
ATOM     25  C   UNL     1      -0.833  -2.619  24.581  0.00  0.00    +0.000 A 
ATOM     26  C   UNL     1      -1.166  -0.839  26.181  0.00  0.00    +0.000 A 
ATOM     29  C   UNL     1      -0.348  -1.816  25.613  0.00  0.00    +0.000 A 
ENDBRANCH  16  19
ENDBRANCH   3  16
ENDBRANCH  13   3
ENDBRANCH   8  13
TORSDOF 6
ENDMDL
MODEL 5
REMARK VINA RESULT:      -1.6      1.785      4.827
REMARK  Name = 45783256
REMARK  7 active torsions:
REMARK  status: ('A' for Active; 'I' for Inactive)
REMARK    1  A    between atoms: N_3  and  C_13
REMARK    2  A    between atoms: N_3  and  C_16
REMARK    3  A    between atoms: C_7  and  C_14
REMARK    4  A    between atoms: C_8  and  C_13
REMARK    5  A    between atoms: C_16  and  C_19
REMARK    6  A    between atoms: C_17  and  C_20
REMARK    7  A    between atoms: C_18  and  C_21
REMARK                            x       y       z     vdW  Elec       q    Type
REMARK                         _______ _______ _______ _____ _____    ______ ____
ROOT
ATOM      2  N   UNL     1       0.323   3.226  25.560  0.00  0.00    -0.298 NA
ATOM      6  C   UNL     1      -1.614   3.760  23.903  0.00  0.00    +0.002 C 
ATOM      7  C   UNL     1      -2.181   3.265  25.263  0.00  0.00    +0.055 C 
ATOM      8  C   UNL     1       0.573   2.560  24.254  0.00  0.00    +0.071 C 
ATOM      9  C   UNL     1      -0.657   2.692  23.332  0.00  0.00    +0.024 C 
ATOM     10  C   UNL     1      -0.765   5.014  24.204  0.00  0.00    +0.019 C 
ATOM     11  C   UNL     1      -0.977   2.779  26.118  0.00  0.00    +0.094 C 
ATOM     12  C   UNL     1       0.246   4.686  25.317  0.00  0.00    +0.085 C 
ENDROOT
BRANCH   7  14
ATOM      4  N   UNL     1      -4.550   2.721  25.544  0.00  0.00    -0.237 NA
ATOM      5  N   UNL     1      -5.400   0.490  25.217  0.00  0.00    -0.229 NA
ATOM     14  C   UNL     1      -3.320   2.256  25.241  0.00  0.00    +0.050 A 
ATOM     15  C   UNL     1      -3.055   0.940  24.919  0.00  0.00    +0.055 A 
ATOM     17  C   UNL     1      -4.145   0.093  24.924  0.00  0.00    +0.110 A 
ATOM     18  C   UNL     1      -5.529   1.798  25.514  0.00  0.00    +0.127 A 
ATOM     21  C   UNL     1      -6.904   2.273  25.843  0.00  0.00    +0.088 C 
BRANCH  17  20
ATOM      1  O   UNL     1      -3.255  -2.026  25.480  0.00  0.00    -0.461 OA
ATOM     20  C   UNL     1      -4.011  -1.304  24.609  0.00  0.00    +0.153 A 
ATOM     24  C   UNL     1      -4.485  -2.108  23.599  0.00  0.00    +0.051 A 
ATOM     27  C   UNL     1      -3.990  -3.406  23.864  0.00  0.00    +0.042 A 
ATOM     28  C   UNL     1      -3.248  -3.304  25.019  0.00  0.00    +0.196 A 
ENDBRANCH  17  20
ENDBRANCH   7  14
BRANCH   8  13
ATOM     13  C   UNL     1       1.009   1.103  24.418  0.00  0.00    +0.100 C 
BRANCH  13   3
ATOM      3  N   UNL     1       0.450   0.275  23.361  0.00  0.00    -0.311 NA
ATOM     30  H   UNL     1      -0.380   0.728  22.979  0.00  0.00    +0.122 HD
BRANCH   3  16
ATOM     16  C   UNL     1       1.423   0.053  22.299  0.00  0.00    +0.116 C 
BRANCH  16  19
ATOM     19  C   UNL     1       2.821  -0.088  22.839  0.00  0.00    -0.034 A 
ATOM     22  C   UNL     1       3.717   0.975  22.740  0.00  0.00    +0.005 A 
ATOM     23  C   UNL     1       3.220  -1.283  23.438  0.00  0.00    +0.005 A 
ATOM     25  C   UNL     1       5.013   0.846  23.240  0.00  0.00    +0.000 A 
ATOM     26  C   UNL     1       4.516  -1.414  23.938  0.00  0.00    +0.000 A 
ATOM     29  C   UNL     1       5.412  -0.349  23.840  0.00  0.00    +0.000 A 
ENDBRANCH  16  19
ENDBRANCH   3  16
ENDBRANCH  13   3
ENDBRANCH   8  13
TORSDOF 6
ENDMDL
MODEL 6
REMARK VINA RESULT:      -0.7      1.597      5.904
REMARK  Name = 45783256
REMARK  7 active torsions:
REMARK  status: ('A' for Active; 'I' for Inactive)
REMARK    1  A    between atoms: N_3  and  C_13
REMARK    2  A    between atoms: N_3  and  C_16
REMARK    3  A    between atoms: C_7  and  C_14
REMARK    4  A    between atoms: C_8  and  C_13
REMARK    5  A    between atoms: C_16  and  C_19
REMARK    6  A    between atoms: C_17  and  C_20
REMARK    7  A    between atoms: C_18  and  C_21
REMARK                            x       y       z     vdW  Elec       q    Type
REMARK                         _______ _______ _______ _____ _____    ______ ____
ROOT
ATOM      2  N   UNL     1      -3.657  -1.798  25.756  0.00  0.00    -0.298 NA
ATOM      6  C   UNL     1      -2.019  -2.192  23.770  0.00  0.00    +0.002 C 
ATOM      7  C   UNL     1      -1.327  -1.367  24.891  0.00  0.00    +0.055 C 
ATOM      8  C   UNL     1      -4.314  -1.430  24.474  0.00  0.00    +0.071 C 
ATOM      9  C   UNL     1      -3.298  -1.459  23.313  0.00  0.00    +0.024 C 
ATOM     10  C   UNL     1      -2.464  -3.525  24.409  0.00  0.00    +0.019 C 
ATOM     11  C   UNL     1      -2.418  -1.002  25.938  0.00  0.00    +0.094 C 
ATOM     12  C   UNL     1      -3.281  -3.230  25.680  0.00  0.00    +0.085 C 
ENDROOT
BRANCH   7  14
ATOM      4  N   UNL     1       0.676  -0.416  23.857  0.00  0.00    -0.237 NA
ATOM      5  N   UNL     1       1.049   1.962  23.729  0.00  0.00    -0.229 NA
ATOM     14  C   UNL     1      -0.491  -0.162  24.483  0.00  0.00    +0.050 A 
ATOM     15  C   UNL     1      -0.950   1.110  24.764  0.00  0.00    +0.055 A 
ATOM     17  C   UNL     1      -0.130   2.143  24.360  0.00  0.00    +0.110 A 
ATOM     18  C   UNL     1       1.385   0.675  23.512  0.00  0.00    +0.127 A 
ATOM     21  C   UNL     1       2.682   0.435  22.816  0.00  0.00    +0.088 C 
BRANCH  17  20
ATOM      1  O   UNL     1      -1.381   3.726  25.593  0.00  0.00    -0.461 OA
ATOM     20  C   UNL     1      -0.486   3.518  24.591  0.00  0.00    +0.153 A 
ATOM     24  C   UNL     1      -0.119   4.712  24.015  0.00  0.00    +0.051 A 
ATOM     27  C   UNL     1      -0.833   5.718  24.707  0.00  0.00    +0.042 A 
ATOM     28  C   UNL     1      -1.586   5.068  25.657  0.00  0.00    +0.196 A 
ENDBRANCH  17  20
ENDBRANCH   7  14
BRANCH   8  13
ATOM     13  C   UNL     1      -5.045  -0.088  24.558  0.00  0.00    +0.100 C 
BRANCH  13   3
ATOM      3  N   UNL     1      -5.084   0.395  25.929  0.00  0.00    -0.311 NA
ATOM     30  H   UNL     1      -4.137   0.415  26.308  0.00  0.00    +0.122 HD
BRANCH   3  16
ATOM     16  C   UNL     1      -5.670   1.727  25.999  0.00  0.00    +0.116 C 
BRANCH  16  19
ATOM     19  C   UNL     1      -5.023   2.677  25.026  0.00  0.00    -0.034 A 
ATOM     22  C   UNL     1      -5.149   4.054  25.207  0.00  0.00    +0.005 A 
ATOM     23  C   UNL     1      -4.297   2.179  23.944  0.00  0.00    +0.005 A 
ATOM     25  C   UNL     1      -4.550   4.934  24.306  0.00  0.00    +0.000 A 
ATOM     26  C   UNL     1      -3.698   3.059  23.042  0.00  0.00    +0.000 A 
ATOM     29  C   UNL     1      -3.824   4.437  23.223  0.00  0.00    +0.000 A 
ENDBRANCH  16  19
ENDBRANCH   3  16
ENDBRANCH  13   3
ENDBRANCH   8  13
TORSDOF 6
ENDMDL
MODEL 7
REMARK VINA RESULT:      -0.4      2.961      5.954
REMARK  Name = 45783256
REMARK  7 active torsions:
REMARK  status: ('A' for Active; 'I' for Inactive)
REMARK    1  A    between atoms: N_3  and  C_13
REMARK    2  A    between atoms: N_3  and  C_16
REMARK    3  A    between atoms: C_7  and  C_14
REMARK    4  A    between atoms: C_8  and  C_13
REMARK    5  A    between atoms: C_16  and  C_19
REMARK    6  A    between atoms: C_17  and  C_20
REMARK    7  A    between atoms: C_18  and  C_21
REMARK                            x       y       z     vdW  Elec       q    Type
REMARK                         _______ _______ _______ _____ _____    ______ ____
ROOT
ATOM      2  N   UNL     1      -3.977  -1.427  25.689  0.00  0.00    -0.298 NA
ATOM      6  C   UNL     1      -2.475  -0.627  23.718  0.00  0.00    +0.002 C 
ATOM      7  C   UNL     1      -1.698  -0.547  25.062  0.00  0.00    +0.055 C 
ATOM      8  C   UNL     1      -4.706  -0.424  24.869  0.00  0.00    +0.071 C 
ATOM      9  C   UNL     1      -3.766   0.213  23.825  0.00  0.00    +0.024 C 
ATOM     10  C   UNL     1      -2.905  -2.099  23.540  0.00  0.00    +0.019 C 
ATOM     11  C   UNL     1      -2.714  -0.842  26.202  0.00  0.00    +0.094 C 
ATOM     12  C   UNL     1      -3.635  -2.570  24.810  0.00  0.00    +0.085 C 
ENDROOT
BRANCH   7  14
ATOM      4  N   UNL     1      -0.675   1.541  24.302  0.00  0.00    -0.237 NA
ATOM      5  N   UNL     1       0.618   2.946  25.772  0.00  0.00    -0.229 NA
ATOM     14  C   UNL     1      -0.866   0.698  25.337  0.00  0.00    +0.050 A 
ATOM     15  C   UNL     1      -0.355   0.907  26.602  0.00  0.00    +0.055 A 
ATOM     17  C   UNL     1       0.387   2.060  26.762  0.00  0.00    +0.110 A 
ATOM     18  C   UNL     1       0.065   2.629  24.585  0.00  0.00    +0.127 A 
ATOM     21  C   UNL     1       0.299   3.587  23.466  0.00  0.00    +0.088 C 
BRANCH  17  20
ATOM      1  O   UNL     1       2.265   2.841  27.969  0.00  0.00    -0.461 OA
ATOM     20  C   UNL     1       0.980   2.400  28.028  0.00  0.00    +0.153 A 
ATOM     24  C   UNL     1       0.535   2.383  29.330  0.00  0.00    +0.051 A 
ATOM     27  C   UNL     1       1.614   2.842  30.121  0.00  0.00    +0.042 A 
ATOM     28  C   UNL     1       2.642   3.108  29.246  0.00  0.00    +0.196 A 
ENDBRANCH  17  20
ENDBRANCH   7  14
BRANCH   8  13
ATOM     13  C   UNL     1      -5.404   0.634  25.727  0.00  0.00    +0.100 C 
BRANCH  13   3
ATOM      3  N   UNL     1      -6.079   1.614  24.891  0.00  0.00    -0.311 NA
ATOM     30  H   UNL     1      -7.045   1.323  24.740  0.00  0.00    +0.122 HD
BRANCH   3  16
ATOM     16  C   UNL     1      -6.054   2.934  25.507  0.00  0.00    +0.116 C 
BRANCH  16  19
ATOM     19  C   UNL     1      -4.696   3.577  25.401  0.00  0.00    -0.034 A 
ATOM     22  C   UNL     1      -3.951   3.826  26.553  0.00  0.00    +0.005 A 
ATOM     23  C   UNL     1      -4.184   3.923  24.151  0.00  0.00    +0.005 A 
ATOM     25  C   UNL     1      -2.693   4.421  26.456  0.00  0.00    +0.000 A 
ATOM     26  C   UNL     1      -2.926   4.519  24.053  0.00  0.00    +0.000 A 
ATOM     29  C   UNL     1      -2.180   4.767  25.205  0.00  0.00    +0.000 A 
ENDBRANCH  16  19
ENDBRANCH   3  16
ENDBRANCH  13   3
ENDBRANCH   8  13
TORSDOF 6
ENDMDL
MODEL 8
REMARK VINA RESULT:      -0.2      2.790      5.788
REMARK  Name = 45783256
REMARK  7 active torsions:
REMARK  status: ('A' for Active; 'I' for Inactive)
REMARK    1  A    between atoms: N_3  and  C_13
REMARK    2  A    between atoms: N_3  and  C_16
REMARK    3  A    between atoms: C_7  and  C_14
REMARK    4  A    between atoms: C_8  and  C_13
REMARK    5  A    between atoms: C_16  and  C_19
REMARK    6  A    between atoms: C_17  and  C_20
REMARK    7  A    between atoms: C_18  and  C_21
REMARK                            x       y       z     vdW  Elec       q    Type
REMARK                         _______ _______ _______ _____ _____    ______ ____
ROOT
ATOM      2  N   UNL     1      -4.880   3.368  23.745  0.00  0.00    -0.298 NA
ATOM      6  C   UNL     1      -3.888   3.674  26.133  0.00  0.00    +0.002 C 
ATOM      7  C   UNL     1      -2.777   3.834  25.058  0.00  0.00    +0.055 C 
ATOM      8  C   UNL     1      -5.302   2.241  24.619  0.00  0.00    +0.071 C 
ATOM      9  C   UNL     1      -4.559   2.294  25.971  0.00  0.00    +0.024 C 
ATOM     10  C   UNL     1      -4.961   4.740  25.826  0.00  0.00    +0.019 C 
ATOM     11  C   UNL     1      -3.399   3.440  23.688  0.00  0.00    +0.094 C 
ATOM     12  C   UNL     1      -5.382   4.624  24.350  0.00  0.00    +0.085 C 
ENDROOT
BRANCH   7  14
ATOM      4  N   UNL     1      -0.881   2.514  24.253  0.00  0.00    -0.237 NA
ATOM      5  N   UNL     1       0.963   1.913  25.683  0.00  0.00    -0.229 NA
ATOM     14  C   UNL     1      -1.438   3.153  25.302  0.00  0.00    +0.050 A 
ATOM     15  C   UNL     1      -0.863   3.214  26.556  0.00  0.00    +0.055 A 
ATOM     17  C   UNL     1       0.350   2.570  26.689  0.00  0.00    +0.110 A 
ATOM     18  C   UNL     1       0.302   1.925  24.509  0.00  0.00    +0.127 A 
ATOM     21  C   UNL     1       0.950   1.209  23.373  0.00  0.00    +0.088 C 
BRANCH  17  20
ATOM      1  O   UNL     1       2.356   2.954  27.881  0.00  0.00    -0.461 OA
ATOM     20  C   UNL     1       1.057   2.553  27.941  0.00  0.00    +0.153 A 
ATOM     24  C   UNL     1       0.715   2.216  29.230  0.00  0.00    +0.051 A 
ATOM     27  C   UNL     1       1.876   2.421  30.012  0.00  0.00    +0.042 A 
ATOM     28  C   UNL     1       2.846   2.871  29.146  0.00  0.00    +0.196 A 
ENDBRANCH  17  20
ENDBRANCH   7  14
BRANCH   8  13
ATOM     13  C   UNL     1      -5.143   0.882  23.935  0.00  0.00    +0.100 C 
BRANCH  13   3
ATOM      3  N   UNL     1      -5.059  -0.185  24.919  0.00  0.00    -0.311 NA
ATOM     30  H   UNL     1      -5.995  -0.406  25.260  0.00  0.00    +0.122 HD
BRANCH   3  16
ATOM     16  C   UNL     1      -4.450  -1.379  24.347  0.00  0.00    +0.116 C 
BRANCH  16  19
ATOM     19  C   UNL     1      -3.005  -1.518  24.748  0.00  0.00    -0.034 A 
ATOM     22  C   UNL     1      -2.198  -2.472  24.127  0.00  0.00    +0.005 A 
ATOM     23  C   UNL     1      -2.474  -0.695  25.740  0.00  0.00    +0.005 A 
ATOM     25  C   UNL     1      -0.860  -2.601  24.498  0.00  0.00    +0.000 A 
ATOM     26  C   UNL     1      -1.136  -0.824  26.112  0.00  0.00    +0.000 A 
ATOM     29  C   UNL     1      -0.328  -1.777  25.491  0.00  0.00    +0.000 A 
ENDBRANCH  16  19
ENDBRANCH   3  16
ENDBRANCH  13   3
ENDBRANCH   8  13
TORSDOF 6
ENDMDL
MODEL 9
REMARK VINA RESULT:      -0.1      2.026      5.627
REMARK  Name = 45783256
REMARK  7 active torsions:
REMARK  status: ('A' for Active; 'I' for Inactive)
REMARK    1  A    between atoms: N_3  and  C_13
REMARK    2  A    between atoms: N_3  and  C_16
REMARK    3  A    between atoms: C_7  and  C_14
REMARK    4  A    between atoms: C_8  and  C_13
REMARK    5  A    between atoms: C_16  and  C_19
REMARK    6  A    between atoms: C_17  and  C_20
REMARK    7  A    between atoms: C_18  and  C_21
REMARK                            x       y       z     vdW  Elec       q    Type
REMARK                         _______ _______ _______ _____ _____    ______ ____
ROOT
ATOM      2  N   UNL     1       1.414  -0.309  24.083  0.00  0.00    -0.298 NA
ATOM      6  C   UNL     1      -0.517   0.453  22.510  0.00  0.00    +0.002 C 
ATOM      7  C   UNL     1       0.006   1.652  23.350  0.00  0.00    +0.055 C 
ATOM      8  C   UNL     1       0.252  -1.225  24.224  0.00  0.00    +0.071 C 
ATOM      9  C   UNL     1      -0.972  -0.675  23.461  0.00  0.00    +0.024 C 
ATOM     10  C   UNL     1       0.685  -0.087  21.708  0.00  0.00    +0.019 C 
ATOM     11  C   UNL     1       1.006   1.082  24.397  0.00  0.00    +0.094 C 
ATOM     12  C   UNL     1       1.858  -0.353  22.669  0.00  0.00    +0.085 C 
ENDROOT
BRANCH   7  14
ATOM      4  N   UNL     1      -0.617   3.860  24.199  0.00  0.00    -0.237 NA
ATOM      5  N   UNL     1      -2.806   4.317  25.098  0.00  0.00    -0.229 NA
ATOM     14  C   UNL     1      -1.015   2.590  23.976  0.00  0.00    +0.050 A 
ATOM     15  C   UNL     1      -2.275   2.116  24.283  0.00  0.00    +0.055 A 
ATOM     17  C   UNL     1      -3.137   3.034  24.848  0.00  0.00    +0.110 A 
ATOM     18  C   UNL     1      -1.548   4.658  24.754  0.00  0.00    +0.127 A 
ATOM     21  C   UNL     1      -1.146   6.070  25.014  0.00  0.00    +0.088 C 
BRANCH  17  20
ATOM      1  O   UNL     1      -5.265   2.232  24.200  0.00  0.00    -0.461 OA
ATOM     20  C   UNL     1      -4.479   2.673  25.219  0.00  0.00    +0.153 A 
ATOM     24  C   UNL     1      -5.177   2.670  26.404  0.00  0.00    +0.051 A 
ATOM     27  C   UNL     1      -6.474   2.197  26.096  0.00  0.00    +0.042 A 
ATOM     28  C   UNL     1      -6.477   1.944  24.743  0.00  0.00    +0.196 A 
ENDBRANCH  17  20
ENDBRANCH   7  14
BRANCH   8  13
ATOM     13  C   UNL     1      -0.078  -1.526  25.688  0.00  0.00    +0.100 C 
BRANCH  13   3
ATOM      3  N   UNL     1      -0.943  -0.498  26.244  0.00  0.00    -0.311 NA
ATOM     30  H   UNL     1      -1.144   0.200  25.529  0.00  0.00    +0.122 HD
BRANCH   3  16
ATOM     16  C   UNL     1      -2.189  -1.071  26.736  0.00  0.00    +0.116 C 
BRANCH  16  19
ATOM     19  C   UNL     1      -3.062  -1.563  25.611  0.00  0.00    -0.034 A 
ATOM     22  C   UNL     1      -3.019  -2.904  25.232  0.00  0.00    +0.005 A 
ATOM     23  C   UNL     1      -3.911  -0.678  24.949  0.00  0.00    +0.005 A 
ATOM     25  C   UNL     1      -3.827  -3.361  24.190  0.00  0.00    +0.000 A 
ATOM     26  C   UNL     1      -4.719  -1.133  23.907  0.00  0.00    +0.000 A 
ATOM     29  C   UNL     1      -4.677  -2.476  23.527  0.00  0.00    +0.000 A 
ENDBRANCH  16  19
ENDBRANCH   3  16
ENDBRANCH  13   3
ENDBRANCH   8  13
TORSDOF 6
ENDMDL
