MODEL 1
REMARK VINA RESULT:      -4.6      0.000      0.000
REMARK  Name = 25390225
REMARK  7 active torsions:
REMARK  status: ('A' for Active; 'I' for Inactive)
REMARK    1  A    between atoms: O_2  and  C_11
REMARK    2  A    between atoms: O_3  and  C_13
REMARK    3  A    between atoms: N_7  and  C_15
REMARK    4  A    between atoms: N_8  and  C_16
REMARK    5  A    between atoms: C_10  and  C_14
REMARK    6  A    between atoms: C_12  and  C_15
REMARK    7  A    between atoms: C_14  and  C_22
REMARK                            x       y       z     vdW  Elec       q    Type
REMARK                         _______ _______ _______ _____ _____    ______ ____
ROOT
ATOM      1  O   UNL     1      -2.423   1.590  24.234  0.00  0.00    -0.366 OA
ATOM     10  C   UNL     1      -3.826   1.941  24.247  0.00  0.00    +0.159 C 
ATOM     11  C   UNL     1      -3.904   3.379  24.749  0.00  0.00    +0.175 C 
ATOM     12  C   UNL     1      -1.669   2.654  24.842  0.00  0.00    +0.167 C 
ATOM     13  C   UNL     1      -2.677   3.471  25.632  0.00  0.00    +0.176 C 
ENDROOT
BRANCH  11   2
ATOM      2  O   UNL     1      -3.771   4.248  23.625  0.00  0.00    -0.387 OA
ATOM     30  H   UNL     1      -3.122   3.846  23.023  0.00  0.00    +0.210 HD
ENDBRANCH  11   2
BRANCH  13   3
ATOM      3  O   UNL     1      -2.238   4.796  25.842  0.00  0.00    -0.387 OA
ATOM     31  H   UNL     1      -2.176   4.934  26.803  0.00  0.00    +0.210 HD
ENDBRANCH  13   3
BRANCH  10  14
ATOM     14  C   UNL     1      -4.545   0.953  25.155  0.00  0.00    +0.130 C 
BRANCH  14  22
ATOM      4  O   UNL     1      -1.009  -2.643  25.392  0.00  0.00    -0.377 OA
ATOM      5  O   UNL     1      -5.288  -0.796  23.737  0.00  0.00    -0.276 OA
ATOM      9  N   UNL     1      -3.435  -1.249  25.061  0.00  0.00    -0.297 N 
ATOM     22  C   UNL     1      -4.464  -0.440  24.584  0.00  0.00    +0.218 C 
ATOM     24  C   UNL     1      -3.282  -2.614  24.556  0.00  0.00    +0.136 C 
ATOM     25  C   UNL     1      -2.520  -0.905  26.154  0.00  0.00    +0.136 C 
ATOM     26  C   UNL     1      -1.821  -2.902  24.242  0.00  0.00    +0.179 C 
ATOM     27  C   UNL     1      -1.089  -1.269  25.778  0.00  0.00    +0.179 C 
ENDBRANCH  14  22
ENDBRANCH  10  14
BRANCH  12  15
ATOM     15  C   UNL     1      -0.561   2.071  25.700  0.00  0.00    +0.140 C 
BRANCH  15   7
ATOM      6  O   UNL     1       0.347   0.296  23.628  0.00  0.00    -0.253 OA
ATOM      7  N   UNL     1       0.700   2.121  25.021  0.00  0.00    -0.297 N 
ATOM      8  N   UNL     1       2.339   1.484  23.524  0.00  0.00    -0.297 N 
ATOM     23  C   UNL     1       1.066   1.215  24.019  0.00  0.00    +0.300 C 
ATOM     28  H   UNL     1       1.380   2.815  25.314  0.00  0.00    +0.150 HD
ATOM     29  H   UNL     1       2.814   2.314  23.863  0.00  0.00    +0.151 HD
BRANCH   8  16
ATOM     16  C   UNL     1       2.965   0.701  22.481  0.00  0.00    +0.074 C 
ATOM     17  C   UNL     1       4.443   1.071  22.326  0.00  0.00    +0.022 C 
ATOM     18  C   UNL     1       2.790  -0.800  22.739  0.00  0.00    +0.022 C 
ATOM     19  C   UNL     1       5.296   0.572  23.492  0.00  0.00    +0.002 C 
ATOM     20  C   UNL     1       3.646  -1.295  23.905  0.00  0.00    +0.002 C 
ATOM     21  C   UNL     1       5.115  -0.925  23.723  0.00  0.00    +0.000 C 
ENDBRANCH   8  16
ENDBRANCH  15   7
ENDBRANCH  12  15
TORSDOF 7
ENDMDL
MODEL 2
REMARK VINA RESULT:      -3.7      1.441      1.930
REMARK  Name = 25390225
REMARK  7 active torsions:
REMARK  status: ('A' for Active; 'I' for Inactive)
REMARK    1  A    between atoms: O_2  and  C_11
REMARK    2  A    between atoms: O_3  and  C_13
REMARK    3  A    between atoms: N_7  and  C_15
REMARK    4  A    between atoms: N_8  and  C_16
REMARK    5  A    between atoms: C_10  and  C_14
REMARK    6  A    between atoms: C_12  and  C_15
REMARK    7  A    between atoms: C_14  and  C_22
REMARK                            x       y       z     vdW  Elec       q    Type
REMARK                         _______ _______ _______ _____ _____    ______ ____
ROOT
ATOM      1  O   UNL     1      -2.987   2.728  23.964  0.00  0.00    -0.366 OA
ATOM     10  C   UNL     1      -3.417   3.450  25.141  0.00  0.00    +0.159 C 
ATOM     11  C   UNL     1      -2.151   3.795  25.919  0.00  0.00    +0.175 C 
ATOM     12  C   UNL     1      -1.574   2.476  24.061  0.00  0.00    +0.167 C 
ATOM     13  C   UNL     1      -1.223   2.664  25.527  0.00  0.00    +0.176 C 
ENDROOT
BRANCH  11   2
ATOM      2  O   UNL     1      -1.653   5.038  25.426  0.00  0.00    -0.387 OA
ATOM     30  H   UNL     1      -1.420   5.584  26.195  0.00  0.00    +0.210 HD
ENDBRANCH  11   2
BRANCH  13   3
ATOM      3  O   UNL     1       0.142   2.973  25.709  0.00  0.00    -0.387 OA
ATOM     31  H   UNL     1       0.368   3.680  25.080  0.00  0.00    +0.210 HD
ENDBRANCH  13   3
BRANCH  10  14
ATOM     14  C   UNL     1      -4.368   2.552  25.918  0.00  0.00    +0.130 C 
BRANCH  14  22
ATOM      4  O   UNL     1      -3.021  -2.179  24.783  0.00  0.00    -0.377 OA
ATOM      5  O   UNL     1      -5.852   1.836  24.213  0.00  0.00    -0.276 OA
ATOM      9  N   UNL     1      -4.464   0.215  25.129  0.00  0.00    -0.297 N 
ATOM     22  C   UNL     1      -4.967   1.509  25.009  0.00  0.00    +0.218 C 
ATOM     24  C   UNL     1      -4.986  -0.856  24.282  0.00  0.00    +0.136 C 
ATOM     25  C   UNL     1      -3.507  -0.233  26.147  0.00  0.00    +0.136 C 
ATOM     26  C   UNL     1      -3.844  -1.691  23.720  0.00  0.00    +0.179 C 
ATOM     27  C   UNL     1      -2.428  -1.100  25.510  0.00  0.00    +0.179 C 
ENDBRANCH  14  22
ENDBRANCH  10  14
BRANCH  12  15
ATOM     15  C   UNL     1      -1.267   1.082  23.542  0.00  0.00    +0.140 C 
BRANCH  15   7
ATOM      6  O   UNL     1       0.651  -0.130  21.776  0.00  0.00    -0.253 OA
ATOM      7  N   UNL     1       0.072   0.691  23.870  0.00  0.00    -0.297 N 
ATOM      8  N   UNL     1       2.183  -0.177  23.521  0.00  0.00    -0.297 N 
ATOM     23  C   UNL     1       0.946   0.105  22.948  0.00  0.00    +0.300 C 
ATOM     28  H   UNL     1       0.386   0.800  24.829  0.00  0.00    +0.150 HD
ATOM     29  H   UNL     1       2.345   0.130  24.474  0.00  0.00    +0.151 HD
BRANCH   8  16
ATOM     16  C   UNL     1       3.273  -0.785  22.790  0.00  0.00    +0.074 C 
ATOM     17  C   UNL     1       4.013   0.253  21.939  0.00  0.00    +0.022 C 
ATOM     18  C   UNL     1       4.233  -1.513  23.739  0.00  0.00    +0.022 C 
ATOM     19  C   UNL     1       4.847   1.215  22.785  0.00  0.00    +0.002 C 
ATOM     20  C   UNL     1       5.066  -0.547  24.581  0.00  0.00    +0.002 C 
ATOM     21  C   UNL     1       5.801   0.468  23.712  0.00  0.00    +0.000 C 
ENDBRANCH   8  16
ENDBRANCH  15   7
ENDBRANCH  12  15
TORSDOF 7
ENDMDL
MODEL 3
REMARK VINA RESULT:      -3.4      1.668      4.101
REMARK  Name = 25390225
REMARK  7 active torsions:
REMARK  status: ('A' for Active; 'I' for Inactive)
REMARK    1  A    between atoms: O_2  and  C_11
REMARK    2  A    between atoms: O_3  and  C_13
REMARK    3  A    between atoms: N_7  and  C_15
REMARK    4  A    between atoms: N_8  and  C_16
REMARK    5  A    between atoms: C_10  and  C_14
REMARK    6  A    between atoms: C_12  and  C_15
REMARK    7  A    between atoms: C_14  and  C_22
REMARK                            x       y       z     vdW  Elec       q    Type
REMARK                         _______ _______ _______ _____ _____    ______ ____
ROOT
ATOM      1  O   UNL     1      -3.297  -0.074  25.832  0.00  0.00    -0.366 OA
ATOM     10  C   UNL     1      -4.409  -0.760  25.212  0.00  0.00    +0.159 C 
ATOM     11  C   UNL     1      -3.807  -1.886  24.377  0.00  0.00    +0.175 C 
ATOM     12  C   UNL     1      -2.068  -0.603  25.304  0.00  0.00    +0.167 C 
ATOM     13  C   UNL     1      -2.448  -1.320  24.020  0.00  0.00    +0.176 C 
ENDROOT
BRANCH  11   2
ATOM      2  O   UNL     1      -3.661  -3.030  25.217  0.00  0.00    -0.387 OA
ATOM     30  H   UNL     1      -3.722  -2.724  26.137  0.00  0.00    +0.210 HD
ENDBRANCH  11   2
BRANCH  13   3
ATOM      3  O   UNL     1      -1.506  -2.310  23.667  0.00  0.00    -0.387 OA
ATOM     31  H   UNL     1      -1.611  -2.488  22.716  0.00  0.00    +0.210 HD
ENDBRANCH  13   3
BRANCH  10  14
ATOM     14  C   UNL     1      -5.178   0.255  24.378  0.00  0.00    +0.130 C 
BRANCH  14  22
ATOM      4  O   UNL     1      -2.424   4.468  24.778  0.00  0.00    -0.377 OA
ATOM      5  O   UNL     1      -6.247   1.587  26.022  0.00  0.00    -0.276 OA
ATOM      9  N   UNL     1      -4.525   2.591  24.831  0.00  0.00    -0.297 N 
ATOM     22  C   UNL     1      -5.372   1.533  25.154  0.00  0.00    +0.218 C 
ATOM     24  C   UNL     1      -4.643   3.866  25.539  0.00  0.00    +0.136 C 
ATOM     25  C   UNL     1      -3.563   2.604  23.723  0.00  0.00    +0.136 C 
ATOM     26  C   UNL     1      -3.267   4.384  25.931  0.00  0.00    +0.179 C 
ATOM     27  C   UNL     1      -2.232   3.180  24.189  0.00  0.00    +0.179 C 
ENDBRANCH  14  22
ENDBRANCH  10  14
BRANCH  12  15
ATOM     15  C   UNL     1      -1.074   0.525  25.093  0.00  0.00    +0.140 C 
BRANCH  15   7
ATOM      6  O   UNL     1       0.463   0.085  22.703  0.00  0.00    -0.253 OA
ATOM      7  N   UNL     1       0.267   0.026  25.016  0.00  0.00    -0.297 N 
ATOM      8  N   UNL     1       2.232  -0.655  24.013  0.00  0.00    -0.297 N 
ATOM     23  C   UNL     1       0.947  -0.160  23.808  0.00  0.00    +0.300 C 
ATOM     28  H   UNL     1       0.728  -0.252  25.877  0.00  0.00    +0.150 HD
ATOM     29  H   UNL     1       2.557  -0.747  24.970  0.00  0.00    +0.151 HD
BRANCH   8  16
ATOM     16  C   UNL     1       3.152  -0.938  22.934  0.00  0.00    +0.074 C 
ATOM     17  C   UNL     1       3.520   0.341  22.174  0.00  0.00    +0.022 C 
ATOM     18  C   UNL     1       4.404  -1.656  23.453  0.00  0.00    +0.022 C 
ATOM     19  C   UNL     1       4.433   1.261  22.983  0.00  0.00    +0.002 C 
ATOM     20  C   UNL     1       5.315  -0.732  24.260  0.00  0.00    +0.002 C 
ATOM     21  C   UNL     1       5.676   0.527  23.479  0.00  0.00    +0.000 C 
ENDBRANCH   8  16
ENDBRANCH  15   7
ENDBRANCH  12  15
TORSDOF 7
ENDMDL
MODEL 4
REMARK VINA RESULT:      -2.6      1.559      2.173
REMARK  Name = 25390225
REMARK  7 active torsions:
REMARK  status: ('A' for Active; 'I' for Inactive)
REMARK    1  A    between atoms: O_2  and  C_11
REMARK    2  A    between atoms: O_3  and  C_13
REMARK    3  A    between atoms: N_7  and  C_15
REMARK    4  A    between atoms: N_8  and  C_16
REMARK    5  A    between atoms: C_10  and  C_14
REMARK    6  A    between atoms: C_12  and  C_15
REMARK    7  A    between atoms: C_14  and  C_22
REMARK                            x       y       z     vdW  Elec       q    Type
REMARK                         _______ _______ _______ _____ _____    ______ ____
ROOT
ATOM      1  O   UNL     1      -2.893   4.003  23.729  0.00  0.00    -0.366 OA
ATOM     10  C   UNL     1      -3.966   3.054  23.933  0.00  0.00    +0.159 C 
ATOM     11  C   UNL     1      -4.340   3.140  25.409  0.00  0.00    +0.175 C 
ATOM     12  C   UNL     1      -2.490   4.533  25.004  0.00  0.00    +0.167 C 
ATOM     13  C   UNL     1      -3.030   3.564  26.041  0.00  0.00    +0.176 C 
ENDROOT
BRANCH  11   2
ATOM      2  O   UNL     1      -5.317   4.168  25.559  0.00  0.00    -0.387 OA
ATOM     30  H   UNL     1      -5.859   3.943  26.334  0.00  0.00    +0.210 HD
ENDBRANCH  11   2
BRANCH  13   3
ATOM      3  O   UNL     1      -3.191   4.174  27.304  0.00  0.00    -0.387 OA
ATOM     31  H   UNL     1      -2.399   3.967  27.831  0.00  0.00    +0.210 HD
ENDBRANCH  13   3
BRANCH  10  14
ATOM     14  C   UNL     1      -3.455   1.679  23.526  0.00  0.00    +0.130 C 
BRANCH  14  22
ATOM      4  O   UNL     1      -1.874  -2.828  25.161  0.00  0.00    -0.377 OA
ATOM      5  O   UNL     1      -5.321   0.671  24.587  0.00  0.00    -0.276 OA
ATOM      9  N   UNL     1      -3.280  -0.410  24.828  0.00  0.00    -0.297 N 
ATOM     22  C   UNL     1      -4.110   0.607  24.361  0.00  0.00    +0.218 C 
ATOM     24  C   UNL     1      -3.835  -1.492  25.642  0.00  0.00    +0.136 C 
ATOM     25  C   UNL     1      -1.820  -0.450  24.687  0.00  0.00    +0.136 C 
ATOM     26  C   UNL     1      -3.304  -2.837  25.168  0.00  0.00    +0.179 C 
ATOM     27  C   UNL     1      -1.371  -1.841  24.258  0.00  0.00    +0.179 C 
ENDBRANCH  14  22
ENDBRANCH  10  14
BRANCH  12  15
ATOM     15  C   UNL     1      -0.979   4.677  25.043  0.00  0.00    +0.140 C 
BRANCH  15   7
ATOM      6  O   UNL     1       0.393   2.290  25.873  0.00  0.00    -0.253 OA
ATOM      7  N   UNL     1      -0.345   3.713  24.193  0.00  0.00    -0.297 N 
ATOM      8  N   UNL     1       0.834   1.805  23.645  0.00  0.00    -0.297 N 
ATOM     23  C   UNL     1       0.304   2.573  24.678  0.00  0.00    +0.300 C 
ATOM     28  H   UNL     1      -0.323   3.891  23.193  0.00  0.00    +0.150 HD
ATOM     29  H   UNL     1       0.635   2.090  22.692  0.00  0.00    +0.151 HD
BRANCH   8  16
ATOM     16  C   UNL     1       1.556   0.572  23.866  0.00  0.00    +0.074 C 
ATOM     17  C   UNL     1       1.127  -0.505  22.863  0.00  0.00    +0.022 C 
ATOM     18  C   UNL     1       3.070   0.804  23.819  0.00  0.00    +0.022 C 
ATOM     19  C   UNL     1       1.635  -0.223  21.450  0.00  0.00    +0.002 C 
ATOM     20  C   UNL     1       3.575   1.084  22.403  0.00  0.00    +0.002 C 
ATOM     21  C   UNL     1       3.146  -0.006  21.427  0.00  0.00    +0.000 C 
ENDBRANCH   8  16
ENDBRANCH  15   7
ENDBRANCH  12  15
TORSDOF 7
ENDMDL
MODEL 5
REMARK VINA RESULT:      -1.4      1.753      6.782
REMARK  Name = 25390225
REMARK  7 active torsions:
REMARK  status: ('A' for Active; 'I' for Inactive)
REMARK    1  A    between atoms: O_2  and  C_11
REMARK    2  A    between atoms: O_3  and  C_13
REMARK    3  A    between atoms: N_7  and  C_15
REMARK    4  A    between atoms: N_8  and  C_16
REMARK    5  A    between atoms: C_10  and  C_14
REMARK    6  A    between atoms: C_12  and  C_15
REMARK    7  A    between atoms: C_14  and  C_22
REMARK                            x       y       z     vdW  Elec       q    Type
REMARK                         _______ _______ _______ _____ _____    ______ ____
ROOT
ATOM      1  O   UNL     1      -1.366  -1.804  23.586  0.00  0.00    -0.366 OA
ATOM     10  C   UNL     1      -0.249  -0.995  24.019  0.00  0.00    +0.159 C 
ATOM     11  C   UNL     1      -0.358  -0.888  25.536  0.00  0.00    +0.175 C 
ATOM     12  C   UNL     1      -2.225  -2.055  24.712  0.00  0.00    +0.167 C 
ATOM     13  C   UNL     1      -1.852  -1.013  25.754  0.00  0.00    +0.176 C 
ENDROOT
BRANCH  11   2
ATOM      2  O   UNL     1       0.321  -2.004  26.109  0.00  0.00    -0.387 OA
ATOM     30  H   UNL     1       0.036  -2.797  25.624  0.00  0.00    +0.210 HD
ENDBRANCH  11   2
BRANCH  13   3
ATOM      3  O   UNL     1      -2.194  -1.423  27.060  0.00  0.00    -0.387 OA
ATOM     31  H   UNL     1      -2.134  -2.394  27.087  0.00  0.00    +0.210 HD
ENDBRANCH  13   3
BRANCH  10  14
ATOM     14  C   UNL     1      -0.349   0.353  23.317  0.00  0.00    +0.130 C 
BRANCH  14  22
ATOM      4  O   UNL     1       4.596  -0.265  22.506  0.00  0.00    -0.377 OA
ATOM      5  O   UNL     1       0.728   2.166  24.400  0.00  0.00    -0.276 OA
ATOM      9  N   UNL     1       2.056   0.831  23.042  0.00  0.00    -0.297 N 
ATOM     22  C   UNL     1       0.854   1.203  23.639  0.00  0.00    +0.218 C 
ATOM     24  C   UNL     1       3.273   1.599  23.304  0.00  0.00    +0.136 C 
ATOM     25  C   UNL     1       2.216  -0.226  22.037  0.00  0.00    +0.136 C 
ATOM     26  C   UNL     1       4.441   0.664  23.582  0.00  0.00    +0.179 C 
ATOM     27  C   UNL     1       3.432  -1.084  22.363  0.00  0.00    +0.179 C 
ENDBRANCH  14  22
ENDBRANCH  10  14
BRANCH  12  15
ATOM     15  C   UNL     1      -3.678  -1.976  24.276  0.00  0.00    +0.140 C 
BRANCH  15   7
ATOM      6  O   UNL     1      -3.518   0.657  23.134  0.00  0.00    -0.253 OA
ATOM      7  N   UNL     1      -4.304  -0.787  24.773  0.00  0.00    -0.297 N 
ATOM      8  N   UNL     1      -4.882   1.447  24.839  0.00  0.00    -0.297 N 
ATOM     23  C   UNL     1      -4.176   0.461  24.156  0.00  0.00    +0.300 C 
ATOM     28  H   UNL     1      -4.825  -0.844  25.643  0.00  0.00    +0.150 HD
ATOM     29  H   UNL     1      -5.455   1.160  25.627  0.00  0.00    +0.151 HD
BRANCH   8  16
ATOM     16  C   UNL     1      -4.921   2.830  24.417  0.00  0.00    +0.074 C 
ATOM     17  C   UNL     1      -5.243   3.756  25.594  0.00  0.00    +0.022 C 
ATOM     18  C   UNL     1      -3.610   3.234  23.732  0.00  0.00    +0.022 C 
ATOM     19  C   UNL     1      -4.079   3.878  26.577  0.00  0.00    +0.002 C 
ATOM     20  C   UNL     1      -2.450   3.355  24.720  0.00  0.00    +0.002 C 
ATOM     21  C   UNL     1      -2.789   4.292  25.875  0.00  0.00    +0.000 C 
ENDBRANCH   8  16
ENDBRANCH  15   7
ENDBRANCH  12  15
TORSDOF 7
ENDMDL
MODEL 6
REMARK VINA RESULT:      -0.9      2.244      5.412
REMARK  Name = 25390225
REMARK  7 active torsions:
REMARK  status: ('A' for Active; 'I' for Inactive)
REMARK    1  A    between atoms: O_2  and  C_11
REMARK    2  A    between atoms: O_3  and  C_13
REMARK    3  A    between atoms: N_7  and  C_15
REMARK    4  A    between atoms: N_8  and  C_16
REMARK    5  A    between atoms: C_10  and  C_14
REMARK    6  A    between atoms: C_12  and  C_15
REMARK    7  A    between atoms: C_14  and  C_22
REMARK                            x       y       z     vdW  Elec       q    Type
REMARK                         _______ _______ _______ _____ _____    ______ ____
ROOT
ATOM      1  O   UNL     1       0.103   2.830  23.309  0.00  0.00    -0.366 OA
ATOM     10  C   UNL     1      -1.195   3.404  23.590  0.00  0.00    +0.159 C 
ATOM     11  C   UNL     1      -1.475   3.130  25.064  0.00  0.00    +0.175 C 
ATOM     12  C   UNL     1       0.548   2.094  24.462  0.00  0.00    +0.167 C 
ATOM     13  C   UNL     1      -0.696   1.852  25.300  0.00  0.00    +0.176 C 
ENDROOT
BRANCH  11   2
ATOM      2  O   UNL     1      -0.916   4.198  25.827  0.00  0.00    -0.387 OA
ATOM     30  H   UNL     1      -1.379   4.218  26.682  0.00  0.00    +0.210 HD
ENDBRANCH  11   2
BRANCH  13   3
ATOM      3  O   UNL     1      -0.384   1.630  26.659  0.00  0.00    -0.387 OA
ATOM     31  H   UNL     1      -0.226   0.677  26.771  0.00  0.00    +0.210 HD
ENDBRANCH  13   3
BRANCH  10  14
ATOM     14  C   UNL     1      -2.206   2.750  22.660  0.00  0.00    +0.130 C 
BRANCH  14  22
ATOM      4  O   UNL     1      -5.920   3.835  25.902  0.00  0.00    -0.377 OA
ATOM      5  O   UNL     1      -2.964   0.672  23.513  0.00  0.00    -0.276 OA
ATOM      9  N   UNL     1      -4.228   2.541  24.058  0.00  0.00    -0.297 N 
ATOM     22  C   UNL     1      -3.162   1.888  23.444  0.00  0.00    +0.218 C 
ATOM     24  C   UNL     1      -5.200   1.780  24.843  0.00  0.00    +0.136 C 
ATOM     25  C   UNL     1      -4.564   3.960  23.894  0.00  0.00    +0.136 C 
ATOM     26  C   UNL     1      -5.496   2.493  26.155  0.00  0.00    +0.179 C 
ATOM     27  C   UNL     1      -4.894   4.583  25.245  0.00  0.00    +0.179 C 
ENDBRANCH  14  22
ENDBRANCH  10  14
BRANCH  12  15
ATOM     15  C   UNL     1       1.233   0.813  24.018  0.00  0.00    +0.140 C 
BRANCH  15   7
ATOM      6  O   UNL     1      -0.222  -1.025  25.682  0.00  0.00    -0.253 OA
ATOM      7  N   UNL     1       0.277  -0.162  23.585  0.00  0.00    -0.297 N 
ATOM      8  N   UNL     1      -1.263  -1.870  23.787  0.00  0.00    -0.297 N 
ATOM     23  C   UNL     1      -0.390  -1.023  24.463  0.00  0.00    +0.300 C 
ATOM     28  H   UNL     1       0.112  -0.267  22.589  0.00  0.00    +0.150 HD
ATOM     29  H   UNL     1      -1.382  -1.730  22.789  0.00  0.00    +0.151 HD
BRANCH   8  16
ATOM     16  C   UNL     1      -2.080  -2.861  24.453  0.00  0.00    +0.074 C 
ATOM     17  C   UNL     1      -2.531  -2.366  25.831  0.00  0.00    +0.022 C 
ATOM     18  C   UNL     1      -3.279  -3.259  23.585  0.00  0.00    +0.022 C 
ATOM     19  C   UNL     1      -3.584  -1.262  25.740  0.00  0.00    +0.002 C 
ATOM     20  C   UNL     1      -4.330  -2.153  23.498  0.00  0.00    +0.002 C 
ATOM     21  C   UNL     1      -4.772  -1.686  24.881  0.00  0.00    +0.000 C 
ENDBRANCH   8  16
ENDBRANCH  15   7
ENDBRANCH  12  15
TORSDOF 7
ENDMDL
