MODEL 1
REMARK VINA RESULT:       6.9      0.000      0.000
REMARK  Name = 51136883
REMARK  10 active torsions:
REMARK  status: ('A' for Active; 'I' for Inactive)
REMARK    1  A    between atoms: O_3  and  C_30
REMARK    2  A    between atoms: O_3  and  C_31
REMARK    3  A    between atoms: N_4  and  C_13
REMARK    4  A    between atoms: N_8  and  C_23
REMARK    5  A    between atoms: C_9  and  C_15
REMARK    6  A    between atoms: C_13  and  C_14
REMARK    7  A    between atoms: C_14  and  C_16
REMARK    8  A    between atoms: C_14  and  C_17
REMARK    9  A    between atoms: C_18  and  C_19
REMARK   10  A    between atoms: C_24  and  C_25
REMARK                            x       y       z     vdW  Elec       q    Type
REMARK                         _______ _______ _______ _____ _____    ______ ____
ROOT
ATOM      7  N   UNL     1      -0.887  -9.082  12.734  0.00  0.00    -0.239 NA
ATOM     19  C   UNL     1      -2.772  -9.411  11.255  0.00  0.00    +0.041 A 
ATOM     20  C   UNL     1      -2.019  -8.950  10.181  0.00  0.00    +0.016 A 
ATOM     21  C   UNL     1      -2.166  -9.457  12.500  0.00  0.00    +0.124 A 
ATOM     22  C   UNL     1      -0.700  -8.555  10.382  0.00  0.00    +0.044 A 
ATOM     23  C   UNL     1      -0.187  -8.640  11.665  0.00  0.00    +0.125 A 
ENDROOT
BRANCH  19  18
ATOM      1  O   UNL     1      -6.023 -10.781  11.364  0.00  0.00    -0.336 OA
ATOM      5  N   UNL     1      -4.892  -9.373  10.040  0.00  0.00    -0.190 NA
ATOM      6  N   UNL     1      -4.742 -10.671  11.917  0.00  0.00    -0.056 NA
ATOM     15  C   UNL     1      -6.027  -9.986  10.262  0.00  0.00    +0.245 A 
ATOM     18  C   UNL     1      -4.134  -9.824  11.080  0.00  0.00    +0.204 A 
BRANCH  15   9
ATOM      4  N   UNL     1      -8.486  -9.605  10.322  0.00  0.00    -0.291 NA
ATOM      9  C   UNL     1      -7.320  -9.929   9.476  0.00  0.00    +0.146 C 
ATOM     10  C   UNL     1      -7.308  -8.835   8.392  0.00  0.00    +0.030 C 
ATOM     11  C   UNL     1      -9.442  -8.909   9.461  0.00  0.00    +0.085 C 
ATOM     12  C   UNL     1      -8.537  -7.982   8.675  0.00  0.00    +0.017 C 
BRANCH   4  13
ATOM     13  C   UNL     1      -9.075 -10.776  10.960  0.00  0.00    +0.088 C 
BRANCH  13  14
ATOM     14  C   UNL     1      -9.349 -10.553  12.457  0.00  0.00    -0.003 C 
ATOM     16  C   UNL     1     -10.718  -9.916  12.716  0.00  0.00    +0.008 C 
ATOM     17  C   UNL     1      -8.251  -9.674  13.059  0.00  0.00    +0.008 C 
ENDBRANCH  13  14
ENDBRANCH   4  13
ENDBRANCH  15   9
ENDBRANCH  19  18
BRANCH  23   8
ATOM      2  O   UNL     1       0.961  -5.920  12.180  0.00  0.00    -0.270 OA
ATOM      8  N   UNL     1       1.141  -8.240  11.857  0.00  0.00    -0.266 N 
ATOM     24  C   UNL     1       1.622  -6.949  12.095  0.00  0.00    +0.249 C 
ATOM     32  H   UNL     1       1.802  -9.006  11.771  0.00  0.00    +0.157 HD
BRANCH  24  25
ATOM     25  C   UNL     1       3.092  -6.845  12.287  0.00  0.00    +0.037 A 
ATOM     26  C   UNL     1       3.925  -7.880  11.863  0.00  0.00    +0.016 A 
ATOM     27  C   UNL     1       3.639  -5.715  12.893  0.00  0.00    +0.016 A 
ATOM     28  C   UNL     1       5.305  -7.784  12.044  0.00  0.00    +0.046 A 
ATOM     29  C   UNL     1       5.018  -5.618  13.074  0.00  0.00    +0.046 A 
ATOM     30  C   UNL     1       5.852  -6.653  12.650  0.00  0.00    +0.120 A 
BRANCH  30   3
ATOM      3  O   UNL     1       7.198  -6.559  12.827  0.00  0.00    -0.495 OA
ATOM     31  C   UNL     1       7.653  -5.914  14.015  0.00  0.00    +0.277 C 
ENDBRANCH  30   3
ENDBRANCH  24  25
ENDBRANCH  23   8
TORSDOF 7
ENDMDL
