MODEL 1
REMARK VINA RESULT:      -4.7      0.000      0.000
REMARK  Name = 75536759
REMARK  6 active torsions:
REMARK  status: ('A' for Active; 'I' for Inactive)
REMARK    1  A    between atoms: O_2  and  C_11
REMARK    2  A    between atoms: N_5  and  C_10
REMARK    3  A    between atoms: N_5  and  C_15
REMARK    4  A    between atoms: N_6  and  C_14
REMARK    5  A    between atoms: C_12  and  C_14
REMARK    6  A    between atoms: C_15  and  C_19
REMARK                            x       y       z     vdW  Elec       q    Type
REMARK                         _______ _______ _______ _____ _____    ______ ____
ROOT
ATOM      1  O   UNL     1      -0.187   3.712  23.769  0.00  0.00    -0.371 OA
ATOM     10  C   UNL     1      -1.246   3.988  25.877  0.00  0.00    +0.111 C 
ATOM     11  C   UNL     1      -0.707   2.573  25.775  0.00  0.00    +0.164 C 
ATOM     12  C   UNL     1       0.341   2.736  24.682  0.00  0.00    +0.165 C 
ATOM     13  C   UNL     1      -1.268   4.406  24.416  0.00  0.00    +0.181 C 
ENDROOT
BRANCH  11   2
ATOM      2  O   UNL     1      -0.138   2.117  26.988  0.00  0.00    -0.388 OA
ATOM     26  H   UNL     1      -0.845   1.729  27.530  0.00  0.00    +0.210 HD
ENDBRANCH  11   2
BRANCH  10   5
ATOM      5  N   UNL     1      -2.553   4.070  26.509  0.00  0.00    -0.304 NA
ATOM     24  H   UNL     1      -2.524   4.782  27.240  0.00  0.00    +0.123 HD
BRANCH   5  15
ATOM     15  C   UNL     1      -3.583   4.424  25.541  0.00  0.00    +0.136 C 
BRANCH  15  19
ATOM      8  N   UNL     1      -5.540   3.106  26.431  0.00  0.00    -0.347 N 
ATOM      9  N   UNL     1      -6.025   1.678  24.801  0.00  0.00    -0.244 NA
ATOM     19  C   UNL     1      -4.642   3.359  25.434  0.00  0.00    +0.049 A 
ATOM     22  C   UNL     1      -4.961   2.465  24.439  0.00  0.00    +0.134 A 
ATOM     23  C   UNL     1      -6.349   2.089  26.007  0.00  0.00    +0.196 A 
ATOM     27  H   UNL     1      -5.599   3.581  27.323  0.00  0.00    +0.167 HD
ENDBRANCH  15  19
ENDBRANCH   5  15
ENDBRANCH  10   5
BRANCH  12  14
ATOM     14  C   UNL     1       0.641   1.446  23.940  0.00  0.00    +0.140 C 
BRANCH  14   6
ATOM      3  O   UNL     1      -3.828  -3.103  24.668  0.00  0.00    -0.377 OA
ATOM      4  O   UNL     1      -2.070   1.285  23.204  0.00  0.00    -0.253 OA
ATOM      6  N   UNL     1      -0.274   0.392  24.318  0.00  0.00    -0.297 N 
ATOM      7  N   UNL     1      -2.370  -0.701  24.366  0.00  0.00    -0.281 N 
ATOM     16  C   UNL     1      -1.603   0.386  23.911  0.00  0.00    +0.302 C 
ATOM     17  C   UNL     1      -1.937  -1.724  25.328  0.00  0.00    +0.137 C 
ATOM     18  C   UNL     1      -3.782  -0.784  23.991  0.00  0.00    +0.137 C 
ATOM     20  C   UNL     1      -2.419  -3.107  24.902  0.00  0.00    +0.179 C 
ATOM     21  C   UNL     1      -4.162  -2.206  23.608  0.00  0.00    +0.179 C 
ATOM     25  H   UNL     1       0.105  -0.331  24.912  0.00  0.00    +0.150 HD
ENDBRANCH  14   6
ENDBRANCH  12  14
TORSDOF 6
ENDMDL
MODEL 2
REMARK VINA RESULT:      -4.5      1.933      4.234
REMARK  Name = 75536759
REMARK  6 active torsions:
REMARK  status: ('A' for Active; 'I' for Inactive)
REMARK    1  A    between atoms: O_2  and  C_11
REMARK    2  A    between atoms: N_5  and  C_10
REMARK    3  A    between atoms: N_5  and  C_15
REMARK    4  A    between atoms: N_6  and  C_14
REMARK    5  A    between atoms: C_12  and  C_14
REMARK    6  A    between atoms: C_15  and  C_19
REMARK                            x       y       z     vdW  Elec       q    Type
REMARK                         _______ _______ _______ _____ _____    ______ ____
ROOT
ATOM      1  O   UNL     1      -4.523   3.562  26.497  0.00  0.00    -0.371 OA
ATOM     10  C   UNL     1      -2.961   4.400  24.918  0.00  0.00    +0.111 C 
ATOM     11  C   UNL     1      -3.601   3.142  24.361  0.00  0.00    +0.164 C 
ATOM     12  C   UNL     1      -4.873   3.067  25.195  0.00  0.00    +0.165 C 
ATOM     13  C   UNL     1      -3.273   4.266  26.399  0.00  0.00    +0.181 C 
ENDROOT
BRANCH  11   2
ATOM      2  O   UNL     1      -3.881   3.238  22.978  0.00  0.00    -0.388 OA
ATOM     26  H   UNL     1      -3.431   2.505  22.523  0.00  0.00    +0.210 HD
ENDBRANCH  11   2
BRANCH  10   5
ATOM      5  N   UNL     1      -1.536   4.499  24.646  0.00  0.00    -0.304 NA
ATOM     24  H   UNL     1      -1.216   5.438  24.887  0.00  0.00    +0.123 HD
BRANCH   5  15
ATOM     15  C   UNL     1      -0.783   3.526  25.427  0.00  0.00    +0.136 C 
BRANCH  15  19
ATOM      8  N   UNL     1       0.939   1.904  24.552  0.00  0.00    -0.347 N 
ATOM      9  N   UNL     1      -0.208   0.564  23.203  0.00  0.00    -0.244 NA
ATOM     19  C   UNL     1      -0.352   2.349  24.592  0.00  0.00    +0.049 A 
ATOM     22  C   UNL     1      -1.041   1.506  23.752  0.00  0.00    +0.134 A 
ATOM     23  C   UNL     1       0.977   0.832  23.705  0.00  0.00    +0.196 A 
ATOM     27  H   UNL     1       1.725   2.295  25.054  0.00  0.00    +0.167 HD
ENDBRANCH  15  19
ENDBRANCH   5  15
ENDBRANCH  10   5
BRANCH  12  14
ATOM     14  C   UNL     1      -5.431   1.660  25.313  0.00  0.00    +0.140 C 
BRANCH  14   6
ATOM      3  O   UNL     1      -0.793  -2.775  25.214  0.00  0.00    -0.377 OA
ATOM      4  O   UNL     1      -5.093  -0.731  23.868  0.00  0.00    -0.253 OA
ATOM      6  N   UNL     1      -4.381   0.689  25.524  0.00  0.00    -0.297 N 
ATOM      7  N   UNL     1      -3.213  -1.321  25.092  0.00  0.00    -0.281 N 
ATOM     16  C   UNL     1      -4.284  -0.471  24.764  0.00  0.00    +0.302 C 
ATOM     17  C   UNL     1      -2.302  -1.165  26.235  0.00  0.00    +0.137 C 
ATOM     18  C   UNL     1      -3.039  -2.569  24.348  0.00  0.00    +0.137 C 
ATOM     20  C   UNL     1      -0.867  -1.490  25.832  0.00  0.00    +0.179 C 
ATOM     21  C   UNL     1      -1.574  -2.808  24.019  0.00  0.00    +0.179 C 
ATOM     25  H   UNL     1      -3.731   0.894  26.269  0.00  0.00    +0.150 HD
ENDBRANCH  14   6
ENDBRANCH  12  14
TORSDOF 6
ENDMDL
MODEL 3
REMARK VINA RESULT:      -4.1      1.991      5.733
REMARK  Name = 75536759
REMARK  6 active torsions:
REMARK  status: ('A' for Active; 'I' for Inactive)
REMARK    1  A    between atoms: O_2  and  C_11
REMARK    2  A    between atoms: N_5  and  C_10
REMARK    3  A    between atoms: N_5  and  C_15
REMARK    4  A    between atoms: N_6  and  C_14
REMARK    5  A    between atoms: C_12  and  C_14
REMARK    6  A    between atoms: C_15  and  C_19
REMARK                            x       y       z     vdW  Elec       q    Type
REMARK                         _______ _______ _______ _____ _____    ______ ____
ROOT
ATOM      1  O   UNL     1      -2.785  -3.053  23.756  0.00  0.00    -0.371 OA
ATOM     10  C   UNL     1      -1.091  -2.128  25.140  0.00  0.00    +0.111 C 
ATOM     11  C   UNL     1      -2.322  -1.243  25.206  0.00  0.00    +0.164 C 
ATOM     12  C   UNL     1      -3.403  -2.209  24.742  0.00  0.00    +0.165 C 
ATOM     13  C   UNL     1      -1.358  -2.919  23.870  0.00  0.00    +0.181 C 
ENDROOT
BRANCH  11   2
ATOM      2  O   UNL     1      -2.574  -0.756  26.510  0.00  0.00    -0.388 OA
ATOM     26  H   UNL     1      -1.752  -0.823  27.026  0.00  0.00    +0.210 HD
ENDBRANCH  11   2
BRANCH  10   5
ATOM      5  N   UNL     1       0.159  -1.387  25.093  0.00  0.00    -0.304 NA
ATOM     24  H   UNL     1       0.918  -2.028  24.858  0.00  0.00    +0.123 HD
BRANCH   5  15
ATOM     15  C   UNL     1       0.105  -0.328  24.093  0.00  0.00    +0.136 C 
BRANCH  15  19
ATOM      8  N   UNL     1      -0.267   1.219  26.049  0.00  0.00    -0.347 N 
ATOM      9  N   UNL     1      -0.036   3.253  25.189  0.00  0.00    -0.244 NA
ATOM     19  C   UNL     1       0.006   1.035  24.723  0.00  0.00    +0.049 A 
ATOM     22  C   UNL     1       0.145   2.305  24.214  0.00  0.00    +0.134 A 
ATOM     23  C   UNL     1      -0.283   2.565  26.282  0.00  0.00    +0.196 A 
ATOM     27  H   UNL     1      -0.430   0.494  26.735  0.00  0.00    +0.167 HD
ENDBRANCH  15  19
ENDBRANCH   5  15
ENDBRANCH  10   5
BRANCH  12  14
ATOM     14  C   UNL     1      -4.611  -1.515  24.140  0.00  0.00    +0.140 C 
BRANCH  14   6
ATOM      3  O   UNL     1      -3.477   4.787  24.571  0.00  0.00    -0.377 OA
ATOM      4  O   UNL     1      -5.362   0.446  26.014  0.00  0.00    -0.253 OA
ATOM      6  N   UNL     1      -4.392  -0.092  24.005  0.00  0.00    -0.297 N 
ATOM      7  N   UNL     1      -4.518   2.163  24.702  0.00  0.00    -0.281 N 
ATOM     16  C   UNL     1      -4.794   0.813  24.980  0.00  0.00    +0.302 C 
ATOM     17  C   UNL     1      -3.989   2.698  23.439  0.00  0.00    +0.137 C 
ATOM     18  C   UNL     1      -4.914   3.187  25.671  0.00  0.00    +0.137 C 
ATOM     20  C   UNL     1      -2.951   3.783  23.703  0.00  0.00    +0.179 C 
ATOM     21  C   UNL     1      -3.820   4.230  25.840  0.00  0.00    +0.179 C 
ATOM     25  H   UNL     1      -3.944   0.208  23.151  0.00  0.00    +0.150 HD
ENDBRANCH  14   6
ENDBRANCH  12  14
TORSDOF 6
ENDMDL
MODEL 4
REMARK VINA RESULT:      -3.8      1.935      4.656
REMARK  Name = 75536759
REMARK  6 active torsions:
REMARK  status: ('A' for Active; 'I' for Inactive)
REMARK    1  A    between atoms: O_2  and  C_11
REMARK    2  A    between atoms: N_5  and  C_10
REMARK    3  A    between atoms: N_5  and  C_15
REMARK    4  A    between atoms: N_6  and  C_14
REMARK    5  A    between atoms: C_12  and  C_14
REMARK    6  A    between atoms: C_15  and  C_19
REMARK                            x       y       z     vdW  Elec       q    Type
REMARK                         _______ _______ _______ _____ _____    ______ ____
ROOT
ATOM      1  O   UNL     1      -2.697   4.469  25.844  0.00  0.00    -0.371 OA
ATOM     10  C   UNL     1      -1.153   3.944  24.117  0.00  0.00    +0.111 C 
ATOM     11  C   UNL     1      -2.246   2.892  24.140  0.00  0.00    +0.164 C 
ATOM     12  C   UNL     1      -3.354   3.636  24.875  0.00  0.00    +0.165 C 
ATOM     13  C   UNL     1      -1.305   4.565  25.496  0.00  0.00    +0.181 C 
ENDROOT
BRANCH  11   2
ATOM      2  O   UNL     1      -2.648   2.494  22.843  0.00  0.00    -0.388 OA
ATOM     26  H   UNL     1      -3.455   2.985  22.610  0.00  0.00    +0.210 HD
ENDBRANCH  11   2
BRANCH  10   5
ATOM      5  N   UNL     1       0.175   3.400  23.884  0.00  0.00    -0.304 NA
ATOM     24  H   UNL     1       0.869   4.041  24.270  0.00  0.00    +0.123 HD
BRANCH   5  15
ATOM     15  C   UNL     1       0.328   2.096  24.517  0.00  0.00    +0.136 C 
BRANCH  15  19
ATOM      8  N   UNL     1       2.401   1.279  23.336  0.00  0.00    -0.347 N 
ATOM      9  N   UNL     1       1.744  -0.568  22.293  0.00  0.00    -0.244 NA
ATOM     19  C   UNL     1       1.077   1.130  23.638  0.00  0.00    +0.049 A 
ATOM     22  C   UNL     1       0.694  -0.017  22.983  0.00  0.00    +0.134 A 
ATOM     23  C   UNL     1       2.756   0.237  22.526  0.00  0.00    +0.196 A 
ATOM     27  H   UNL     1       3.009   2.024  23.650  0.00  0.00    +0.167 HD
ENDBRANCH  15  19
ENDBRANCH   5  15
ENDBRANCH  10   5
BRANCH  12  14
ATOM     14  C   UNL     1      -4.337   2.713  25.572  0.00  0.00    +0.140 C 
BRANCH  14   6
ATOM      3  O   UNL     1      -2.466  -3.352  24.622  0.00  0.00    -0.377 OA
ATOM      4  O   UNL     1      -5.406   0.589  24.068  0.00  0.00    -0.253 OA
ATOM      6  N   UNL     1      -3.863   1.347  25.587  0.00  0.00    -0.297 N 
ATOM      7  N   UNL     1      -3.881  -0.927  24.939  0.00  0.00    -0.281 N 
ATOM     16  C   UNL     1      -4.448   0.353  24.811  0.00  0.00    +0.302 C 
ATOM     17  C   UNL     1      -2.847  -1.324  25.906  0.00  0.00    +0.137 C 
ATOM     18  C   UNL     1      -4.439  -2.035  24.164  0.00  0.00    +0.137 C 
ATOM     20  C   UNL     1      -1.822  -2.247  25.255  0.00  0.00    +0.179 C 
ATOM     21  C   UNL     1      -3.335  -2.904  23.581  0.00  0.00    +0.179 C 
ATOM     25  H   UNL     1      -3.091   1.153  26.209  0.00  0.00    +0.150 HD
ENDBRANCH  14   6
ENDBRANCH  12  14
TORSDOF 6
ENDMDL
MODEL 5
REMARK VINA RESULT:      -3.5      1.807      4.500
REMARK  Name = 75536759
REMARK  6 active torsions:
REMARK  status: ('A' for Active; 'I' for Inactive)
REMARK    1  A    between atoms: O_2  and  C_11
REMARK    2  A    between atoms: N_5  and  C_10
REMARK    3  A    between atoms: N_5  and  C_15
REMARK    4  A    between atoms: N_6  and  C_14
REMARK    5  A    between atoms: C_12  and  C_14
REMARK    6  A    between atoms: C_15  and  C_19
REMARK                            x       y       z     vdW  Elec       q    Type
REMARK                         _______ _______ _______ _____ _____    ______ ____
ROOT
ATOM      1  O   UNL     1      -4.129   3.999  26.184  0.00  0.00    -0.371 OA
ATOM     10  C   UNL     1      -2.323   4.100  24.645  0.00  0.00    +0.111 C 
ATOM     11  C   UNL     1      -3.360   3.120  24.127  0.00  0.00    +0.164 C 
ATOM     12  C   UNL     1      -4.596   3.569  24.895  0.00  0.00    +0.165 C 
ATOM     13  C   UNL     1      -2.706   4.195  26.113  0.00  0.00    +0.181 C 
ENDROOT
BRANCH  11   2
ATOM      2  O   UNL     1      -3.546   3.211  22.728  0.00  0.00    -0.388 OA
ATOM     26  H   UNL     1      -3.769   2.326  22.392  0.00  0.00    +0.210 HD
ENDBRANCH  11   2
BRANCH  10   5
ATOM      5  N   UNL     1      -0.952   3.658  24.445  0.00  0.00    -0.304 NA
ATOM     24  H   UNL     1      -0.317   4.385  24.777  0.00  0.00    +0.123 HD
BRANCH   5  15
ATOM     15  C   UNL     1      -0.686   2.425  25.174  0.00  0.00    +0.136 C 
BRANCH  15  19
ATOM      8  N   UNL     1       1.331   1.599  23.905  0.00  0.00    -0.347 N 
ATOM      9  N   UNL     1       0.694  -0.365  23.085  0.00  0.00    -0.244 NA
ATOM     19  C   UNL     1       0.044   1.417  24.325  0.00  0.00    +0.049 A 
ATOM     22  C   UNL     1      -0.327   0.199  23.806  0.00  0.00    +0.134 A 
ATOM     23  C   UNL     1       1.678   0.504  23.163  0.00  0.00    +0.196 A 
ATOM     27  H   UNL     1       1.921   2.396  24.102  0.00  0.00    +0.167 HD
ENDBRANCH  15  19
ENDBRANCH   5  15
ENDBRANCH  10   5
BRANCH  12  14
ATOM     14  C   UNL     1      -5.631   2.471  25.062  0.00  0.00    +0.140 C 
BRANCH  14   6
ATOM      3  O   UNL     1      -3.355  -3.448  24.078  0.00  0.00    -0.377 OA
ATOM      4  O   UNL     1      -3.693   0.917  26.384  0.00  0.00    -0.253 OA
ATOM      6  N   UNL     1      -5.125   1.194  24.613  0.00  0.00    -0.297 N 
ATOM      7  N   UNL     1      -3.768  -0.736  24.758  0.00  0.00    -0.281 N 
ATOM     16  C   UNL     1      -4.165   0.487  25.326  0.00  0.00    +0.302 C 
ATOM     17  C   UNL     1      -4.161  -1.246  23.436  0.00  0.00    +0.137 C 
ATOM     18  C   UNL     1      -2.754  -1.544  25.439  0.00  0.00    +0.137 C 
ATOM     20  C   UNL     1      -4.452  -2.742  23.498  0.00  0.00    +0.179 C 
ATOM     21  C   UNL     1      -3.129  -3.018  25.421  0.00  0.00    +0.179 C 
ATOM     25  H   UNL     1      -5.498   0.853  23.738  0.00  0.00    +0.150 HD
ENDBRANCH  14   6
ENDBRANCH  12  14
TORSDOF 6
ENDMDL
MODEL 6
REMARK VINA RESULT:      -3.5     16.708     19.333
REMARK  Name = 75536759
REMARK  6 active torsions:
REMARK  status: ('A' for Active; 'I' for Inactive)
REMARK    1  A    between atoms: O_2  and  C_11
REMARK    2  A    between atoms: N_5  and  C_10
REMARK    3  A    between atoms: N_5  and  C_15
REMARK    4  A    between atoms: N_6  and  C_14
REMARK    5  A    between atoms: C_12  and  C_14
REMARK    6  A    between atoms: C_15  and  C_19
REMARK                            x       y       z     vdW  Elec       q    Type
REMARK                         _______ _______ _______ _____ _____    ______ ____
ROOT
ATOM      1  O   UNL     1      12.952  -6.465  30.893  0.00  0.00    -0.371 OA
ATOM     10  C   UNL     1      14.733  -7.003  29.417  0.00  0.00    +0.111 C 
ATOM     11  C   UNL     1      14.352  -8.242  30.206  0.00  0.00    +0.164 C 
ATOM     12  C   UNL     1      12.942  -7.882  30.656  0.00  0.00    +0.165 C 
ATOM     13  C   UNL     1      14.120  -5.904  30.270  0.00  0.00    +0.181 C 
ENDROOT
BRANCH  11   2
ATOM      2  O   UNL     1      14.370  -9.417  29.418  0.00  0.00    -0.388 OA
ATOM     26  H   UNL     1      13.672  -9.345  28.745  0.00  0.00    +0.210 HD
ENDBRANCH  11   2
BRANCH  10   5
ATOM      5  N   UNL     1      16.166  -6.845  29.234  0.00  0.00    -0.304 NA
ATOM     24  H   UNL     1      16.639  -7.681  29.581  0.00  0.00    +0.123 HD
BRANCH   5  15
ATOM     15  C   UNL     1      16.499  -6.661  27.827  0.00  0.00    +0.136 C 
BRANCH  15  19
ATOM      8  N   UNL     1      16.774  -9.126  27.373  0.00  0.00    -0.347 N 
ATOM      9  N   UNL     1      15.610  -9.473  25.514  0.00  0.00    -0.244 NA
ATOM     19  C   UNL     1      16.256  -7.911  27.024  0.00  0.00    +0.049 A 
ATOM     22  C   UNL     1      15.542  -8.151  25.874  0.00  0.00    +0.134 A 
ATOM     23  C   UNL     1      16.360 -10.032  26.437  0.00  0.00    +0.196 A 
ATOM     27  H   UNL     1      17.358  -9.323  28.175  0.00  0.00    +0.167 HD
ENDBRANCH  15  19
ENDBRANCH   5  15
ENDBRANCH  10   5
BRANCH  12  14
ATOM     14  C   UNL     1      12.509  -8.612  31.914  0.00  0.00    +0.140 C 
BRANCH  14   6
ATOM      3  O   UNL     1       6.124  -9.136  31.537  0.00  0.00    -0.377 OA
ATOM      4  O   UNL     1      10.393  -7.019  32.866  0.00  0.00    -0.253 OA
ATOM      6  N   UNL     1      11.106  -8.958  31.869  0.00  0.00    -0.297 N 
ATOM      7  N   UNL     1       8.802  -8.592  32.254  0.00  0.00    -0.281 N 
ATOM     16  C   UNL     1      10.119  -8.113  32.362  0.00  0.00    +0.302 C 
ATOM     17  C   UNL     1       8.403  -9.936  31.812  0.00  0.00    +0.137 C 
ATOM     18  C   UNL     1       7.700  -7.770  32.755  0.00  0.00    +0.137 C 
ATOM     20  C   UNL     1       7.176  -9.866  30.907  0.00  0.00    +0.179 C 
ATOM     21  C   UNL     1       6.523  -7.789  31.792  0.00  0.00    +0.179 C 
ATOM     25  H   UNL     1      10.885  -9.861  31.473  0.00  0.00    +0.150 HD
ENDBRANCH  14   6
ENDBRANCH  12  14
TORSDOF 6
ENDMDL
MODEL 7
REMARK VINA RESULT:      -3.4     16.664     19.094
REMARK  Name = 75536759
REMARK  6 active torsions:
REMARK  status: ('A' for Active; 'I' for Inactive)
REMARK    1  A    between atoms: O_2  and  C_11
REMARK    2  A    between atoms: N_5  and  C_10
REMARK    3  A    between atoms: N_5  and  C_15
REMARK    4  A    between atoms: N_6  and  C_14
REMARK    5  A    between atoms: C_12  and  C_14
REMARK    6  A    between atoms: C_15  and  C_19
REMARK                            x       y       z     vdW  Elec       q    Type
REMARK                         _______ _______ _______ _____ _____    ______ ____
ROOT
ATOM      1  O   UNL     1      12.593  -6.825  30.972  0.00  0.00    -0.371 OA
ATOM     10  C   UNL     1      14.951  -6.806  30.688  0.00  0.00    +0.111 C 
ATOM     11  C   UNL     1      14.596  -7.756  31.817  0.00  0.00    +0.164 C 
ATOM     12  C   UNL     1      13.133  -8.044  31.509  0.00  0.00    +0.165 C 
ATOM     13  C   UNL     1      13.685  -5.971  30.589  0.00  0.00    +0.181 C 
ENDROOT
BRANCH  11   2
ATOM      2  O   UNL     1      15.380  -8.934  31.805  0.00  0.00    -0.388 OA
ATOM     26  H   UNL     1      16.177  -8.776  32.339  0.00  0.00    +0.210 HD
ENDBRANCH  11   2
BRANCH  10   5
ATOM      5  N   UNL     1      16.137  -6.007  30.949  0.00  0.00    -0.304 NA
ATOM     24  H   UNL     1      16.955  -6.618  30.955  0.00  0.00    +0.123 HD
BRANCH   5  15
ATOM     15  C   UNL     1      16.316  -4.983  29.927  0.00  0.00    +0.136 C 
BRANCH  15  19
ATOM      8  N   UNL     1      16.093  -3.345  31.831  0.00  0.00    -0.347 N 
ATOM      9  N   UNL     1      16.653  -1.390  30.938  0.00  0.00    -0.244 NA
ATOM     19  C   UNL     1      16.391  -3.603  30.523  0.00  0.00    +0.049 A 
ATOM     22  C   UNL     1      16.733  -2.381  29.993  0.00  0.00    +0.134 A 
ATOM     23  C   UNL     1      16.264  -2.004  32.034  0.00  0.00    +0.196 A 
ATOM     27  H   UNL     1      15.799  -4.019  32.525  0.00  0.00    +0.167 HD
ENDBRANCH  15  19
ENDBRANCH   5  15
ENDBRANCH  10   5
BRANCH  12  14
ATOM     14  C   UNL     1      12.335  -8.467  32.729  0.00  0.00    +0.140 C 
BRANCH  14   6
ATOM      3  O   UNL     1       6.495 -10.206  30.715  0.00  0.00    -0.377 OA
ATOM      4  O   UNL     1       9.817  -7.216  32.838  0.00  0.00    -0.253 OA
ATOM      6  N   UNL     1      11.076  -9.072  32.355  0.00  0.00    -0.297 N 
ATOM      7  N   UNL     1       8.733  -9.108  32.046  0.00  0.00    -0.281 N 
ATOM     16  C   UNL     1       9.872  -8.384  32.438  0.00  0.00    +0.302 C 
ATOM     17  C   UNL     1       8.689 -10.538  31.706  0.00  0.00    +0.137 C 
ATOM     18  C   UNL     1       7.420  -8.463  32.108  0.00  0.00    +0.137 C 
ATOM     20  C   UNL     1       7.784 -10.781  30.503  0.00  0.00    +0.179 C 
ATOM     21  C   UNL     1       6.592  -8.790  30.875  0.00  0.00    +0.179 C 
ATOM     25  H   UNL     1      11.121 -10.033  32.046  0.00  0.00    +0.150 HD
ENDBRANCH  14   6
ENDBRANCH  12  14
TORSDOF 6
ENDMDL
MODEL 8
REMARK VINA RESULT:      -3.2      1.620      5.017
REMARK  Name = 75536759
REMARK  6 active torsions:
REMARK  status: ('A' for Active; 'I' for Inactive)
REMARK    1  A    between atoms: O_2  and  C_11
REMARK    2  A    between atoms: N_5  and  C_10
REMARK    3  A    between atoms: N_5  and  C_15
REMARK    4  A    between atoms: N_6  and  C_14
REMARK    5  A    between atoms: C_12  and  C_14
REMARK    6  A    between atoms: C_15  and  C_19
REMARK                            x       y       z     vdW  Elec       q    Type
REMARK                         _______ _______ _______ _____ _____    ______ ____
ROOT
ATOM      1  O   UNL     1      -2.171  -2.810  25.137  0.00  0.00    -0.371 OA
ATOM     10  C   UNL     1      -3.855  -1.567  24.015  0.00  0.00    +0.111 C 
ATOM     11  C   UNL     1      -2.588  -0.734  24.084  0.00  0.00    +0.164 C 
ATOM     12  C   UNL     1      -1.540  -1.814  24.316  0.00  0.00    +0.165 C 
ATOM     13  C   UNL     1      -3.593  -2.602  25.097  0.00  0.00    +0.181 C 
ENDROOT
BRANCH  11   2
ATOM      2  O   UNL     1      -2.345  -0.010  22.894  0.00  0.00    -0.388 OA
ATOM     26  H   UNL     1      -1.386  -0.000  22.732  0.00  0.00    +0.210 HD
ENDBRANCH  11   2
BRANCH  10   5
ATOM      5  N   UNL     1      -5.069  -0.801  24.246  0.00  0.00    -0.304 NA
ATOM     24  H   UNL     1      -5.855  -1.445  24.342  0.00  0.00    +0.123 HD
BRANCH   5  15
ATOM     15  C   UNL     1      -4.962   0.002  25.457  0.00  0.00    +0.136 C 
BRANCH  15  19
ATOM      8  N   UNL     1      -4.115   1.982  24.146  0.00  0.00    -0.347 N 
ATOM      9  N   UNL     1      -5.118   3.728  25.083  0.00  0.00    -0.244 NA
ATOM     19  C   UNL     1      -4.890   1.474  25.150  0.00  0.00    +0.049 A 
ATOM     22  C   UNL     1      -5.499   2.570  25.714  0.00  0.00    +0.134 A 
ATOM     23  C   UNL     1      -4.283   3.339  24.145  0.00  0.00    +0.196 A 
ATOM     27  H   UNL     1      -3.522   1.456  23.519  0.00  0.00    +0.167 HD
ENDBRANCH  15  19
ENDBRANCH   5  15
ENDBRANCH  10   5
BRANCH  12  14
ATOM     14  C   UNL     1      -0.288  -1.299  25.003  0.00  0.00    +0.140 C 
BRANCH  14   6
ATOM      3  O   UNL     1      -0.981   5.071  25.367  0.00  0.00    -0.377 OA
ATOM      4  O   UNL     1       0.501   0.816  23.323  0.00  0.00    -0.253 OA
ATOM      6  N   UNL     1      -0.396   0.110  25.313  0.00  0.00    -0.297 N 
ATOM      7  N   UNL     1      -0.143   2.418  24.872  0.00  0.00    -0.281 N 
ATOM     16  C   UNL     1       0.018   1.095  24.425  0.00  0.00    +0.302 C 
ATOM     17  C   UNL     1      -0.562   2.833  26.219  0.00  0.00    +0.137 C 
ATOM     18  C   UNL     1       0.273   3.521  24.003  0.00  0.00    +0.137 C 
ATOM     20  C   UNL     1      -1.531   4.009  26.146  0.00  0.00    +0.179 C 
ATOM     21  C   UNL     1      -0.749   4.646  24.023  0.00  0.00    +0.179 C 
ATOM     25  H   UNL     1      -0.773   0.335  26.223  0.00  0.00    +0.150 HD
ENDBRANCH  14   6
ENDBRANCH  12  14
TORSDOF 6
ENDMDL
MODEL 9
REMARK VINA RESULT:      -3.0      2.265      6.523
REMARK  Name = 75536759
REMARK  6 active torsions:
REMARK  status: ('A' for Active; 'I' for Inactive)
REMARK    1  A    between atoms: O_2  and  C_11
REMARK    2  A    between atoms: N_5  and  C_10
REMARK    3  A    between atoms: N_5  and  C_15
REMARK    4  A    between atoms: N_6  and  C_14
REMARK    5  A    between atoms: C_12  and  C_14
REMARK    6  A    between atoms: C_15  and  C_19
REMARK                            x       y       z     vdW  Elec       q    Type
REMARK                         _______ _______ _______ _____ _____    ______ ____
ROOT
ATOM      1  O   UNL     1      -2.934  -2.827  23.815  0.00  0.00    -0.371 OA
ATOM     10  C   UNL     1      -1.095  -1.977  25.054  0.00  0.00    +0.111 C 
ATOM     11  C   UNL     1      -2.263  -1.017  25.182  0.00  0.00    +0.164 C 
ATOM     12  C   UNL     1      -3.430  -1.926  24.819  0.00  0.00    +0.165 C 
ATOM     13  C   UNL     1      -1.497  -2.779  23.827  0.00  0.00    +0.181 C 
ENDROOT
BRANCH  11   2
ATOM      2  O   UNL     1      -2.394  -0.486  26.486  0.00  0.00    -0.388 OA
ATOM     26  H   UNL     1      -3.327  -0.250  26.628  0.00  0.00    +0.210 HD
ENDBRANCH  11   2
BRANCH  10   5
ATOM      5  N   UNL     1       0.191  -1.315  24.902  0.00  0.00    -0.304 NA
ATOM     24  H   UNL     1       0.847  -1.960  24.462  0.00  0.00    +0.123 HD
BRANCH   5  15
ATOM     15  C   UNL     1       0.072  -0.121  24.075  0.00  0.00    +0.136 C 
BRANCH  15  19
ATOM      8  N   UNL     1       2.187   1.168  23.603  0.00  0.00    -0.347 N 
ATOM      9  N   UNL     1       3.070   0.144  21.841  0.00  0.00    -0.244 NA
ATOM     19  C   UNL     1       1.331   0.149  23.295  0.00  0.00    +0.049 A 
ATOM     22  C   UNL     1       1.897  -0.468  22.204  0.00  0.00    +0.134 A 
ATOM     23  C   UNL     1       3.215   1.126  22.703  0.00  0.00    +0.196 A 
ATOM     27  H   UNL     1       2.082   1.834  24.357  0.00  0.00    +0.167 HD
ENDBRANCH  15  19
ENDBRANCH   5  15
ENDBRANCH  10   5
BRANCH  12  14
ATOM     14  C   UNL     1      -4.634  -1.172  24.283  0.00  0.00    +0.140 C 
BRANCH  14   6
ATOM      3  O   UNL     1      -3.281   5.084  24.750  0.00  0.00    -0.377 OA
ATOM      4  O   UNL     1      -5.351   0.812  26.145  0.00  0.00    -0.253 OA
ATOM      6  N   UNL     1      -4.360   0.242  24.155  0.00  0.00    -0.297 N 
ATOM      7  N   UNL     1      -4.419   2.499  24.854  0.00  0.00    -0.281 N 
ATOM     16  C   UNL     1      -4.749   1.160  25.123  0.00  0.00    +0.302 C 
ATOM     17  C   UNL     1      -3.845   3.016  23.603  0.00  0.00    +0.137 C 
ATOM     18  C   UNL     1      -4.797   3.535  25.818  0.00  0.00    +0.137 C 
ATOM     20  C   UNL     1      -2.774   4.063  23.890  0.00  0.00    +0.179 C 
ATOM     21  C   UNL     1      -3.670   4.538  26.011  0.00  0.00    +0.179 C 
ATOM     25  H   UNL     1      -3.885   0.527  23.311  0.00  0.00    +0.150 HD
ENDBRANCH  14   6
ENDBRANCH  12  14
TORSDOF 6
ENDMDL
MODEL 10
REMARK VINA RESULT:      -2.6      1.991      4.099
REMARK  Name = 75536759
REMARK  6 active torsions:
REMARK  status: ('A' for Active; 'I' for Inactive)
REMARK    1  A    between atoms: O_2  and  C_11
REMARK    2  A    between atoms: N_5  and  C_10
REMARK    3  A    between atoms: N_5  and  C_15
REMARK    4  A    between atoms: N_6  and  C_14
REMARK    5  A    between atoms: C_12  and  C_14
REMARK    6  A    between atoms: C_15  and  C_19
REMARK                            x       y       z     vdW  Elec       q    Type
REMARK                         _______ _______ _______ _____ _____    ______ ____
ROOT
ATOM      1  O   UNL     1      -3.022   3.684  23.406  0.00  0.00    -0.371 OA
ATOM     10  C   UNL     1      -5.017   2.886  24.417  0.00  0.00    +0.111 C 
ATOM     11  C   UNL     1      -4.046   3.309  25.504  0.00  0.00    +0.164 C 
ATOM     12  C   UNL     1      -3.123   4.239  24.728  0.00  0.00    +0.165 C 
ATOM     13  C   UNL     1      -4.086   2.734  23.226  0.00  0.00    +0.181 C 
ENDROOT
BRANCH  11   2
ATOM      2  O   UNL     1      -4.684   3.974  26.578  0.00  0.00    -0.388 OA
ATOM     26  H   UNL     1      -5.624   3.724  26.577  0.00  0.00    +0.210 HD
ENDBRANCH  11   2
BRANCH  10   5
ATOM      5  N   UNL     1      -5.745   1.667  24.727  0.00  0.00    -0.304 NA
ATOM     24  H   UNL     1      -5.817   1.098  23.883  0.00  0.00    +0.123 HD
BRANCH   5  15
ATOM     15  C   UNL     1      -5.065   0.897  25.761  0.00  0.00    +0.136 C 
BRANCH  15  19
ATOM      8  N   UNL     1      -3.618  -1.159  25.952  0.00  0.00    -0.347 N 
ATOM      9  N   UNL     1      -3.692  -2.069  23.927  0.00  0.00    -0.244 NA
ATOM     19  C   UNL     1      -4.419  -0.343  25.204  0.00  0.00    +0.049 A 
ATOM     22  C   UNL     1      -4.449  -0.925  23.959  0.00  0.00    +0.134 A 
ATOM     23  C   UNL     1      -3.205  -2.181  25.143  0.00  0.00    +0.196 A 
ATOM     27  H   UNL     1      -3.373  -1.034  26.925  0.00  0.00    +0.167 HD
ENDBRANCH  15  19
ENDBRANCH   5  15
ENDBRANCH  10   5
BRANCH  12  14
ATOM     14  C   UNL     1      -1.740   4.362  25.341  0.00  0.00    +0.140 C 
BRANCH  14   6
ATOM      3  O   UNL     1       1.345  -0.818  23.141  0.00  0.00    -0.377 OA
ATOM      4  O   UNL     1      -1.961   1.614  25.905  0.00  0.00    -0.253 OA
ATOM      6  N   UNL     1      -0.852   3.328  24.858  0.00  0.00    -0.297 N 
ATOM      7  N   UNL     1      -0.082   1.103  24.644  0.00  0.00    -0.281 N 
ATOM     16  C   UNL     1      -1.031   1.989  25.184  0.00  0.00    +0.302 C 
ATOM     17  C   UNL     1       1.134   1.479  23.908  0.00  0.00    +0.137 C 
ATOM     18  C   UNL     1      -0.189  -0.326  24.942  0.00  0.00    +0.137 C 
ATOM     20  C   UNL     1       1.359   0.547  22.722  0.00  0.00    +0.179 C 
ATOM     21  C   UNL     1       0.076  -1.163  23.700  0.00  0.00    +0.179 C 
ATOM     25  H   UNL     1      -0.082   3.639  24.284  0.00  0.00    +0.150 HD
ENDBRANCH  14   6
ENDBRANCH  12  14
TORSDOF 6
ENDMDL
