MODEL 1
REMARK VINA RESULT:      -4.2      0.000      0.000
REMARK  Name = 45783413
REMARK  8 active torsions:
REMARK  status: ('A' for Active; 'I' for Inactive)
REMARK    1  A    between atoms: O_2  and  C_16
REMARK    2  A    between atoms: O_2  and  C_19
REMARK    3  A    between atoms: O_3  and  C_21
REMARK    4  A    between atoms: O_3  and  C_22
REMARK    5  A    between atoms: N_4  and  C_13
REMARK    6  A    between atoms: C_8  and  C_12
REMARK    7  A    between atoms: C_14  and  C_15
REMARK    8  A    between atoms: C_19  and  C_21
REMARK                            x       y       z     vdW  Elec       q    Type
REMARK                         _______ _______ _______ _____ _____    ______ ____
ROOT
ATOM      1  O   UNL     1       1.461   1.479  23.885  0.00  0.00    -0.336 OA
ATOM      5  N   UNL     1       0.575  -0.544  23.513  0.00  0.00    -0.190 NA
ATOM      6  N   UNL     1       0.131   1.550  24.321  0.00  0.00    -0.056 NA
ATOM     12  C   UNL     1       1.639   0.214  23.424  0.00  0.00    +0.245 A 
ATOM     14  C   UNL     1      -0.324   0.319  24.069  0.00  0.00    +0.207 A 
ENDROOT
BRANCH  12   8
ATOM      4  N   UNL     1       4.010   0.930  23.178  0.00  0.00    -0.294 NA
ATOM      8  C   UNL     1       3.015  -0.122  22.889  0.00  0.00    +0.146 C 
ATOM      9  C   UNL     1       3.601  -1.399  23.519  0.00  0.00    +0.030 C 
ATOM     10  C   UNL     1       4.952  -0.980  24.083  0.00  0.00    +0.017 C 
ATOM     11  C   UNL     1       5.305   0.257  23.282  0.00  0.00    +0.085 C 
ATOM     13  C   UNL     1       4.024   1.996  22.185  0.00  0.00    +0.105 C 
ENDBRANCH  12   8
BRANCH  14  15
ATOM      7  N   UNL     1      -4.044   0.370  24.267  0.00  0.00    -0.221 NA
ATOM     15  C   UNL     1      -1.670  -0.079  24.359  0.00  0.00    +0.084 A 
ATOM     16  C   UNL     1      -2.760   0.705  24.015  0.00  0.00    +0.226 A 
ATOM     17  C   UNL     1      -1.917  -1.285  25.005  0.00  0.00    +0.018 A 
ATOM     18  C   UNL     1      -3.226  -1.665  25.282  0.00  0.00    +0.021 A 
ATOM     20  C   UNL     1      -4.245  -0.810  24.896  0.00  0.00    +0.114 A 
BRANCH  16   2
ATOM      2  O   UNL     1      -2.569   1.905  23.376  0.00  0.00    -0.474 OA
BRANCH   2  19
ATOM     19  C   UNL     1      -3.445   2.966  23.736  0.00  0.00    +0.258 C 
BRANCH  19  21
ATOM     21  C   UNL     1      -2.828   3.750  24.878  0.00  0.00    +0.200 C 
BRANCH  21   3
ATOM      3  O   UNL     1      -3.757   3.815  25.952  0.00  0.00    -0.380 OA
ATOM     22  C   UNL     1      -5.069   3.474  25.528  0.00  0.00    +0.194 C 
ENDBRANCH  21   3
ENDBRANCH  19  21
ENDBRANCH   2  19
ENDBRANCH  16   2
ENDBRANCH  14  15
TORSDOF 6
ENDMDL
MODEL 2
REMARK VINA RESULT:      -4.0      2.330      5.679
REMARK  Name = 45783413
REMARK  8 active torsions:
REMARK  status: ('A' for Active; 'I' for Inactive)
REMARK    1  A    between atoms: O_2  and  C_16
REMARK    2  A    between atoms: O_2  and  C_19
REMARK    3  A    between atoms: O_3  and  C_21
REMARK    4  A    between atoms: O_3  and  C_22
REMARK    5  A    between atoms: N_4  and  C_13
REMARK    6  A    between atoms: C_8  and  C_12
REMARK    7  A    between atoms: C_14  and  C_15
REMARK    8  A    between atoms: C_19  and  C_21
REMARK                            x       y       z     vdW  Elec       q    Type
REMARK                         _______ _______ _______ _____ _____    ______ ____
ROOT
ATOM      1  O   UNL     1      -4.162   2.487  25.262  0.00  0.00    -0.336 OA
ATOM      5  N   UNL     1      -2.307   1.235  25.168  0.00  0.00    -0.190 NA
ATOM      6  N   UNL     1      -4.579   1.199  24.902  0.00  0.00    -0.056 NA
ATOM     12  C   UNL     1      -2.812   2.421  25.399  0.00  0.00    +0.245 A 
ATOM     14  C   UNL     1      -3.429   0.518  24.867  0.00  0.00    +0.207 A 
ENDROOT
BRANCH  12   8
ATOM      4  N   UNL     1      -0.790   3.848  25.145  0.00  0.00    -0.294 NA
ATOM      8  C   UNL     1      -2.109   3.703  25.791  0.00  0.00    +0.146 C 
ATOM      9  C   UNL     1      -2.892   4.961  25.371  0.00  0.00    +0.030 C 
ATOM     10  C   UNL     1      -1.910   5.781  24.544  0.00  0.00    +0.017 C 
ATOM     11  C   UNL     1      -0.554   5.286  25.004  0.00  0.00    +0.085 C 
ATOM     13  C   UNL     1       0.283   3.187  25.876  0.00  0.00    +0.105 C 
ENDBRANCH  12   8
BRANCH  14  15
ATOM      7  N   UNL     1      -2.099  -2.927  24.374  0.00  0.00    -0.221 NA
ATOM     15  C   UNL     1      -3.367  -0.874  24.534  0.00  0.00    +0.084 A 
ATOM     16  C   UNL     1      -2.204  -1.613  24.675  0.00  0.00    +0.226 A 
ATOM     17  C   UNL     1      -4.496  -1.526  24.051  0.00  0.00    +0.018 A 
ATOM     18  C   UNL     1      -4.429  -2.878  23.731  0.00  0.00    +0.021 A 
ATOM     20  C   UNL     1      -3.218  -3.527  23.908  0.00  0.00    +0.114 A 
BRANCH  16   2
ATOM      2  O   UNL     1      -1.062  -1.016  25.147  0.00  0.00    -0.474 OA
BRANCH   2  19
ATOM     19  C   UNL     1       0.105  -1.148  24.347  0.00  0.00    +0.258 C 
BRANCH  19  21
ATOM     21  C   UNL     1       0.279   0.108  23.514  0.00  0.00    +0.200 C 
BRANCH  21   3
ATOM      3  O   UNL     1       1.101  -0.189  22.392  0.00  0.00    -0.380 OA
ATOM     22  C   UNL     1       2.462   0.131  22.644  0.00  0.00    +0.194 C 
ENDBRANCH  21   3
ENDBRANCH  19  21
ENDBRANCH   2  19
ENDBRANCH  16   2
ENDBRANCH  14  15
TORSDOF 6
ENDMDL
MODEL 3
REMARK VINA RESULT:      -3.9      1.594      3.136
REMARK  Name = 45783413
REMARK  8 active torsions:
REMARK  status: ('A' for Active; 'I' for Inactive)
REMARK    1  A    between atoms: O_2  and  C_16
REMARK    2  A    between atoms: O_2  and  C_19
REMARK    3  A    between atoms: O_3  and  C_21
REMARK    4  A    between atoms: O_3  and  C_22
REMARK    5  A    between atoms: N_4  and  C_13
REMARK    6  A    between atoms: C_8  and  C_12
REMARK    7  A    between atoms: C_14  and  C_15
REMARK    8  A    between atoms: C_19  and  C_21
REMARK                            x       y       z     vdW  Elec       q    Type
REMARK                         _______ _______ _______ _____ _____    ______ ____
ROOT
ATOM      1  O   UNL     1       0.758  -0.809  23.664  0.00  0.00    -0.336 OA
ATOM      5  N   UNL     1       1.080   1.408  23.680  0.00  0.00    -0.190 NA
ATOM      6  N   UNL     1      -0.433  -0.246  24.140  0.00  0.00    -0.056 NA
ATOM     12  C   UNL     1       1.595   0.232  23.417  0.00  0.00    +0.245 A 
ATOM     14  C   UNL     1      -0.166   1.063  24.120  0.00  0.00    +0.207 A 
ENDROOT
BRANCH  12   8
ATOM      4  N   UNL     1       3.973   0.924  23.182  0.00  0.00    -0.294 NA
ATOM      8  C   UNL     1       2.969  -0.116  22.885  0.00  0.00    +0.146 C 
ATOM      9  C   UNL     1       3.540  -1.402  23.512  0.00  0.00    +0.030 C 
ATOM     10  C   UNL     1       4.893  -0.999  24.082  0.00  0.00    +0.017 C 
ATOM     11  C   UNL     1       5.261   0.238  23.287  0.00  0.00    +0.085 C 
ATOM     13  C   UNL     1       4.002   1.994  22.193  0.00  0.00    +0.105 C 
ENDBRANCH  12   8
BRANCH  14  15
ATOM      7  N   UNL     1      -3.417   2.754  24.793  0.00  0.00    -0.221 NA
ATOM     15  C   UNL     1      -1.118   2.051  24.536  0.00  0.00    +0.084 A 
ATOM     16  C   UNL     1      -2.484   1.852  24.415  0.00  0.00    +0.226 A 
ATOM     17  C   UNL     1      -0.682   3.254  25.079  0.00  0.00    +0.018 A 
ATOM     18  C   UNL     1      -1.611   4.207  25.481  0.00  0.00    +0.021 A 
ATOM     20  C   UNL     1      -2.955   3.912  25.318  0.00  0.00    +0.114 A 
BRANCH  16   2
ATOM      2  O   UNL     1      -2.964   0.682  23.884  0.00  0.00    -0.474 OA
BRANCH   2  19
ATOM     19  C   UNL     1      -4.082   0.095  24.538  0.00  0.00    +0.258 C 
BRANCH  19  21
ATOM     21  C   UNL     1      -3.585  -0.832  25.631  0.00  0.00    +0.200 C 
BRANCH  21   3
ATOM      3  O   UNL     1      -3.596  -2.168  25.147  0.00  0.00    -0.380 OA
ATOM     22  C   UNL     1      -4.217  -2.256  23.872  0.00  0.00    +0.194 C 
ENDBRANCH  21   3
ENDBRANCH  19  21
ENDBRANCH   2  19
ENDBRANCH  16   2
ENDBRANCH  14  15
TORSDOF 6
ENDMDL
MODEL 4
REMARK VINA RESULT:      -3.7      1.764      6.703
REMARK  Name = 45783413
REMARK  8 active torsions:
REMARK  status: ('A' for Active; 'I' for Inactive)
REMARK    1  A    between atoms: O_2  and  C_16
REMARK    2  A    between atoms: O_2  and  C_19
REMARK    3  A    between atoms: O_3  and  C_21
REMARK    4  A    between atoms: O_3  and  C_22
REMARK    5  A    between atoms: N_4  and  C_13
REMARK    6  A    between atoms: C_8  and  C_12
REMARK    7  A    between atoms: C_14  and  C_15
REMARK    8  A    between atoms: C_19  and  C_21
REMARK                            x       y       z     vdW  Elec       q    Type
REMARK                         _______ _______ _______ _____ _____    ______ ____
ROOT
ATOM      1  O   UNL     1      -1.724   2.704  25.525  0.00  0.00    -0.336 OA
ATOM      5  N   UNL     1      -1.565   1.646  23.557  0.00  0.00    -0.190 NA
ATOM      6  N   UNL     1      -0.385   2.308  25.402  0.00  0.00    -0.056 NA
ATOM     12  C   UNL     1      -2.348   2.275  24.397  0.00  0.00    +0.245 A 
ATOM     14  C   UNL     1      -0.371   1.691  24.217  0.00  0.00    +0.207 A 
ENDROOT
BRANCH  12   8
ATOM      4  N   UNL     1      -4.641   1.828  25.253  0.00  0.00    -0.294 NA
ATOM      8  C   UNL     1      -3.825   2.585  24.283  0.00  0.00    +0.146 C 
ATOM      9  C   UNL     1      -4.146   4.064  24.571  0.00  0.00    +0.030 C 
ATOM     10  C   UNL     1      -5.195   4.034  25.674  0.00  0.00    +0.017 C 
ATOM     11  C   UNL     1      -5.812   2.656  25.545  0.00  0.00    +0.085 C 
ATOM     13  C   UNL     1      -5.013   0.501  24.778  0.00  0.00    +0.105 C 
ENDBRANCH  12   8
BRANCH  14  15
ATOM      7  N   UNL     1       2.005  -0.836  22.856  0.00  0.00    -0.221 NA
ATOM     15  C   UNL     1       0.817   1.108  23.666  0.00  0.00    +0.084 A 
ATOM     16  C   UNL     1       0.907  -0.244  23.376  0.00  0.00    +0.226 A 
ATOM     17  C   UNL     1       1.928   1.903  23.407  0.00  0.00    +0.018 A 
ATOM     18  C   UNL     1       3.077   1.331  22.871  0.00  0.00    +0.021 A 
ATOM     20  C   UNL     1       3.065  -0.031  22.616  0.00  0.00    +0.114 A 
BRANCH  16   2
ATOM      2  O   UNL     1      -0.162  -1.071  23.615  0.00  0.00    -0.474 OA
BRANCH   2  19
ATOM     19  C   UNL     1      -0.331  -1.525  24.951  0.00  0.00    +0.258 C 
BRANCH  19  21
ATOM     21  C   UNL     1      -1.795  -1.403  25.333  0.00  0.00    +0.200 C 
BRANCH  21   3
ATOM      3  O   UNL     1      -2.598  -1.783  24.224  0.00  0.00    -0.380 OA
ATOM     22  C   UNL     1      -3.485  -2.841  24.560  0.00  0.00    +0.194 C 
ENDBRANCH  21   3
ENDBRANCH  19  21
ENDBRANCH   2  19
ENDBRANCH  16   2
ENDBRANCH  14  15
TORSDOF 6
ENDMDL
MODEL 5
REMARK VINA RESULT:      -2.9      1.835      3.696
REMARK  Name = 45783413
REMARK  8 active torsions:
REMARK  status: ('A' for Active; 'I' for Inactive)
REMARK    1  A    between atoms: O_2  and  C_16
REMARK    2  A    between atoms: O_2  and  C_19
REMARK    3  A    between atoms: O_3  and  C_21
REMARK    4  A    between atoms: O_3  and  C_22
REMARK    5  A    between atoms: N_4  and  C_13
REMARK    6  A    between atoms: C_8  and  C_12
REMARK    7  A    between atoms: C_14  and  C_15
REMARK    8  A    between atoms: C_19  and  C_21
REMARK                            x       y       z     vdW  Elec       q    Type
REMARK                         _______ _______ _______ _____ _____    ______ ____
ROOT
ATOM      1  O   UNL     1       0.539   2.536  23.997  0.00  0.00    -0.336 OA
ATOM      5  N   UNL     1      -0.996   0.906  24.051  0.00  0.00    -0.190 NA
ATOM      6  N   UNL     1      -0.666   3.148  24.365  0.00  0.00    -0.056 NA
ATOM     12  C   UNL     1       0.257   1.218  23.831  0.00  0.00    +0.245 A 
ATOM     14  C   UNL     1      -1.523   2.122  24.376  0.00  0.00    +0.207 A 
ENDROOT
BRANCH  12   8
ATOM      4  N   UNL     1       1.497   0.135  21.966  0.00  0.00    -0.294 NA
ATOM      8  C   UNL     1       1.412   0.325  23.427  0.00  0.00    +0.146 C 
ATOM      9  C   UNL     1       2.780   0.907  23.827  0.00  0.00    +0.030 C 
ATOM     10  C   UNL     1       3.587   0.948  22.536  0.00  0.00    +0.017 C 
ATOM     11  C   UNL     1       2.911  -0.087  21.660  0.00  0.00    +0.085 C 
ATOM     13  C   UNL     1       0.655  -0.950  21.478  0.00  0.00    +0.105 C 
ENDBRANCH  12   8
BRANCH  14  15
ATOM      7  N   UNL     1      -5.161   1.399  24.723  0.00  0.00    -0.221 NA
ATOM     15  C   UNL     1      -2.909   2.280  24.704  0.00  0.00    +0.084 A 
ATOM     16  C   UNL     1      -3.845   1.294  24.432  0.00  0.00    +0.226 A 
ATOM     17  C   UNL     1      -3.354   3.447  25.312  0.00  0.00    +0.018 A 
ATOM     18  C   UNL     1      -4.700   3.592  25.629  0.00  0.00    +0.021 A 
ATOM     20  C   UNL     1      -5.556   2.549  25.315  0.00  0.00    +0.114 A 
BRANCH  16   2
ATOM      2  O   UNL     1      -3.457   0.124  23.831  0.00  0.00    -0.474 OA
BRANCH   2  19
ATOM     19  C   UNL     1      -4.241  -1.029  24.111  0.00  0.00    +0.258 C 
BRANCH  19  21
ATOM     21  C   UNL     1      -3.491  -1.909  25.093  0.00  0.00    +0.200 C 
BRANCH  21   3
ATOM      3  O   UNL     1      -2.529  -2.680  24.385  0.00  0.00    -0.380 OA
ATOM     22  C   UNL     1      -1.204  -2.352  24.782  0.00  0.00    +0.194 C 
ENDBRANCH  21   3
ENDBRANCH  19  21
ENDBRANCH   2  19
ENDBRANCH  16   2
ENDBRANCH  14  15
TORSDOF 6
ENDMDL
MODEL 6
REMARK VINA RESULT:      -2.7      3.249      4.382
REMARK  Name = 45783413
REMARK  8 active torsions:
REMARK  status: ('A' for Active; 'I' for Inactive)
REMARK    1  A    between atoms: O_2  and  C_16
REMARK    2  A    between atoms: O_2  and  C_19
REMARK    3  A    between atoms: O_3  and  C_21
REMARK    4  A    between atoms: O_3  and  C_22
REMARK    5  A    between atoms: N_4  and  C_13
REMARK    6  A    between atoms: C_8  and  C_12
REMARK    7  A    between atoms: C_14  and  C_15
REMARK    8  A    between atoms: C_19  and  C_21
REMARK                            x       y       z     vdW  Elec       q    Type
REMARK                         _______ _______ _______ _____ _____    ______ ____
ROOT
ATOM      1  O   UNL     1       0.172   1.403  24.564  0.00  0.00    -0.336 OA
ATOM      5  N   UNL     1      -2.005   1.236  25.065  0.00  0.00    -0.190 NA
ATOM      6  N   UNL     1      -0.205   0.095  24.233  0.00  0.00    -0.056 NA
ATOM     12  C   UNL     1      -0.946   2.006  25.046  0.00  0.00    +0.245 A 
ATOM     14  C   UNL     1      -1.501   0.074  24.557  0.00  0.00    +0.207 A 
ENDROOT
BRANCH  12   8
ATOM      4  N   UNL     1      -0.917   4.395  24.351  0.00  0.00    -0.294 NA
ATOM      8  C   UNL     1      -0.801   3.450  25.479  0.00  0.00    +0.146 C 
ATOM      9  C   UNL     1      -1.896   3.886  26.469  0.00  0.00    +0.030 C 
ATOM     10  C   UNL     1      -2.532   5.119  25.841  0.00  0.00    +0.017 C 
ATOM     11  C   UNL     1      -1.458   5.636  24.905  0.00  0.00    +0.085 C 
ATOM     13  C   UNL     1       0.343   4.612  23.651  0.00  0.00    +0.105 C 
ENDBRANCH  12   8
BRANCH  14  15
ATOM      7  N   UNL     1      -4.489  -2.074  23.974  0.00  0.00    -0.221 NA
ATOM     15  C   UNL     1      -2.319  -1.091  24.388  0.00  0.00    +0.084 A 
ATOM     16  C   UNL     1      -3.680  -1.005  24.140  0.00  0.00    +0.226 A 
ATOM     17  C   UNL     1      -1.754  -2.358  24.471  0.00  0.00    +0.018 A 
ATOM     18  C   UNL     1      -2.553  -3.484  24.305  0.00  0.00    +0.021 A 
ATOM     20  C   UNL     1      -3.903  -3.290  24.061  0.00  0.00    +0.114 A 
BRANCH  16   2
ATOM      2  O   UNL     1      -4.286   0.223  24.051  0.00  0.00    -0.474 OA
BRANCH   2  19
ATOM     19  C   UNL     1      -5.118   0.606  25.138  0.00  0.00    +0.258 C 
BRANCH  19  21
ATOM     21  C   UNL     1      -5.726   1.964  24.842  0.00  0.00    +0.200 C 
BRANCH  21   3
ATOM      3  O   UNL     1      -5.240   2.906  25.788  0.00  0.00    -0.380 OA
ATOM     22  C   UNL     1      -5.865   4.173  25.631  0.00  0.00    +0.194 C 
ENDBRANCH  21   3
ENDBRANCH  19  21
ENDBRANCH   2  19
ENDBRANCH  16   2
ENDBRANCH  14  15
TORSDOF 6
ENDMDL
MODEL 7
REMARK VINA RESULT:      -2.5      3.084      5.733
REMARK  Name = 45783413
REMARK  8 active torsions:
REMARK  status: ('A' for Active; 'I' for Inactive)
REMARK    1  A    between atoms: O_2  and  C_16
REMARK    2  A    between atoms: O_2  and  C_19
REMARK    3  A    between atoms: O_3  and  C_21
REMARK    4  A    between atoms: O_3  and  C_22
REMARK    5  A    between atoms: N_4  and  C_13
REMARK    6  A    between atoms: C_8  and  C_12
REMARK    7  A    between atoms: C_14  and  C_15
REMARK    8  A    between atoms: C_19  and  C_21
REMARK                            x       y       z     vdW  Elec       q    Type
REMARK                         _______ _______ _______ _____ _____    ______ ____
ROOT
ATOM      1  O   UNL     1      -4.839   2.450  24.893  0.00  0.00    -0.336 OA
ATOM      5  N   UNL     1      -2.957   1.361  24.355  0.00  0.00    -0.190 NA
ATOM      6  N   UNL     1      -5.149   1.085  24.952  0.00  0.00    -0.056 NA
ATOM     12  C   UNL     1      -3.531   2.524  24.535  0.00  0.00    +0.245 A 
ATOM     14  C   UNL     1      -3.989   0.508  24.622  0.00  0.00    +0.207 A 
ENDROOT
BRANCH  12   8
ATOM      4  N   UNL     1      -2.402   4.425  25.675  0.00  0.00    -0.294 NA
ATOM      8  C   UNL     1      -2.945   3.914  24.401  0.00  0.00    +0.146 C 
ATOM      9  C   UNL     1      -1.760   3.967  23.420  0.00  0.00    +0.030 C 
ATOM     10  C   UNL     1      -0.614   4.579  24.214  0.00  0.00    +0.017 C 
ATOM     11  C   UNL     1      -1.314   5.339  25.323  0.00  0.00    +0.085 C 
ATOM     13  C   UNL     1      -3.407   5.068  26.512  0.00  0.00    +0.105 C 
ENDBRANCH  12   8
BRANCH  14  15
ATOM      7  N   UNL     1      -2.742  -2.934  25.316  0.00  0.00    -0.221 NA
ATOM     15  C   UNL     1      -3.829  -0.915  24.549  0.00  0.00    +0.084 A 
ATOM     16  C   UNL     1      -2.926  -1.595  25.350  0.00  0.00    +0.226 A 
ATOM     17  C   UNL     1      -4.591  -1.657  23.654  0.00  0.00    +0.018 A 
ATOM     18  C   UNL     1      -4.431  -3.037  23.590  0.00  0.00    +0.021 A 
ATOM     20  C   UNL     1      -3.501  -3.622  24.434  0.00  0.00    +0.114 A 
BRANCH  16   2
ATOM      2  O   UNL     1      -2.149  -0.908  26.249  0.00  0.00    -0.474 OA
BRANCH   2  19
ATOM     19  C   UNL     1      -0.890  -0.443  25.780  0.00  0.00    +0.258 C 
BRANCH  19  21
ATOM     21  C   UNL     1      -0.408  -1.357  24.669  0.00  0.00    +0.200 C 
BRANCH  21   3
ATOM      3  O   UNL     1       0.268  -0.581  23.689  0.00  0.00    -0.380 OA
ATOM     22  C   UNL     1       0.213   0.806  23.993  0.00  0.00    +0.194 C 
ENDBRANCH  21   3
ENDBRANCH  19  21
ENDBRANCH   2  19
ENDBRANCH  16   2
ENDBRANCH  14  15
TORSDOF 6
ENDMDL
MODEL 8
REMARK VINA RESULT:      -2.5      2.015      6.407
REMARK  Name = 45783413
REMARK  8 active torsions:
REMARK  status: ('A' for Active; 'I' for Inactive)
REMARK    1  A    between atoms: O_2  and  C_16
REMARK    2  A    between atoms: O_2  and  C_19
REMARK    3  A    between atoms: O_3  and  C_21
REMARK    4  A    between atoms: O_3  and  C_22
REMARK    5  A    between atoms: N_4  and  C_13
REMARK    6  A    between atoms: C_8  and  C_12
REMARK    7  A    between atoms: C_14  and  C_15
REMARK    8  A    between atoms: C_19  and  C_21
REMARK                            x       y       z     vdW  Elec       q    Type
REMARK                         _______ _______ _______ _____ _____    ______ ____
ROOT
ATOM      1  O   UNL     1      -2.971   0.096  24.722  0.00  0.00    -0.336 OA
ATOM      5  N   UNL     1      -1.891   1.627  23.494  0.00  0.00    -0.190 NA
ATOM      6  N   UNL     1      -1.668  -0.390  24.552  0.00  0.00    -0.056 NA
ATOM     12  C   UNL     1      -3.018   1.286  24.069  0.00  0.00    +0.245 A 
ATOM     14  C   UNL     1      -1.093   0.568  23.818  0.00  0.00    +0.207 A 
ENDROOT
BRANCH  12   8
ATOM      4  N   UNL     1      -4.970   1.995  25.438  0.00  0.00    -0.294 NA
ATOM      8  C   UNL     1      -4.339   2.025  24.104  0.00  0.00    +0.146 C 
ATOM      9  C   UNL     1      -4.191   3.521  23.773  0.00  0.00    +0.030 C 
ATOM     10  C   UNL     1      -4.823   4.252  24.950  0.00  0.00    +0.017 C 
ATOM     11  C   UNL     1      -5.760   3.223  25.549  0.00  0.00    +0.085 C 
ATOM     13  C   UNL     1      -5.776   0.803  25.666  0.00  0.00    +0.105 C 
ENDBRANCH  12   8
BRANCH  14  15
ATOM      7  N   UNL     1       2.497   1.445  23.347  0.00  0.00    -0.221 NA
ATOM     15  C   UNL     1       0.274   0.496  23.392  0.00  0.00    +0.084 A 
ATOM     16  C   UNL     1       1.200   1.471  23.727  0.00  0.00    +0.226 A 
ATOM     17  C   UNL     1       0.707  -0.573  22.617  0.00  0.00    +0.018 A 
ATOM     18  C   UNL     1       2.035  -0.637  22.208  0.00  0.00    +0.021 A 
ATOM     20  C   UNL     1       2.882   0.389  22.596  0.00  0.00    +0.114 A 
BRANCH  16   2
ATOM      2  O   UNL     1       0.822   2.547  24.488  0.00  0.00    -0.474 OA
BRANCH   2  19
ATOM     19  C   UNL     1       0.228   2.261  25.748  0.00  0.00    +0.258 C 
BRANCH  19  21
ATOM     21  C   UNL     1      -0.799   3.332  26.065  0.00  0.00    +0.200 C 
BRANCH  21   3
ATOM      3  O   UNL     1      -0.728   4.351  25.077  0.00  0.00    -0.380 OA
ATOM     22  C   UNL     1      -1.683   5.375  25.314  0.00  0.00    +0.194 C 
ENDBRANCH  21   3
ENDBRANCH  19  21
ENDBRANCH   2  19
ENDBRANCH  16   2
ENDBRANCH  14  15
TORSDOF 6
ENDMDL
MODEL 9
REMARK VINA RESULT:      -2.4      2.245      4.106
REMARK  Name = 45783413
REMARK  8 active torsions:
REMARK  status: ('A' for Active; 'I' for Inactive)
REMARK    1  A    between atoms: O_2  and  C_16
REMARK    2  A    between atoms: O_2  and  C_19
REMARK    3  A    between atoms: O_3  and  C_21
REMARK    4  A    between atoms: O_3  and  C_22
REMARK    5  A    between atoms: N_4  and  C_13
REMARK    6  A    between atoms: C_8  and  C_12
REMARK    7  A    between atoms: C_14  and  C_15
REMARK    8  A    between atoms: C_19  and  C_21
REMARK                            x       y       z     vdW  Elec       q    Type
REMARK                         _______ _______ _______ _____ _____    ______ ____
ROOT
ATOM      1  O   UNL     1      -1.859   1.068  22.628  0.00  0.00    -0.336 OA
ATOM      5  N   UNL     1      -2.822   0.506  24.570  0.00  0.00    -0.190 NA
ATOM      6  N   UNL     1      -2.830   2.046  22.878  0.00  0.00    -0.056 NA
ATOM     12  C   UNL     1      -1.920   0.200  23.671  0.00  0.00    +0.245 A 
ATOM     14  C   UNL     1      -3.354   1.646  24.040  0.00  0.00    +0.207 A 
ENDROOT
BRANCH  12   8
ATOM      4  N   UNL     1       0.397  -0.596  24.103  0.00  0.00    -0.294 NA
ATOM      8  C   UNL     1      -0.954  -0.966  23.638  0.00  0.00    +0.146 C 
ATOM      9  C   UNL     1      -1.385  -2.119  24.562  0.00  0.00    +0.030 C 
ATOM     10  C   UNL     1      -0.188  -2.368  25.470  0.00  0.00    +0.017 C 
ATOM     11  C   UNL     1       0.979  -1.806  24.684  0.00  0.00    +0.085 C 
ATOM     13  C   UNL     1       1.234  -0.038  23.049  0.00  0.00    +0.105 C 
ENDBRANCH  12   8
BRANCH  14  15
ATOM      7  N   UNL     1      -5.270   4.415  25.635  0.00  0.00    -0.221 NA
ATOM     15  C   UNL     1      -4.410   2.359  24.696  0.00  0.00    +0.084 A 
ATOM     16  C   UNL     1      -4.301   3.703  25.018  0.00  0.00    +0.226 A 
ATOM     17  C   UNL     1      -5.591   1.705  25.031  0.00  0.00    +0.018 A 
ATOM     18  C   UNL     1      -6.611   2.404  25.665  0.00  0.00    +0.021 A 
ATOM     20  C   UNL     1      -6.403   3.746  25.944  0.00  0.00    +0.114 A 
BRANCH  16   2
ATOM      2  O   UNL     1      -3.156   4.393  24.710  0.00  0.00    -0.474 OA
BRANCH   2  19
ATOM     19  C   UNL     1      -2.110   4.356  25.672  0.00  0.00    +0.258 C 
BRANCH  19  21
ATOM     21  C   UNL     1      -0.775   4.400  24.953  0.00  0.00    +0.200 C 
BRANCH  21   3
ATOM      3  O   UNL     1      -0.236   3.087  24.891  0.00  0.00    -0.380 OA
ATOM     22  C   UNL     1      -0.233   2.464  26.168  0.00  0.00    +0.194 C 
ENDBRANCH  21   3
ENDBRANCH  19  21
ENDBRANCH   2  19
ENDBRANCH  16   2
ENDBRANCH  14  15
TORSDOF 6
ENDMDL
MODEL 10
REMARK VINA RESULT:      -2.0      2.121      4.312
REMARK  Name = 45783413
REMARK  8 active torsions:
REMARK  status: ('A' for Active; 'I' for Inactive)
REMARK    1  A    between atoms: O_2  and  C_16
REMARK    2  A    between atoms: O_2  and  C_19
REMARK    3  A    between atoms: O_3  and  C_21
REMARK    4  A    between atoms: O_3  and  C_22
REMARK    5  A    between atoms: N_4  and  C_13
REMARK    6  A    between atoms: C_8  and  C_12
REMARK    7  A    between atoms: C_14  and  C_15
REMARK    8  A    between atoms: C_19  and  C_21
REMARK                            x       y       z     vdW  Elec       q    Type
REMARK                         _______ _______ _______ _____ _____    ______ ____
ROOT
ATOM      1  O   UNL     1      -1.257   1.612  22.710  0.00  0.00    -0.336 OA
ATOM      5  N   UNL     1      -1.767   1.642  24.891  0.00  0.00    -0.190 NA
ATOM      6  N   UNL     1      -2.541   2.166  22.802  0.00  0.00    -0.056 NA
ATOM     12  C   UNL     1      -0.875   1.332  23.983  0.00  0.00    +0.245 A 
ATOM     14  C   UNL     1      -2.771   2.151  24.118  0.00  0.00    +0.207 A 
ENDROOT
BRANCH  12   8
ATOM      4  N   UNL     1       0.563  -0.673  23.663  0.00  0.00    -0.294 NA
ATOM      8  C   UNL     1       0.497   0.717  24.157  0.00  0.00    +0.146 C 
ATOM      9  C   UNL     1       1.588   1.465  23.367  0.00  0.00    +0.030 C 
ATOM     10  C   UNL     1       2.252   0.402  22.503  0.00  0.00    +0.017 C 
ATOM     11  C   UNL     1       1.943  -0.892  23.228  0.00  0.00    +0.085 C 
ATOM     13  C   UNL     1       0.138  -1.655  24.652  0.00  0.00    +0.105 C 
ENDBRANCH  12   8
BRANCH  14  15
ATOM      7  N   UNL     1      -6.310   2.267  25.277  0.00  0.00    -0.221 NA
ATOM     15  C   UNL     1      -3.993   2.633  24.693  0.00  0.00    +0.084 A 
ATOM     16  C   UNL     1      -5.138   1.855  24.745  0.00  0.00    +0.226 A 
ATOM     17  C   UNL     1      -4.056   3.918  25.220  0.00  0.00    +0.018 A 
ATOM     18  C   UNL     1      -5.244   4.378  25.777  0.00  0.00    +0.021 A 
ATOM     20  C   UNL     1      -6.333   3.522  25.780  0.00  0.00    +0.114 A 
BRANCH  16   2
ATOM      2  O   UNL     1      -5.128   0.580  24.237  0.00  0.00    -0.474 OA
BRANCH   2  19
ATOM     19  C   UNL     1      -4.321  -0.372  24.918  0.00  0.00    +0.258 C 
BRANCH  19  21
ATOM     21  C   UNL     1      -3.657  -1.277  23.898  0.00  0.00    +0.200 C 
BRANCH  21   3
ATOM      3  O   UNL     1      -3.949  -2.631  24.219  0.00  0.00    -0.380 OA
ATOM     22  C   UNL     1      -3.222  -3.065  25.360  0.00  0.00    +0.194 C 
ENDBRANCH  21   3
ENDBRANCH  19  21
ENDBRANCH   2  19
ENDBRANCH  16   2
ENDBRANCH  14  15
TORSDOF 6
ENDMDL
