MODEL 1
REMARK VINA RESULT:      -5.0      0.000      0.000
REMARK  Name = 11941648
REMARK  5 active torsions:
REMARK  status: ('A' for Active; 'I' for Inactive)
REMARK    1  A    between atoms: N_5  and  C_12
REMARK    2  A    between atoms: N_6  and  C_13
REMARK    3  A    between atoms: N_7  and  C_19
REMARK    4  A    between atoms: C_18  and  C_22
REMARK    5  A    between atoms: C_19  and  C_23
REMARK                            x       y       z     vdW  Elec       q    Type
REMARK                         _______ _______ _______ _____ _____    ______ ____
ROOT
ATOM      1  O   UNL     1      -2.664  -2.201  23.865  0.00  0.00    -0.370 OA
ATOM      2  O   UNL     1      -1.181  -1.084  26.372  0.00  0.00    -0.370 OA
ATOM     10  C   UNL     1      -2.240  -0.571  25.546  0.00  0.00    +0.171 C 
ATOM     11  C   UNL     1      -1.938  -0.987  24.119  0.00  0.00    +0.171 C 
ATOM     12  C   UNL     1      -3.540  -1.271  25.867  0.00  0.00    +0.130 C 
ATOM     13  C   UNL     1      -0.451  -1.254  24.121  0.00  0.00    +0.131 C 
ATOM     14  C   UNL     1      -3.465  -2.522  25.012  0.00  0.00    +0.185 C 
ATOM     15  C   UNL     1      -0.208  -1.734  25.540  0.00  0.00    +0.185 C 
ENDROOT
BRANCH  12   5
ATOM      5  N   UNL     1      -4.659  -0.450  25.457  0.00  0.00    -0.306 N 
ATOM      8  N   UNL     1      -3.322   1.470  25.267  0.00  0.00    -0.211 NA
ATOM      9  N   UNL     1      -5.682   1.551  24.786  0.00  0.00    -0.223 NA
ATOM     16  C   UNL     1      -4.551   0.897  25.161  0.00  0.00    +0.216 A 
ATOM     18  C   UNL     1      -3.254   2.784  24.970  0.00  0.00    +0.111 A 
ATOM     20  C   UNL     1      -5.541   2.864  24.504  0.00  0.00    +0.116 A 
ATOM     21  C   UNL     1      -4.341   3.539  24.580  0.00  0.00    +0.051 A 
ATOM     28  H   UNL     1      -5.567  -0.877  25.324  0.00  0.00    +0.149 HD
BRANCH  18  22
ATOM      4  O   UNL     1      -0.935   2.475  25.297  0.00  0.00    -0.461 OA
ATOM     22  C   UNL     1      -1.942   3.362  25.092  0.00  0.00    +0.153 A 
ATOM     24  C   UNL     1      -1.458   4.646  25.047  0.00  0.00    +0.051 A 
ATOM     25  C   UNL     1      -0.059   4.544  25.238  0.00  0.00    +0.042 A 
ATOM     27  C   UNL     1       0.209   3.203  25.385  0.00  0.00    +0.196 A 
ENDBRANCH  18  22
ENDBRANCH  12   5
BRANCH  13   6
ATOM      3  O   UNL     1       2.253  -1.077  23.123  0.00  0.00    -0.253 OA
ATOM      6  N   UNL     1       0.296  -0.051  23.839  0.00  0.00    -0.292 N 
ATOM      7  N   UNL     1       2.083   1.236  23.175  0.00  0.00    -0.296 N 
ATOM     17  C   UNL     1       1.604  -0.059  23.358  0.00  0.00    +0.300 C 
ATOM     29  H   UNL     1      -0.174   0.844  23.937  0.00  0.00    +0.151 HD
ATOM     30  H   UNL     1       1.467   2.018  23.378  0.00  0.00    +0.151 HD
BRANCH   7  19
ATOM     19  C   UNL     1       3.412   1.516  22.684  0.00  0.00    +0.132 C 
BRANCH  19  23
ATOM     23  C   UNL     1       4.304   0.365  23.010  0.00  0.00    -0.016 C 
ATOM     26  C   UNL     1       5.414   0.467  23.751  0.00  0.00    +0.005 C 
ENDBRANCH  19  23
ENDBRANCH   7  19
ENDBRANCH  13   6
TORSDOF 5
ENDMDL
MODEL 2
REMARK VINA RESULT:      -1.7      2.197      4.963
REMARK  Name = 11941648
REMARK  5 active torsions:
REMARK  status: ('A' for Active; 'I' for Inactive)
REMARK    1  A    between atoms: N_5  and  C_12
REMARK    2  A    between atoms: N_6  and  C_13
REMARK    3  A    between atoms: N_7  and  C_19
REMARK    4  A    between atoms: C_18  and  C_22
REMARK    5  A    between atoms: C_19  and  C_23
REMARK                            x       y       z     vdW  Elec       q    Type
REMARK                         _______ _______ _______ _____ _____    ______ ____
ROOT
ATOM      1  O   UNL     1      -5.344   2.652  25.870  0.00  0.00    -0.370 OA
ATOM      2  O   UNL     1      -3.565   3.023  23.334  0.00  0.00    -0.370 OA
ATOM     10  C   UNL     1      -3.683   1.973  24.308  0.00  0.00    +0.171 C 
ATOM     11  C   UNL     1      -3.924   2.632  25.653  0.00  0.00    +0.171 C 
ATOM     12  C   UNL     1      -4.937   1.168  24.062  0.00  0.00    +0.130 C 
ATOM     13  C   UNL     1      -3.399   4.037  25.472  0.00  0.00    +0.131 C 
ATOM     14  C   UNL     1      -5.998   1.972  24.788  0.00  0.00    +0.185 C 
ATOM     15  C   UNL     1      -3.652   4.293  23.998  0.00  0.00    +0.185 C 
ENDROOT
BRANCH  12   5
ATOM      5  N   UNL     1      -4.808  -0.145  24.658  0.00  0.00    -0.306 N 
ATOM      8  N   UNL     1      -2.499  -0.225  24.249  0.00  0.00    -0.211 NA
ATOM      9  N   UNL     1      -3.628  -2.054  25.337  0.00  0.00    -0.223 NA
ATOM     16  C   UNL     1      -3.609  -0.828  24.751  0.00  0.00    +0.216 A 
ATOM     18  C   UNL     1      -1.347  -0.920  24.358  0.00  0.00    +0.111 A 
ATOM     20  C   UNL     1      -2.441  -2.693  25.412  0.00  0.00    +0.116 A 
ATOM     21  C   UNL     1      -1.258  -2.170  24.934  0.00  0.00    +0.051 A 
ATOM     28  H   UNL     1      -5.618  -0.580  25.082  0.00  0.00    +0.149 HD
BRANCH  18  22
ATOM      4  O   UNL     1      -0.045   1.043  24.180  0.00  0.00    -0.461 OA
ATOM     22  C   UNL     1      -0.190  -0.256  23.817  0.00  0.00    +0.153 A 
ATOM     24  C   UNL     1       0.834  -0.649  22.991  0.00  0.00    +0.051 A 
ATOM     25  C   UNL     1       1.666   0.485  22.834  0.00  0.00    +0.042 A 
ATOM     27  C   UNL     1       1.089   1.489  23.578  0.00  0.00    +0.196 A 
ENDBRANCH  18  22
ENDBRANCH  12   5
BRANCH  13   6
ATOM      3  O   UNL     1      -1.730   1.924  26.515  0.00  0.00    -0.253 OA
ATOM      6  N   UNL     1      -1.991   4.113  25.783  0.00  0.00    -0.292 N 
ATOM      7  N   UNL     1       0.072   3.385  26.495  0.00  0.00    -0.296 N 
ATOM     17  C   UNL     1      -1.261   3.038  26.286  0.00  0.00    +0.300 C 
ATOM     29  H   UNL     1      -1.493   4.971  25.566  0.00  0.00    +0.151 HD
ATOM     30  H   UNL     1       0.375   4.325  26.259  0.00  0.00    +0.151 HD
BRANCH   7  19
ATOM     19  C   UNL     1       1.050   2.457  27.012  0.00  0.00    +0.132 C 
BRANCH  19  23
ATOM     23  C   UNL     1       1.166   2.643  28.488  0.00  0.00    -0.016 C 
ATOM     26  C   UNL     1       2.328   2.644  29.151  0.00  0.00    +0.005 C 
ENDBRANCH  19  23
ENDBRANCH   7  19
ENDBRANCH  13   6
TORSDOF 5
ENDMDL
MODEL 3
REMARK VINA RESULT:      -1.1      1.478      4.058
REMARK  Name = 11941648
REMARK  5 active torsions:
REMARK  status: ('A' for Active; 'I' for Inactive)
REMARK    1  A    between atoms: N_5  and  C_12
REMARK    2  A    between atoms: N_6  and  C_13
REMARK    3  A    between atoms: N_7  and  C_19
REMARK    4  A    between atoms: C_18  and  C_22
REMARK    5  A    between atoms: C_19  and  C_23
REMARK                            x       y       z     vdW  Elec       q    Type
REMARK                         _______ _______ _______ _____ _____    ______ ____
ROOT
ATOM      1  O   UNL     1      -2.166   3.456  26.843  0.00  0.00    -0.370 OA
ATOM      2  O   UNL     1      -0.958   4.112  24.042  0.00  0.00    -0.370 OA
ATOM     10  C   UNL     1      -2.135   3.403  24.464  0.00  0.00    +0.171 C 
ATOM     11  C   UNL     1      -1.773   2.643  25.725  0.00  0.00    +0.171 C 
ATOM     12  C   UNL     1      -3.200   4.376  24.912  0.00  0.00    +0.130 C 
ATOM     13  C   UNL     1      -0.268   2.524  25.663  0.00  0.00    +0.131 C 
ATOM     14  C   UNL     1      -2.826   4.636  26.360  0.00  0.00    +0.185 C 
ATOM     15  C   UNL     1       0.128   3.788  24.922  0.00  0.00    +0.185 C 
ENDROOT
BRANCH  12   5
ATOM      5  N   UNL     1      -4.504   3.753  24.836  0.00  0.00    -0.306 N 
ATOM      8  N   UNL     1      -3.593   1.591  24.853  0.00  0.00    -0.211 NA
ATOM      9  N   UNL     1      -5.976   1.930  24.737  0.00  0.00    -0.223 NA
ATOM     16  C   UNL     1      -4.696   2.384  24.808  0.00  0.00    +0.216 A 
ATOM     18  C   UNL     1      -3.819   0.260  24.825  0.00  0.00    +0.111 A 
ATOM     20  C   UNL     1      -6.128   0.589  24.712  0.00  0.00    +0.116 A 
ATOM     21  C   UNL     1      -5.076  -0.302  24.754  0.00  0.00    +0.051 A 
ATOM     28  H   UNL     1      -5.334   4.333  24.856  0.00  0.00    +0.149 HD
BRANCH  18  22
ATOM      4  O   UNL     1      -1.974  -0.548  26.059  0.00  0.00    -0.461 OA
ATOM     22  C   UNL     1      -2.632  -0.552  24.873  0.00  0.00    +0.153 A 
ATOM     24  C   UNL     1      -1.992  -1.358  23.963  0.00  0.00    +0.051 A 
ATOM     25  C   UNL     1      -0.864  -1.885  24.635  0.00  0.00    +0.042 A 
ATOM     27  C   UNL     1      -0.897  -1.362  25.907  0.00  0.00    +0.196 A 
ENDBRANCH  18  22
ENDBRANCH  12   5
BRANCH  13   6
ATOM      3  O   UNL     1       1.720   2.356  23.576  0.00  0.00    -0.253 OA
ATOM      6  N   UNL     1       0.134   1.343  24.937  0.00  0.00    -0.292 N 
ATOM      7  N   UNL     1       1.297   0.081  23.405  0.00  0.00    -0.296 N 
ATOM     17  C   UNL     1       1.106   1.353  23.939  0.00  0.00    +0.300 C 
ATOM     29  H   UNL     1      -0.266   0.450  25.207  0.00  0.00    +0.151 HD
ATOM     30  H   UNL     1       0.757  -0.692  23.781  0.00  0.00    +0.151 HD
BRANCH   7  19
ATOM     19  C   UNL     1       2.248  -0.191  22.354  0.00  0.00    +0.132 C 
BRANCH  19  23
ATOM     23  C   UNL     1       3.595  -0.406  22.959  0.00  0.00    -0.016 C 
ATOM     26  C   UNL     1       4.557   0.524  22.989  0.00  0.00    +0.005 C 
ENDBRANCH  19  23
ENDBRANCH   7  19
ENDBRANCH  13   6
TORSDOF 5
ENDMDL
MODEL 4
REMARK VINA RESULT:      -1.1      2.317      4.972
REMARK  Name = 11941648
REMARK  5 active torsions:
REMARK  status: ('A' for Active; 'I' for Inactive)
REMARK    1  A    between atoms: N_5  and  C_12
REMARK    2  A    between atoms: N_6  and  C_13
REMARK    3  A    between atoms: N_7  and  C_19
REMARK    4  A    between atoms: C_18  and  C_22
REMARK    5  A    between atoms: C_19  and  C_23
REMARK                            x       y       z     vdW  Elec       q    Type
REMARK                         _______ _______ _______ _____ _____    ______ ____
ROOT
ATOM      1  O   UNL     1      -0.882   4.503  25.751  0.00  0.00    -0.370 OA
ATOM      2  O   UNL     1      -1.050   2.516  23.352  0.00  0.00    -0.370 OA
ATOM     10  C   UNL     1      -1.997   2.939  24.346  0.00  0.00    +0.171 C 
ATOM     11  C   UNL     1      -1.236   3.114  25.647  0.00  0.00    +0.171 C 
ATOM     12  C   UNL     1      -2.506   4.325  24.028  0.00  0.00    +0.130 C 
ATOM     13  C   UNL     1       0.003   2.268  25.463  0.00  0.00    +0.131 C 
ATOM     14  C   UNL     1      -1.447   5.220  24.644  0.00  0.00    +0.185 C 
ATOM     15  C   UNL     1       0.237   2.354  23.967  0.00  0.00    +0.185 C 
ENDROOT
BRANCH  12   5
ATOM      5  N   UNL     1      -3.783   4.544  24.674  0.00  0.00    -0.306 N 
ATOM      8  N   UNL     1      -4.179   2.244  24.915  0.00  0.00    -0.211 NA
ATOM      9  N   UNL     1      -5.778   3.866  25.704  0.00  0.00    -0.223 NA
ATOM     16  C   UNL     1      -4.604   3.520  25.110  0.00  0.00    +0.216 A 
ATOM     18  C   UNL     1      -5.005   1.271  25.354  0.00  0.00    +0.111 A 
ATOM     20  C   UNL     1      -6.555   2.842  26.118  0.00  0.00    +0.116 A 
ATOM     21  C   UNL     1      -6.217   1.513  25.968  0.00  0.00    +0.051 A 
ATOM     28  H   UNL     1      -4.085   5.490  24.872  0.00  0.00    +0.149 HD
BRANCH  18  22
ATOM      4  O   UNL     1      -4.851  -0.606  23.929  0.00  0.00    -0.461 OA
ATOM     22  C   UNL     1      -4.529  -0.069  25.132  0.00  0.00    +0.153 A 
ATOM     24  C   UNL     1      -3.800  -0.957  25.883  0.00  0.00    +0.051 A 
ATOM     25  C   UNL     1      -3.664  -2.121  25.089  0.00  0.00    +0.042 A 
ATOM     27  C   UNL     1      -4.320  -1.857  23.909  0.00  0.00    +0.196 A 
ENDBRANCH  18  22
ENDBRANCH  12   5
BRANCH  13   6
ATOM      3  O   UNL     1       0.292  -0.116  23.861  0.00  0.00    -0.253 OA
ATOM      6  N   UNL     1      -0.229   0.906  25.880  0.00  0.00    -0.292 N 
ATOM      7  N   UNL     1      -0.355  -1.384  25.693  0.00  0.00    -0.296 N 
ATOM     17  C   UNL     1      -0.065  -0.191  25.036  0.00  0.00    +0.300 C 
ATOM     29  H   UNL     1      -0.463   0.730  26.853  0.00  0.00    +0.151 HD
ATOM     30  H   UNL     1      -0.625  -1.349  26.672  0.00  0.00    +0.151 HD
BRANCH   7  19
ATOM     19  C   UNL     1      -0.267  -2.673  25.049  0.00  0.00    +0.132 C 
BRANCH  19  23
ATOM     23  C   UNL     1      -1.214  -2.709  23.897  0.00  0.00    -0.016 C 
ATOM     26  C   UNL     1      -1.458  -3.802  23.164  0.00  0.00    +0.005 C 
ENDBRANCH  19  23
ENDBRANCH   7  19
ENDBRANCH  13   6
TORSDOF 5
ENDMDL
