MODEL 1
REMARK VINA RESULT:       6.2      0.000      0.000
REMARK  Name = 51136823
REMARK  5 active torsions:
REMARK  status: ('A' for Active; 'I' for Inactive)
REMARK    1  A    between atoms: N_3  and  C_14
REMARK    2  A    between atoms: C_10  and  C_15
REMARK    3  A    between atoms: C_14  and  C_20
REMARK    4  A    between atoms: C_22  and  C_23
REMARK    5  A    between atoms: C_26  and  C_30
REMARK                            x       y       z     vdW  Elec       q    Type
REMARK                         _______ _______ _______ _____ _____    ______ ____
ROOT
ATOM      1  O   UNL     1      -6.026   1.037  24.987  0.00  0.00    -0.336 OA
ATOM      6  N   UNL     1      -3.848   1.193  25.483  0.00  0.00    -0.190 NA
ATOM      7  N   UNL     1      -5.435  -0.142  24.518  0.00  0.00    -0.056 NA
ATOM     15  C   UNL     1      -5.023   1.767  25.541  0.00  0.00    +0.245 A 
ATOM     22  C   UNL     1      -4.150   0.025  24.847  0.00  0.00    +0.202 A 
ENDROOT
BRANCH  22  23
ATOM      2  O   UNL     1       4.548   1.105  21.867  0.00  0.00    -0.276 OA
ATOM      4  N   UNL     1       0.379  -1.127  23.664  0.00  0.00    -0.312 N 
ATOM      5  N   UNL     1       3.061  -0.207  23.080  0.00  0.00    -0.299 N 
ATOM      9  N   UNL     1      -1.185  -2.867  23.986  0.00  0.00    -0.240 NA
ATOM     16  C   UNL     1       1.539  -1.962  23.987  0.00  0.00    +0.125 C 
ATOM     17  C   UNL     1       0.612   0.143  22.971  0.00  0.00    +0.125 C 
ATOM     18  C   UNL     1       2.783  -1.101  24.206  0.00  0.00    +0.126 C 
ATOM     19  C   UNL     1       1.933   0.107  22.206  0.00  0.00    +0.126 C 
ATOM     21  C   UNL     1      -0.913  -1.543  23.973  0.00  0.00    +0.122 A 
ATOM     23  C   UNL     1      -3.145  -0.956  24.554  0.00  0.00    +0.027 A 
ATOM     24  C   UNL     1      -1.848  -0.557  24.246  0.00  0.00    +0.055 A 
ATOM     26  C   UNL     1       4.312   0.352  22.815  0.00  0.00    +0.213 C 
ATOM     27  C   UNL     1      -3.461  -2.310  24.578  0.00  0.00    +0.031 A 
ATOM     29  C   UNL     1      -2.454  -3.217  24.290  0.00  0.00    +0.113 A 
ATOM     30  C   UNL     1       5.421  -0.016  23.770  0.00  0.00    +0.109 C 
ENDBRANCH  22  23
BRANCH  15  10
ATOM      3  N   UNL     1      -4.469   4.184  25.758  0.00  0.00    -0.286 NA
ATOM     10  C   UNL     1      -5.410   3.108  26.130  0.00  0.00    +0.146 C 
ATOM     11  C   UNL     1      -6.783   3.601  25.638  0.00  0.00    +0.030 C 
ATOM     12  C   UNL     1      -6.525   4.984  25.059  0.00  0.00    +0.017 C 
ATOM     13  C   UNL     1      -5.246   5.424  25.743  0.00  0.00    +0.085 C 
BRANCH   3  14
ATOM     14  C   UNL     1      -3.315   4.271  26.644  0.00  0.00    +0.140 C 
BRANCH  14  20
ATOM      8  N   UNL     1      -1.415   2.828  26.169  0.00  0.00    -0.259 NA
ATOM     20  C   UNL     1      -2.026   4.006  25.912  0.00  0.00    +0.055 A 
ATOM     25  C   UNL     1      -1.537   4.957  25.033  0.00  0.00    +0.024 A 
ATOM     28  C   UNL     1      -0.344   4.683  24.374  0.00  0.00    +0.003 A 
ATOM     31  C   UNL     1      -0.258   2.596  25.510  0.00  0.00    +0.111 A 
ATOM     32  C   UNL     1       0.314   3.481  24.611  0.00  0.00    +0.020 A 
ENDBRANCH  14  20
ENDBRANCH   3  14
ENDBRANCH  15  10
TORSDOF 4
ENDMDL
