MODEL 1
REMARK VINA RESULT:      -5.8      0.000      0.000
REMARK  Name = 75536732
REMARK  10 active torsions:
REMARK  status: ('A' for Active; 'I' for Inactive)
REMARK    1  A    between atoms: O_2  and  C_9
REMARK    2  A    between atoms: O_4  and  C_16
REMARK    3  A    between atoms: N_5  and  C_8
REMARK    4  A    between atoms: N_5  and  C_13
REMARK    5  A    between atoms: N_6  and  C_12
REMARK    6  A    between atoms: N_7  and  C_18
REMARK    7  A    between atoms: C_10  and  C_12
REMARK    8  A    between atoms: C_13  and  C_14
REMARK    9  A    between atoms: C_18  and  C_21
REMARK   10  A    between atoms: C_18  and  C_22
REMARK                            x       y       z     vdW  Elec       q    Type
REMARK                         _______ _______ _______ _____ _____    ______ ____
ROOT
ATOM      1  O   UNL     1       0.329   3.252  23.491  0.00  0.00    -0.371 OA
ATOM      8  C   UNL     1      -0.827   3.895  25.464  0.00  0.00    +0.111 C 
ATOM      9  C   UNL     1      -0.520   2.410  25.532  0.00  0.00    +0.164 C 
ATOM     10  C   UNL     1       0.620   2.300  24.528  0.00  0.00    +0.165 C 
ATOM     11  C   UNL     1      -0.669   4.167  23.977  0.00  0.00    +0.181 C 
ENDROOT
BRANCH   9   2
ATOM      2  O   UNL     1      -0.127   1.992  26.825  0.00  0.00    -0.388 OA
ATOM     25  H   UNL     1       0.842   2.049  26.882  0.00  0.00    +0.210 HD
ENDBRANCH   9   2
BRANCH   8   5
ATOM      5  N   UNL     1      -2.146   4.242  25.966  0.00  0.00    -0.305 NA
ATOM     24  H   UNL     1      -2.108   5.168  26.394  0.00  0.00    +0.123 HD
BRANCH   5  13
ATOM     13  C   UNL     1      -3.131   4.259  24.889  0.00  0.00    +0.120 C 
BRANCH  13  14
ATOM     14  C   UNL     1      -4.145   3.158  25.039  0.00  0.00    +0.008 A 
ATOM     16  C   UNL     1      -4.055   1.996  24.271  0.00  0.00    +0.121 A 
ATOM     17  C   UNL     1      -5.184   3.308  25.957  0.00  0.00    +0.008 A 
ATOM     19  C   UNL     1      -5.003   0.985  24.422  0.00  0.00    +0.046 A 
ATOM     20  C   UNL     1      -6.134   2.296  26.107  0.00  0.00    +0.001 A 
ATOM     23  C   UNL     1      -6.043   1.135  25.340  0.00  0.00    +0.004 A 
BRANCH  16   4
ATOM      4  O   UNL     1      -3.047   1.834  23.369  0.00  0.00    -0.506 OA
ATOM     28  H   UNL     1      -2.295   1.401  23.808  0.00  0.00    +0.292 HD
ENDBRANCH  16   4
ENDBRANCH  13  14
ENDBRANCH   5  13
ENDBRANCH   8   5
BRANCH  10  12
ATOM     12  C   UNL     1       0.758   0.913  23.927  0.00  0.00    +0.140 C 
BRANCH  12   6
ATOM      3  O   UNL     1      -0.387  -1.255  25.448  0.00  0.00    -0.253 OA
ATOM      6  N   UNL     1      -0.523   0.300  23.728  0.00  0.00    -0.297 N 
ATOM      7  N   UNL     1      -2.275  -1.154  24.103  0.00  0.00    -0.297 N 
ATOM     15  C   UNL     1      -1.007  -0.751  24.513  0.00  0.00    +0.300 C 
ATOM     26  H   UNL     1      -1.104   0.640  22.968  0.00  0.00    +0.150 HD
ATOM     27  H   UNL     1      -2.737  -0.626  23.369  0.00  0.00    +0.150 HD
BRANCH   7  18
ATOM     18  C   UNL     1      -3.002  -2.223  24.748  0.00  0.00    +0.068 C 
ATOM     21  C   UNL     1      -3.461  -1.797  26.136  0.00  0.00    +0.027 C 
ATOM     22  C   UNL     1      -4.180  -2.656  23.885  0.00  0.00    +0.027 C 
ENDBRANCH   7  18
ENDBRANCH  12   6
ENDBRANCH  10  12
TORSDOF 8
ENDMDL
MODEL 2
REMARK VINA RESULT:      -5.3      2.008      4.507
REMARK  Name = 75536732
REMARK  10 active torsions:
REMARK  status: ('A' for Active; 'I' for Inactive)
REMARK    1  A    between atoms: O_2  and  C_9
REMARK    2  A    between atoms: O_4  and  C_16
REMARK    3  A    between atoms: N_5  and  C_8
REMARK    4  A    between atoms: N_5  and  C_13
REMARK    5  A    between atoms: N_6  and  C_12
REMARK    6  A    between atoms: N_7  and  C_18
REMARK    7  A    between atoms: C_10  and  C_12
REMARK    8  A    between atoms: C_13  and  C_14
REMARK    9  A    between atoms: C_18  and  C_21
REMARK   10  A    between atoms: C_18  and  C_22
REMARK                            x       y       z     vdW  Elec       q    Type
REMARK                         _______ _______ _______ _____ _____    ______ ____
ROOT
ATOM      1  O   UNL     1      -1.810   2.697  23.307  0.00  0.00    -0.371 OA
ATOM      8  C   UNL     1      -4.036   2.450  24.097  0.00  0.00    +0.111 C 
ATOM      9  C   UNL     1      -3.139   2.839  25.258  0.00  0.00    +0.164 C 
ATOM     10  C   UNL     1      -1.956   3.452  24.521  0.00  0.00    +0.165 C 
ATOM     11  C   UNL     1      -3.018   1.948  23.086  0.00  0.00    +0.181 C 
ENDROOT
BRANCH   9   2
ATOM      2  O   UNL     1      -3.752   3.766  26.134  0.00  0.00    -0.388 OA
ATOM     25  H   UNL     1      -4.442   3.300  26.636  0.00  0.00    +0.210 HD
ENDBRANCH   9   2
BRANCH   8   5
ATOM      5  N   UNL     1      -5.034   1.450  24.440  0.00  0.00    -0.305 NA
ATOM     24  H   UNL     1      -5.226   0.876  23.618  0.00  0.00    +0.123 HD
BRANCH   5  13
ATOM     13  C   UNL     1      -4.564   0.588  25.519  0.00  0.00    +0.120 C 
BRANCH  13  14
ATOM     14  C   UNL     1      -3.931  -0.673  24.995  0.00  0.00    +0.008 A 
ATOM     16  C   UNL     1      -2.635  -1.028  25.370  0.00  0.00    +0.121 A 
ATOM     17  C   UNL     1      -4.654  -1.488  24.124  0.00  0.00    +0.008 A 
ATOM     19  C   UNL     1      -2.062  -2.199  24.875  0.00  0.00    +0.046 A 
ATOM     20  C   UNL     1      -4.080  -2.660  23.629  0.00  0.00    +0.001 A 
ATOM     23  C   UNL     1      -2.785  -3.015  24.004  0.00  0.00    +0.004 A 
BRANCH  16   4
ATOM      4  O   UNL     1      -1.914  -0.243  26.218  0.00  0.00    -0.506 OA
ATOM     28  H   UNL     1      -1.869   0.659  25.856  0.00  0.00    +0.292 HD
ENDBRANCH  16   4
ENDBRANCH  13  14
ENDBRANCH   5  13
ENDBRANCH   8   5
BRANCH  10  12
ATOM     12  C   UNL     1      -0.663   3.401  25.316  0.00  0.00    +0.140 C 
BRANCH  12   6
ATOM      3  O   UNL     1       0.158   0.701  24.717  0.00  0.00    -0.253 OA
ATOM      6  N   UNL     1       0.439   2.995  24.493  0.00  0.00    -0.297 N 
ATOM      7  N   UNL     1       1.883   1.551  23.418  0.00  0.00    -0.297 N 
ATOM     15  C   UNL     1       0.772   1.659  24.251  0.00  0.00    +0.300 C 
ATOM     26  H   UNL     1       1.016   3.718  24.074  0.00  0.00    +0.150 HD
ATOM     27  H   UNL     1       2.276   2.400  23.023  0.00  0.00    +0.150 HD
BRANCH   7  18
ATOM     18  C   UNL     1       2.435   0.279  23.012  0.00  0.00    +0.068 C 
ATOM     21  C   UNL     1       1.636  -0.305  21.854  0.00  0.00    +0.027 C 
ATOM     22  C   UNL     1       3.905   0.433  22.646  0.00  0.00    +0.027 C 
ENDBRANCH   7  18
ENDBRANCH  12   6
ENDBRANCH  10  12
TORSDOF 8
ENDMDL
MODEL 3
REMARK VINA RESULT:      -5.0      1.466      4.539
REMARK  Name = 75536732
REMARK  10 active torsions:
REMARK  status: ('A' for Active; 'I' for Inactive)
REMARK    1  A    between atoms: O_2  and  C_9
REMARK    2  A    between atoms: O_4  and  C_16
REMARK    3  A    between atoms: N_5  and  C_8
REMARK    4  A    between atoms: N_5  and  C_13
REMARK    5  A    between atoms: N_6  and  C_12
REMARK    6  A    between atoms: N_7  and  C_18
REMARK    7  A    between atoms: C_10  and  C_12
REMARK    8  A    between atoms: C_13  and  C_14
REMARK    9  A    between atoms: C_18  and  C_21
REMARK   10  A    between atoms: C_18  and  C_22
REMARK                            x       y       z     vdW  Elec       q    Type
REMARK                         _______ _______ _______ _____ _____    ______ ____
ROOT
ATOM      1  O   UNL     1       0.083   3.749  25.894  0.00  0.00    -0.371 OA
ATOM      8  C   UNL     1       0.038   1.672  24.743  0.00  0.00    +0.111 C 
ATOM      9  C   UNL     1      -1.223   2.449  24.411  0.00  0.00    +0.164 C 
ATOM     10  C   UNL     1      -0.793   3.868  24.761  0.00  0.00    +0.165 C 
ATOM     11  C   UNL     1       0.502   2.377  26.007  0.00  0.00    +0.181 C 
ENDROOT
BRANCH   9   2
ATOM      2  O   UNL     1      -1.596   2.331  23.052  0.00  0.00    -0.388 OA
ATOM     25  H   UNL     1      -1.181   3.059  22.558  0.00  0.00    +0.210 HD
ENDBRANCH   9   2
BRANCH   8   5
ATOM      5  N   UNL     1      -0.189   0.249  24.940  0.00  0.00    -0.305 NA
ATOM     24  H   UNL     1       0.631  -0.160  25.389  0.00  0.00    +0.123 HD
BRANCH   5  13
ATOM     13  C   UNL     1      -1.357   0.015  25.783  0.00  0.00    +0.120 C 
BRANCH  13  14
ATOM     14  C   UNL     1      -2.366  -0.873  25.107  0.00  0.00    +0.008 A 
ATOM     16  C   UNL     1      -2.066  -2.206  24.822  0.00  0.00    +0.121 A 
ATOM     17  C   UNL     1      -3.614  -0.351  24.764  0.00  0.00    +0.008 A 
ATOM     19  C   UNL     1      -3.013  -3.016  24.196  0.00  0.00    +0.046 A 
ATOM     20  C   UNL     1      -4.560  -1.161  24.137  0.00  0.00    +0.001 A 
ATOM     23  C   UNL     1      -4.260  -2.493  23.853  0.00  0.00    +0.004 A 
BRANCH  16   4
ATOM      4  O   UNL     1      -0.853  -2.732  25.149  0.00  0.00    -0.506 OA
ATOM     28  H   UNL     1      -0.289  -2.747  24.357  0.00  0.00    +0.292 HD
ENDBRANCH  16   4
ENDBRANCH  13  14
ENDBRANCH   5  13
ENDBRANCH   8   5
BRANCH  10  12
ATOM     12  C   UNL     1      -1.957   4.780  25.106  0.00  0.00    +0.140 C 
BRANCH  12   6
ATOM      3  O   UNL     1      -4.509   3.817  24.166  0.00  0.00    -0.253 OA
ATOM      6  N   UNL     1      -2.953   4.088  25.870  0.00  0.00    -0.297 N 
ATOM      7  N   UNL     1      -4.949   3.009  26.297  0.00  0.00    -0.297 N 
ATOM     15  C   UNL     1      -4.170   3.652  25.337  0.00  0.00    +0.300 C 
ATOM     26  H   UNL     1      -2.770   3.917  26.854  0.00  0.00    +0.150 HD
ATOM     27  H   UNL     1      -4.550   2.855  27.218  0.00  0.00    +0.150 HD
BRANCH   7  18
ATOM     18  C   UNL     1      -6.254   2.463  26.007  0.00  0.00    +0.068 C 
ATOM     21  C   UNL     1      -6.273   1.829  24.622  0.00  0.00    +0.027 C 
ATOM     22  C   UNL     1      -6.656   1.459  27.079  0.00  0.00    +0.027 C 
ENDBRANCH   7  18
ENDBRANCH  12   6
ENDBRANCH  10  12
TORSDOF 8
ENDMDL
MODEL 4
REMARK VINA RESULT:      -4.2      1.308      4.545
REMARK  Name = 75536732
REMARK  10 active torsions:
REMARK  status: ('A' for Active; 'I' for Inactive)
REMARK    1  A    between atoms: O_2  and  C_9
REMARK    2  A    between atoms: O_4  and  C_16
REMARK    3  A    between atoms: N_5  and  C_8
REMARK    4  A    between atoms: N_5  and  C_13
REMARK    5  A    between atoms: N_6  and  C_12
REMARK    6  A    between atoms: N_7  and  C_18
REMARK    7  A    between atoms: C_10  and  C_12
REMARK    8  A    between atoms: C_13  and  C_14
REMARK    9  A    between atoms: C_18  and  C_21
REMARK   10  A    between atoms: C_18  and  C_22
REMARK                            x       y       z     vdW  Elec       q    Type
REMARK                         _______ _______ _______ _____ _____    ______ ____
ROOT
ATOM      1  O   UNL     1      -0.863  -0.422  26.114  0.00  0.00    -0.371 OA
ATOM      8  C   UNL     1      -2.625  -1.844  25.395  0.00  0.00    +0.111 C 
ATOM      9  C   UNL     1      -1.697  -1.576  24.225  0.00  0.00    +0.164 C 
ATOM     10  C   UNL     1      -0.429  -1.144  24.949  0.00  0.00    +0.165 C 
ATOM     11  C   UNL     1      -2.255  -0.710  26.338  0.00  0.00    +0.181 C 
ENDROOT
BRANCH   9   2
ATOM      2  O   UNL     1      -1.482  -2.722  23.424  0.00  0.00    -0.388 OA
ATOM     25  H   UNL     1      -1.535  -2.456  22.490  0.00  0.00    +0.210 HD
ENDBRANCH   9   2
BRANCH   8   5
ATOM      5  N   UNL     1      -4.034  -1.842  25.034  0.00  0.00    -0.305 NA
ATOM     24  H   UNL     1      -4.583  -1.538  25.839  0.00  0.00    +0.123 HD
BRANCH   5  13
ATOM     13  C   UNL     1      -4.290  -0.938  23.918  0.00  0.00    +0.120 C 
BRANCH  13  14
ATOM     14  C   UNL     1      -4.604   0.457  24.387  0.00  0.00    +0.008 A 
ATOM     16  C   UNL     1      -3.903   1.553  23.883  0.00  0.00    +0.121 A 
ATOM     17  C   UNL     1      -5.608   0.648  25.337  0.00  0.00    +0.008 A 
ATOM     19  C   UNL     1      -4.207   2.839  24.329  0.00  0.00    +0.046 A 
ATOM     20  C   UNL     1      -5.911   1.935  25.783  0.00  0.00    +0.001 A 
ATOM     23  C   UNL     1      -5.211   3.030  25.279  0.00  0.00    +0.004 A 
BRANCH  16   4
ATOM      4  O   UNL     1      -2.919   1.385  22.956  0.00  0.00    -0.506 OA
ATOM     28  H   UNL     1      -2.102   1.799  23.282  0.00  0.00    +0.292 HD
ENDBRANCH  16   4
ENDBRANCH  13  14
ENDBRANCH   5  13
ENDBRANCH   8   5
BRANCH  10  12
ATOM     12  C   UNL     1       0.474  -0.262  24.105  0.00  0.00    +0.140 C 
BRANCH  12   6
ATOM      3  O   UNL     1       0.557   2.035  25.849  0.00  0.00    -0.253 OA
ATOM      6  N   UNL     1      -0.122   1.022  23.872  0.00  0.00    -0.297 N 
ATOM      7  N   UNL     1      -0.702   3.215  24.296  0.00  0.00    -0.297 N 
ATOM     15  C   UNL     1      -0.035   2.089  24.772  0.00  0.00    +0.300 C 
ATOM     26  H   UNL     1      -0.646   1.159  23.013  0.00  0.00    +0.150 HD
ATOM     27  H   UNL     1      -1.096   3.185  23.361  0.00  0.00    +0.150 HD
BRANCH   7  18
ATOM     18  C   UNL     1      -0.765   4.456  25.034  0.00  0.00    +0.068 C 
ATOM     21  C   UNL     1      -0.665   5.646  24.088  0.00  0.00    +0.027 C 
ATOM     22  C   UNL     1      -2.041   4.514  25.861  0.00  0.00    +0.027 C 
ENDBRANCH   7  18
ENDBRANCH  12   6
ENDBRANCH  10  12
TORSDOF 8
ENDMDL
MODEL 5
REMARK VINA RESULT:      -4.1      1.738      4.376
REMARK  Name = 75536732
REMARK  10 active torsions:
REMARK  status: ('A' for Active; 'I' for Inactive)
REMARK    1  A    between atoms: O_2  and  C_9
REMARK    2  A    between atoms: O_4  and  C_16
REMARK    3  A    between atoms: N_5  and  C_8
REMARK    4  A    between atoms: N_5  and  C_13
REMARK    5  A    between atoms: N_6  and  C_12
REMARK    6  A    between atoms: N_7  and  C_18
REMARK    7  A    between atoms: C_10  and  C_12
REMARK    8  A    between atoms: C_13  and  C_14
REMARK    9  A    between atoms: C_18  and  C_21
REMARK   10  A    between atoms: C_18  and  C_22
REMARK                            x       y       z     vdW  Elec       q    Type
REMARK                         _______ _______ _______ _____ _____    ______ ____
ROOT
ATOM      1  O   UNL     1      -4.279   3.950  26.381  0.00  0.00    -0.371 OA
ATOM      8  C   UNL     1      -2.295   4.105  25.084  0.00  0.00    +0.111 C 
ATOM      9  C   UNL     1      -3.136   2.952  24.567  0.00  0.00    +0.164 C 
ATOM     10  C   UNL     1      -4.510   3.325  25.107  0.00  0.00    +0.165 C 
ATOM     11  C   UNL     1      -2.890   4.314  26.467  0.00  0.00    +0.181 C 
ENDROOT
BRANCH   9   2
ATOM      2  O   UNL     1      -3.131   2.862  23.155  0.00  0.00    -0.388 OA
ATOM     25  H   UNL     1      -3.326   1.942  22.908  0.00  0.00    +0.210 HD
ENDBRANCH   9   2
BRANCH   8   5
ATOM      5  N   UNL     1      -0.870   3.819  25.118  0.00  0.00    -0.305 NA
ATOM     24  H   UNL     1      -0.383   4.606  25.547  0.00  0.00    +0.123 HD
BRANCH   5  13
ATOM     13  C   UNL     1      -0.595   2.613  25.892  0.00  0.00    +0.120 C 
BRANCH  13  14
ATOM     14  C   UNL     1      -0.212   1.456  25.009  0.00  0.00    +0.008 A 
ATOM     16  C   UNL     1      -0.619   0.158  25.319  0.00  0.00    +0.121 A 
ATOM     17  C   UNL     1       0.559   1.692  23.871  0.00  0.00    +0.008 A 
ATOM     19  C   UNL     1      -0.256  -0.903  24.491  0.00  0.00    +0.046 A 
ATOM     20  C   UNL     1       0.923   0.630  23.042  0.00  0.00    +0.001 A 
ATOM     23  C   UNL     1       0.515  -0.667  23.352  0.00  0.00    +0.004 A 
BRANCH  16   4
ATOM      4  O   UNL     1      -1.372  -0.091  26.427  0.00  0.00    -0.506 OA
ATOM     28  H   UNL     1      -1.871   0.711  26.658  0.00  0.00    +0.292 HD
ENDBRANCH  16   4
ENDBRANCH  13  14
ENDBRANCH   5  13
ENDBRANCH   8   5
BRANCH  10  12
ATOM     12  C   UNL     1      -5.431   2.131  25.281  0.00  0.00    +0.140 C 
BRANCH  12   6
ATOM      3  O   UNL     1      -4.127  -0.312  26.089  0.00  0.00    -0.253 OA
ATOM      6  N   UNL     1      -5.038   1.041  24.436  0.00  0.00    -0.297 N 
ATOM      7  N   UNL     1      -4.137  -1.008  23.875  0.00  0.00    -0.297 N 
ATOM     15  C   UNL     1      -4.407  -0.114  24.908  0.00  0.00    +0.300 C 
ATOM     26  H   UNL     1      -5.215   1.119  23.439  0.00  0.00    +0.150 HD
ATOM     27  H   UNL     1      -4.475  -0.788  22.944  0.00  0.00    +0.150 HD
BRANCH   7  18
ATOM     18  C   UNL     1      -3.489  -2.281  24.093  0.00  0.00    +0.068 C 
ATOM     21  C   UNL     1      -3.318  -2.546  25.584  0.00  0.00    +0.027 C 
ATOM     22  C   UNL     1      -4.278  -3.397  23.421  0.00  0.00    +0.027 C 
ENDBRANCH   7  18
ENDBRANCH  12   6
ENDBRANCH  10  12
TORSDOF 8
ENDMDL
MODEL 6
REMARK VINA RESULT:      -4.0      1.642      4.431
REMARK  Name = 75536732
REMARK  10 active torsions:
REMARK  status: ('A' for Active; 'I' for Inactive)
REMARK    1  A    between atoms: O_2  and  C_9
REMARK    2  A    between atoms: O_4  and  C_16
REMARK    3  A    between atoms: N_5  and  C_8
REMARK    4  A    between atoms: N_5  and  C_13
REMARK    5  A    between atoms: N_6  and  C_12
REMARK    6  A    between atoms: N_7  and  C_18
REMARK    7  A    between atoms: C_10  and  C_12
REMARK    8  A    between atoms: C_13  and  C_14
REMARK    9  A    between atoms: C_18  and  C_21
REMARK   10  A    between atoms: C_18  and  C_22
REMARK                            x       y       z     vdW  Elec       q    Type
REMARK                         _______ _______ _______ _____ _____    ______ ____
ROOT
ATOM      1  O   UNL     1      -0.926   3.150  26.558  0.00  0.00    -0.371 OA
ATOM      8  C   UNL     1       0.415   1.960  25.000  0.00  0.00    +0.111 C 
ATOM      9  C   UNL     1      -0.355   3.042  24.266  0.00  0.00    +0.164 C 
ATOM     10  C   UNL     1      -0.700   3.985  25.410  0.00  0.00    +0.165 C 
ATOM     11  C   UNL     1      -0.383   1.845  26.289  0.00  0.00    +0.181 C 
ENDROOT
BRANCH   9   2
ATOM      2  O   UNL     1       0.419   3.682  23.270  0.00  0.00    -0.388 OA
ATOM     25  H   UNL     1       1.271   3.219  23.200  0.00  0.00    +0.210 HD
ENDBRANCH   9   2
BRANCH   8   5
ATOM      5  N   UNL     1       0.496   0.704  24.271  0.00  0.00    -0.305 NA
ATOM     24  H   UNL     1       0.493  -0.069  24.938  0.00  0.00    +0.123 HD
BRANCH   5  13
ATOM     13  C   UNL     1      -0.634   0.550  23.363  0.00  0.00    +0.120 C 
BRANCH  13  14
ATOM     14  C   UNL     1      -1.697  -0.349  23.937  0.00  0.00    +0.008 A 
ATOM     16  C   UNL     1      -3.045   0.005  23.865  0.00  0.00    +0.121 A 
ATOM     17  C   UNL     1      -1.321  -1.546  24.546  0.00  0.00    +0.008 A 
ATOM     19  C   UNL     1      -4.016  -0.839  24.402  0.00  0.00    +0.046 A 
ATOM     20  C   UNL     1      -2.294  -2.389  25.084  0.00  0.00    +0.001 A 
ATOM     23  C   UNL     1      -3.641  -2.036  25.011  0.00  0.00    +0.004 A 
BRANCH  16   4
ATOM      4  O   UNL     1      -3.429   1.171  23.273  0.00  0.00    -0.506 OA
ATOM     28  H   UNL     1      -3.274   1.107  22.316  0.00  0.00    +0.292 HD
ENDBRANCH  16   4
ENDBRANCH  13  14
ENDBRANCH   5  13
ENDBRANCH   8   5
BRANCH  10  12
ATOM     12  C   UNL     1      -1.931   4.831  25.141  0.00  0.00    +0.140 C 
BRANCH  12   6
ATOM      3  O   UNL     1      -4.260   4.028  26.643  0.00  0.00    -0.253 OA
ATOM      6  N   UNL     1      -3.025   4.028  24.676  0.00  0.00    -0.297 N 
ATOM      7  N   UNL     1      -5.034   2.897  24.771  0.00  0.00    -0.297 N 
ATOM     15  C   UNL     1      -4.122   3.682  25.471  0.00  0.00    +0.300 C 
ATOM     26  H   UNL     1      -2.993   3.680  23.722  0.00  0.00    +0.150 HD
ATOM     27  H   UNL     1      -4.868   2.727  23.784  0.00  0.00    +0.150 HD
BRANCH   7  18
ATOM     18  C   UNL     1      -6.257   2.404  25.361  0.00  0.00    +0.068 C 
ATOM     21  C   UNL     1      -7.031   1.556  24.360  0.00  0.00    +0.027 C 
ATOM     22  C   UNL     1      -5.952   1.619  26.630  0.00  0.00    +0.027 C 
ENDBRANCH   7  18
ENDBRANCH  12   6
ENDBRANCH  10  12
TORSDOF 8
ENDMDL
MODEL 7
REMARK VINA RESULT:      -3.9      1.283      1.778
REMARK  Name = 75536732
REMARK  10 active torsions:
REMARK  status: ('A' for Active; 'I' for Inactive)
REMARK    1  A    between atoms: O_2  and  C_9
REMARK    2  A    between atoms: O_4  and  C_16
REMARK    3  A    between atoms: N_5  and  C_8
REMARK    4  A    between atoms: N_5  and  C_13
REMARK    5  A    between atoms: N_6  and  C_12
REMARK    6  A    between atoms: N_7  and  C_18
REMARK    7  A    between atoms: C_10  and  C_12
REMARK    8  A    between atoms: C_13  and  C_14
REMARK    9  A    between atoms: C_18  and  C_21
REMARK   10  A    between atoms: C_18  and  C_22
REMARK                            x       y       z     vdW  Elec       q    Type
REMARK                         _______ _______ _______ _____ _____    ______ ____
ROOT
ATOM      1  O   UNL     1      -0.131   3.104  23.395  0.00  0.00    -0.371 OA
ATOM      8  C   UNL     1      -0.904   3.679  25.566  0.00  0.00    +0.111 C 
ATOM      9  C   UNL     1      -0.139   2.370  25.643  0.00  0.00    +0.164 C 
ATOM     10  C   UNL     1       0.692   2.440  24.369  0.00  0.00    +0.165 C 
ATOM     11  C   UNL     1      -1.213   3.759  24.080  0.00  0.00    +0.181 C 
ENDROOT
BRANCH   9   2
ATOM      2  O   UNL     1       0.673   2.279  26.798  0.00  0.00    -0.388 OA
ATOM     25  H   UNL     1       0.309   2.875  27.474  0.00  0.00    +0.210 HD
ENDBRANCH   9   2
BRANCH   8   5
ATOM      5  N   UNL     1      -2.098   3.706  26.395  0.00  0.00    -0.305 NA
ATOM     24  H   UNL     1      -1.939   4.330  27.187  0.00  0.00    +0.123 HD
BRANCH   5  13
ATOM     13  C   UNL     1      -3.251   4.185  25.641  0.00  0.00    +0.120 C 
BRANCH  13  14
ATOM     14  C   UNL     1      -4.254   3.089  25.394  0.00  0.00    +0.008 A 
ATOM     16  C   UNL     1      -5.621   3.330  25.536  0.00  0.00    +0.121 A 
ATOM     17  C   UNL     1      -3.803   1.823  25.022  0.00  0.00    +0.008 A 
ATOM     19  C   UNL     1      -6.537   2.304  25.304  0.00  0.00    +0.046 A 
ATOM     20  C   UNL     1      -4.720   0.797  24.791  0.00  0.00    +0.001 A 
ATOM     23  C   UNL     1      -6.086   1.038  24.932  0.00  0.00    +0.004 A 
BRANCH  16   4
ATOM      4  O   UNL     1      -6.078   4.561  25.899  0.00  0.00    -0.506 OA
ATOM     28  H   UNL     1      -5.413   5.229  25.664  0.00  0.00    +0.292 HD
ENDBRANCH  16   4
ENDBRANCH  13  14
ENDBRANCH   5  13
ENDBRANCH   8   5
BRANCH  10  12
ATOM     12  C   UNL     1       1.106   1.076  23.847  0.00  0.00    +0.140 C 
BRANCH  12   6
ATOM      3  O   UNL     1      -1.604   0.271  23.274  0.00  0.00    -0.253 OA
ATOM      6  N   UNL     1       0.364   0.027  24.483  0.00  0.00    -0.297 N 
ATOM      7  N   UNL     1      -1.430  -1.358  24.918  0.00  0.00    -0.297 N 
ATOM     15  C   UNL     1      -0.952  -0.303  24.145  0.00  0.00    +0.300 C 
ATOM     26  H   UNL     1       0.815  -0.496  25.227  0.00  0.00    +0.150 HD
ATOM     27  H   UNL     1      -0.790  -1.816  25.559  0.00  0.00    +0.150 HD
BRANCH   7  18
ATOM     18  C   UNL     1      -2.763  -1.895  24.770  0.00  0.00    +0.068 C 
ATOM     21  C   UNL     1      -2.720  -3.250  24.075  0.00  0.00    +0.027 C 
ATOM     22  C   UNL     1      -3.447  -1.991  26.126  0.00  0.00    +0.027 C 
ENDBRANCH   7  18
ENDBRANCH  12   6
ENDBRANCH  10  12
TORSDOF 8
ENDMDL
MODEL 8
REMARK VINA RESULT:      -3.1      2.388      4.909
REMARK  Name = 75536732
REMARK  10 active torsions:
REMARK  status: ('A' for Active; 'I' for Inactive)
REMARK    1  A    between atoms: O_2  and  C_9
REMARK    2  A    between atoms: O_4  and  C_16
REMARK    3  A    between atoms: N_5  and  C_8
REMARK    4  A    between atoms: N_5  and  C_13
REMARK    5  A    between atoms: N_6  and  C_12
REMARK    6  A    between atoms: N_7  and  C_18
REMARK    7  A    between atoms: C_10  and  C_12
REMARK    8  A    between atoms: C_13  and  C_14
REMARK    9  A    between atoms: C_18  and  C_21
REMARK   10  A    between atoms: C_18  and  C_22
REMARK                            x       y       z     vdW  Elec       q    Type
REMARK                         _______ _______ _______ _____ _____    ______ ____
ROOT
ATOM      1  O   UNL     1      -1.088  -0.604  25.512  0.00  0.00    -0.371 OA
ATOM      8  C   UNL     1      -3.459  -0.466  25.525  0.00  0.00    +0.111 C 
ATOM      9  C   UNL     1      -2.993  -0.846  24.131  0.00  0.00    +0.164 C 
ATOM     10  C   UNL     1      -1.603  -1.393  24.426  0.00  0.00    +0.165 C 
ATOM     11  C   UNL     1      -2.182   0.100  26.125  0.00  0.00    +0.181 C 
ENDROOT
BRANCH   9   2
ATOM      2  O   UNL     1      -3.823  -1.816  23.523  0.00  0.00    -0.388 OA
ATOM     25  H   UNL     1      -4.749  -1.564  23.676  0.00  0.00    +0.210 HD
ENDBRANCH   9   2
BRANCH   8   5
ATOM      5  N   UNL     1      -4.558   0.485  25.533  0.00  0.00    -0.305 NA
ATOM     24  H   UNL     1      -4.552   0.994  26.417  0.00  0.00    +0.123 HD
BRANCH   5  13
ATOM     13  C   UNL     1      -4.436   1.440  24.437  0.00  0.00    +0.120 C 
BRANCH  13  14
ATOM     14  C   UNL     1      -3.505   2.572  24.781  0.00  0.00    +0.008 A 
ATOM     16  C   UNL     1      -2.330   2.774  24.056  0.00  0.00    +0.121 A 
ATOM     17  C   UNL     1      -3.828   3.423  25.838  0.00  0.00    +0.008 A 
ATOM     19  C   UNL     1      -1.479   3.827  24.387  0.00  0.00    +0.046 A 
ATOM     20  C   UNL     1      -2.975   4.477  26.169  0.00  0.00    +0.001 A 
ATOM     23  C   UNL     1      -1.802   4.679  25.444  0.00  0.00    +0.004 A 
BRANCH  16   4
ATOM      4  O   UNL     1      -2.000   1.952  23.021  0.00  0.00    -0.506 OA
ATOM     28  H   UNL     1      -2.543   1.147  23.069  0.00  0.00    +0.292 HD
ENDBRANCH  16   4
ENDBRANCH  13  14
ENDBRANCH   5  13
ENDBRANCH   8   5
BRANCH  10  12
ATOM     12  C   UNL     1      -0.660  -1.308  23.238  0.00  0.00    +0.140 C 
BRANCH  12   6
ATOM      3  O   UNL     1       1.488  -0.451  21.514  0.00  0.00    -0.253 OA
ATOM      6  N   UNL     1       0.642  -0.860  23.638  0.00  0.00    -0.297 N 
ATOM      7  N   UNL     1       2.798  -0.073  23.392  0.00  0.00    -0.297 N 
ATOM     15  C   UNL     1       1.632  -0.459  22.735  0.00  0.00    +0.300 C 
ATOM     26  H   UNL     1       0.862  -0.846  24.629  0.00  0.00    +0.150 HD
ATOM     27  H   UNL     1       2.794  -0.044  24.407  0.00  0.00    +0.150 HD
BRANCH   7  18
ATOM     18  C   UNL     1       3.975   0.385  22.691  0.00  0.00    +0.068 C 
ATOM     21  C   UNL     1       3.920   1.893  22.483  0.00  0.00    +0.027 C 
ATOM     22  C   UNL     1       5.232  -0.023  23.447  0.00  0.00    +0.027 C 
ENDBRANCH   7  18
ENDBRANCH  12   6
ENDBRANCH  10  12
TORSDOF 8
ENDMDL
MODEL 9
REMARK VINA RESULT:      -2.9      2.642      4.985
REMARK  Name = 75536732
REMARK  10 active torsions:
REMARK  status: ('A' for Active; 'I' for Inactive)
REMARK    1  A    between atoms: O_2  and  C_9
REMARK    2  A    between atoms: O_4  and  C_16
REMARK    3  A    between atoms: N_5  and  C_8
REMARK    4  A    between atoms: N_5  and  C_13
REMARK    5  A    between atoms: N_6  and  C_12
REMARK    6  A    between atoms: N_7  and  C_18
REMARK    7  A    between atoms: C_10  and  C_12
REMARK    8  A    between atoms: C_13  and  C_14
REMARK    9  A    between atoms: C_18  and  C_21
REMARK   10  A    between atoms: C_18  and  C_22
REMARK                            x       y       z     vdW  Elec       q    Type
REMARK                         _______ _______ _______ _____ _____    ______ ____
ROOT
ATOM      1  O   UNL     1      -0.231   0.538  25.040  0.00  0.00    -0.371 OA
ATOM      8  C   UNL     1      -2.065  -0.881  25.553  0.00  0.00    +0.111 C 
ATOM      9  C   UNL     1      -1.517  -1.255  24.188  0.00  0.00    +0.164 C 
ATOM     10  C   UNL     1      -0.115  -0.667  24.264  0.00  0.00    +0.165 C 
ATOM     11  C   UNL     1      -1.489   0.514  25.736  0.00  0.00    +0.181 C 
ENDROOT
BRANCH   9   2
ATOM      2  O   UNL     1      -1.492  -2.653  23.974  0.00  0.00    -0.388 OA
ATOM     25  H   UNL     1      -0.564  -2.930  23.880  0.00  0.00    +0.210 HD
ENDBRANCH   9   2
BRANCH   8   5
ATOM      5  N   UNL     1      -3.517  -0.908  25.626  0.00  0.00    -0.305 NA
ATOM     24  H   UNL     1      -3.820  -0.383  26.448  0.00  0.00    +0.123 HD
BRANCH   5  13
ATOM     13  C   UNL     1      -4.114  -0.310  24.437  0.00  0.00    +0.120 C 
BRANCH  13  14
ATOM     14  C   UNL     1      -4.386   1.159  24.624  0.00  0.00    +0.008 A 
ATOM     16  C   UNL     1      -3.732   2.110  23.840  0.00  0.00    +0.121 A 
ATOM     17  C   UNL     1      -5.301   1.565  25.596  0.00  0.00    +0.008 A 
ATOM     19  C   UNL     1      -3.995   3.467  24.026  0.00  0.00    +0.046 A 
ATOM     20  C   UNL     1      -5.563   2.923  25.782  0.00  0.00    +0.001 A 
ATOM     23  C   UNL     1      -4.910   3.873  24.997  0.00  0.00    +0.004 A 
BRANCH  16   4
ATOM      4  O   UNL     1      -2.835   1.731  22.887  0.00  0.00    -0.506 OA
ATOM     28  H   UNL     1      -2.180   1.134  23.288  0.00  0.00    +0.292 HD
ENDBRANCH  16   4
ENDBRANCH  13  14
ENDBRANCH   5  13
ENDBRANCH   8   5
BRANCH  10  12
ATOM     12  C   UNL     1       0.476  -0.346  22.903  0.00  0.00    +0.140 C 
BRANCH  12   6
ATOM      3  O   UNL     1       3.002  -1.572  23.565  0.00  0.00    -0.253 OA
ATOM      6  N   UNL     1       1.747   0.307  23.027  0.00  0.00    -0.297 N 
ATOM      7  N   UNL     1       4.015   0.510  23.406  0.00  0.00    -0.297 N 
ATOM     15  C   UNL     1       2.931  -0.363  23.353  0.00  0.00    +0.300 C 
ATOM     26  H   UNL     1       1.787   1.311  22.884  0.00  0.00    +0.150 HD
ATOM     27  H   UNL     1       3.869   1.479  23.141  0.00  0.00    +0.150 HD
BRANCH   7  18
ATOM     18  C   UNL     1       5.355   0.073  23.722  0.00  0.00    +0.068 C 
ATOM     21  C   UNL     1       6.075  -0.395  22.464  0.00  0.00    +0.027 C 
ATOM     22  C   UNL     1       6.124   1.189  24.416  0.00  0.00    +0.027 C 
ENDBRANCH   7  18
ENDBRANCH  12   6
ENDBRANCH  10  12
TORSDOF 8
ENDMDL
MODEL 10
REMARK VINA RESULT:      -2.6      2.257      3.873
REMARK  Name = 75536732
REMARK  10 active torsions:
REMARK  status: ('A' for Active; 'I' for Inactive)
REMARK    1  A    between atoms: O_2  and  C_9
REMARK    2  A    between atoms: O_4  and  C_16
REMARK    3  A    between atoms: N_5  and  C_8
REMARK    4  A    between atoms: N_5  and  C_13
REMARK    5  A    between atoms: N_6  and  C_12
REMARK    6  A    between atoms: N_7  and  C_18
REMARK    7  A    between atoms: C_10  and  C_12
REMARK    8  A    between atoms: C_13  and  C_14
REMARK    9  A    between atoms: C_18  and  C_21
REMARK   10  A    between atoms: C_18  and  C_22
REMARK                            x       y       z     vdW  Elec       q    Type
REMARK                         _______ _______ _______ _____ _____    ______ ____
ROOT
ATOM      1  O   UNL     1       0.251   3.133  23.547  0.00  0.00    -0.371 OA
ATOM      8  C   UNL     1      -0.804   3.367  25.661  0.00  0.00    +0.111 C 
ATOM      9  C   UNL     1      -0.770   1.897  25.285  0.00  0.00    +0.164 C 
ATOM     10  C   UNL     1       0.349   1.885  24.252  0.00  0.00    +0.165 C 
ATOM     11  C   UNL     1      -0.575   4.028  24.312  0.00  0.00    +0.181 C 
ENDROOT
BRANCH   9   2
ATOM      2  O   UNL     1      -0.480   1.058  26.387  0.00  0.00    -0.388 OA
ATOM     25  H   UNL     1      -0.203   0.191  26.045  0.00  0.00    +0.210 HD
ENDBRANCH   9   2
BRANCH   8   5
ATOM      5  N   UNL     1      -2.048   3.780  26.290  0.00  0.00    -0.305 NA
ATOM     24  H   UNL     1      -1.868   4.585  26.890  0.00  0.00    +0.123 HD
BRANCH   5  13
ATOM     13  C   UNL     1      -3.044   4.150  25.290  0.00  0.00    +0.120 C 
BRANCH  13  14
ATOM     14  C   UNL     1      -4.171   3.154  25.226  0.00  0.00    +0.008 A 
ATOM     16  C   UNL     1      -4.193   2.165  24.242  0.00  0.00    +0.121 A 
ATOM     17  C   UNL     1      -5.202   3.228  26.163  0.00  0.00    +0.008 A 
ATOM     19  C   UNL     1      -5.244   1.250  24.197  0.00  0.00    +0.046 A 
ATOM     20  C   UNL     1      -6.254   2.313  26.117  0.00  0.00    +0.001 A 
ATOM     23  C   UNL     1      -6.275   1.324  25.134  0.00  0.00    +0.004 A 
BRANCH  16   4
ATOM      4  O   UNL     1      -3.195   2.078  23.319  0.00  0.00    -0.506 OA
ATOM     28  H   UNL     1      -2.427   2.585  23.632  0.00  0.00    +0.292 HD
ENDBRANCH  16   4
ENDBRANCH  13  14
ENDBRANCH   5  13
ENDBRANCH   8   5
BRANCH  10  12
ATOM     12  C   UNL     1       0.247   0.731  23.271  0.00  0.00    +0.140 C 
BRANCH  12   6
ATOM      3  O   UNL     1       3.024   1.462  22.998  0.00  0.00    -0.253 OA
ATOM      6  N   UNL     1       1.383  -0.139  23.368  0.00  0.00    -0.297 N 
ATOM      7  N   UNL     1       3.607  -0.754  23.366  0.00  0.00    -0.297 N 
ATOM     15  C   UNL     1       2.703   0.296  23.223  0.00  0.00    +0.300 C 
ATOM     26  H   UNL     1       1.217  -1.126  23.539  0.00  0.00    +0.150 HD
ATOM     27  H   UNL     1       3.249  -1.668  23.626  0.00  0.00    +0.150 HD
BRANCH   7  18
ATOM     18  C   UNL     1       5.037  -0.575  23.261  0.00  0.00    +0.068 C 
ATOM     21  C   UNL     1       5.462   0.730  23.922  0.00  0.00    +0.027 C 
ATOM     22  C   UNL     1       5.764  -1.766  23.871  0.00  0.00    +0.027 C 
ENDBRANCH   7  18
ENDBRANCH  12   6
ENDBRANCH  10  12
TORSDOF 8
ENDMDL
