MODEL 1
REMARK VINA RESULT:       6.1      0.000      0.000
REMARK  Name = 7052041
REMARK  9 active torsions:
REMARK  status: ('A' for Active; 'I' for Inactive)
REMARK    1  A    between atoms: O_5  and  C_27
REMARK    2  A    between atoms: O_5  and  C_37
REMARK    3  A    between atoms: N_9  and  C_24
REMARK    4  A    between atoms: C_11  and  C_18
REMARK    5  A    between atoms: C_16  and  C_22
REMARK    6  A    between atoms: C_23  and  C_25
REMARK    7  A    between atoms: C_24  and  C_26
REMARK    8  A    between atoms: C_24  and  C_27
REMARK    9  A    between atoms: C_26  and  C_30
REMARK                            x       y       z     vdW  Elec       q    Type
REMARK                         _______ _______ _______ _____ _____    ______ ____
ROOT
ATOM      2  O   UNL     1      -4.011   1.128  22.718  0.00  0.00    -0.275 OA
ATOM      4  O   UNL     1       2.836   2.670  23.017  0.00  0.00    -0.270 OA
ATOM      7  N   UNL     1      -1.826   0.669  23.366  0.00  0.00    -0.287 N 
ATOM      8  N   UNL     1       1.042   1.183  23.164  0.00  0.00    -0.294 N 
ATOM     16  C   UNL     1      -0.855  -0.194  24.050  0.00  0.00    +0.179 C 
ATOM     18  C   UNL     1      -3.211   0.475  23.393  0.00  0.00    +0.219 C 
ATOM     19  C   UNL     1      -1.286   1.708  22.486  0.00  0.00    +0.127 C 
ATOM     20  C   UNL     1       0.528  -0.175  23.395  0.00  0.00    +0.140 C 
ATOM     21  C   UNL     1       0.054   2.242  22.967  0.00  0.00    +0.127 C 
ATOM     23  C   UNL     1       2.397   1.531  23.168  0.00  0.00    +0.247 C 
ENDROOT
BRANCH  23  25
ATOM      1  F   UNL     1       7.002   0.013  23.344  0.00  0.00    -0.205 F 
ATOM     25  C   UNL     1       3.391   0.462  23.359  0.00  0.00    +0.040 A 
ATOM     28  C   UNL     1       4.753   0.750  23.259  0.00  0.00    +0.051 A 
ATOM     29  C   UNL     1       2.972  -0.838  23.640  0.00  0.00    +0.013 A 
ATOM     31  C   UNL     1       5.694  -0.263  23.440  0.00  0.00    +0.124 A 
ATOM     32  C   UNL     1       3.913  -1.851  23.822  0.00  0.00    +0.004 A 
ATOM     34  C   UNL     1       5.275  -1.563  23.722  0.00  0.00    +0.038 A 
ENDBRANCH  23  25
BRANCH  18  11
ATOM     11  C   UNL     1      -3.725  -0.603  24.301  0.00  0.00    +0.075 C 
ATOM     12  C   UNL     1      -3.381  -0.269  25.755  0.00  0.00    +0.013 C 
ATOM     13  C   UNL     1      -3.144  -1.956  23.884  0.00  0.00    +0.013 C 
ATOM     14  C   UNL     1      -3.803  -1.387  26.705  0.00  0.00    +0.001 C 
ATOM     15  C   UNL     1      -3.568  -3.070  24.839  0.00  0.00    +0.001 C 
ATOM     17  C   UNL     1      -3.220  -2.733  26.286  0.00  0.00    +0.000 C 
ENDBRANCH  18  11
BRANCH  16  22
ATOM      3  O   UNL     1      -0.583  -0.529  26.401  0.00  0.00    -0.274 OA
ATOM      9  N   UNL     1      -0.894   1.635  25.600  0.00  0.00    -0.301 N 
ATOM     22  C   UNL     1      -0.753   0.263  25.477  0.00  0.00    +0.236 C 
ATOM     39  H   UNL     1      -0.982   2.200  24.761  0.00  0.00    +0.150 HD
BRANCH   9  24
ATOM     24  C   UNL     1      -0.857   2.323  26.869  0.00  0.00    +0.186 C 
BRANCH  24  27
ATOM      6  O   UNL     1       1.519   2.701  26.653  0.00  0.00    -0.249 OA
ATOM     27  C   UNL     1       0.564   2.489  27.392  0.00  0.00    +0.328 C 
BRANCH  27   5
ATOM      5  O   UNL     1       0.633   2.355  28.746  0.00  0.00    -0.467 OA
ATOM     37  C   UNL     1       1.951   2.356  29.304  0.00  0.00    +0.280 C 
ENDBRANCH  27   5
ENDBRANCH  24  27
BRANCH  24  26
ATOM     26  C   UNL     1      -1.609   3.661  26.816  0.00  0.00    +0.070 C 
BRANCH  26  30
ATOM     10  N   UNL     1      -3.894   4.182  23.836  0.00  0.00    -0.263 NA
ATOM     30  C   UNL     1      -2.849   3.655  25.950  0.00  0.00    -0.027 A 
ATOM     33  C   UNL     1      -4.052   3.145  26.427  0.00  0.00    +0.006 A 
ATOM     35  C   UNL     1      -2.824   4.157  24.660  0.00  0.00    +0.114 A 
ATOM     36  C   UNL     1      -5.176   3.153  25.607  0.00  0.00    +0.020 A 
ATOM     38  C   UNL     1      -5.047   3.678  24.332  0.00  0.00    +0.111 A 
ENDBRANCH  26  30
ENDBRANCH  24  26
ENDBRANCH   9  24
ENDBRANCH  16  22
TORSDOF 8
ENDMDL
MODEL 2
REMARK VINA RESULT:       9.4      2.940      7.732
REMARK  Name = 7052041
REMARK  9 active torsions:
REMARK  status: ('A' for Active; 'I' for Inactive)
REMARK    1  A    between atoms: O_5  and  C_27
REMARK    2  A    between atoms: O_5  and  C_37
REMARK    3  A    between atoms: N_9  and  C_24
REMARK    4  A    between atoms: C_11  and  C_18
REMARK    5  A    between atoms: C_16  and  C_22
REMARK    6  A    between atoms: C_23  and  C_25
REMARK    7  A    between atoms: C_24  and  C_26
REMARK    8  A    between atoms: C_24  and  C_27
REMARK    9  A    between atoms: C_26  and  C_30
REMARK                            x       y       z     vdW  Elec       q    Type
REMARK                         _______ _______ _______ _____ _____    ______ ____
ROOT
ATOM      2  O   UNL     1       2.483   3.846  27.082  0.00  0.00    -0.275 OA
ATOM      4  O   UNL     1      -2.745   2.912  22.483  0.00  0.00    -0.270 OA
ATOM      7  N   UNL     1       0.394   3.021  26.483  0.00  0.00    -0.287 N 
ATOM      8  N   UNL     1      -1.881   2.958  24.652  0.00  0.00    -0.294 N 
ATOM     16  C   UNL     1      -0.826   2.276  26.820  0.00  0.00    +0.179 C 
ATOM     18  C   UNL     1       1.514   3.120  27.315  0.00  0.00    +0.219 C 
ATOM     19  C   UNL     1       0.363   3.825  25.259  0.00  0.00    +0.127 C 
ATOM     20  C   UNL     1      -2.069   2.807  26.102  0.00  0.00    +0.140 C 
ATOM     21  C   UNL     1      -0.521   3.216  24.182  0.00  0.00    +0.127 C 
ATOM     23  C   UNL     1      -2.899   2.828  23.701  0.00  0.00    +0.247 C 
ENDROOT
BRANCH  23  25
ATOM      1  F   UNL     1      -6.975   4.333  25.860  0.00  0.00    -0.205 F 
ATOM     25  C   UNL     1      -4.269   2.576  24.176  0.00  0.00    +0.040 A 
ATOM     28  C   UNL     1      -4.987   3.594  24.805  0.00  0.00    +0.051 A 
ATOM     29  C   UNL     1      -4.850   1.321  23.999  0.00  0.00    +0.013 A 
ATOM     31  C   UNL     1      -6.285   3.356  25.256  0.00  0.00    +0.124 A 
ATOM     32  C   UNL     1      -6.148   1.082  24.449  0.00  0.00    +0.004 A 
ATOM     34  C   UNL     1      -6.866   2.100  25.077  0.00  0.00    +0.038 A 
ENDBRANCH  23  25
BRANCH  18  11
ATOM     11  C   UNL     1       1.504   2.287  28.563  0.00  0.00    +0.075 C 
ATOM     12  C   UNL     1       0.581   2.921  29.606  0.00  0.00    +0.013 C 
ATOM     13  C   UNL     1       2.930   2.131  29.096  0.00  0.00    +0.013 C 
ATOM     14  C   UNL     1       0.614   2.156  30.926  0.00  0.00    +0.001 C 
ATOM     15  C   UNL     1       2.956   1.367  30.418  0.00  0.00    +0.001 C 
ATOM     17  C   UNL     1       2.037   2.006  31.455  0.00  0.00    +0.000 C 
ENDBRANCH  18  11
BRANCH  16  22
ATOM      3  O   UNL     1      -0.755  -0.069  27.279  0.00  0.00    -0.274 OA
ATOM      9  N   UNL     1      -0.198   0.678  25.145  0.00  0.00    -0.301 N 
ATOM     22  C   UNL     1      -0.602   0.835  26.460  0.00  0.00    +0.236 C 
ATOM     39  H   UNL     1      -0.151   1.494  24.543  0.00  0.00    +0.150 HD
BRANCH   9  24
ATOM     24  C   UNL     1       0.105  -0.607  24.559  0.00  0.00    +0.186 C 
BRANCH  24  27
ATOM      6  O   UNL     1      -1.036  -2.726  24.776  0.00  0.00    -0.249 OA
ATOM     27  C   UNL     1      -1.110  -1.525  24.533  0.00  0.00    +0.328 C 
BRANCH  27   5
ATOM      5  O   UNL     1      -2.251  -0.861  24.195  0.00  0.00    -0.467 OA
ATOM     37  C   UNL     1      -3.453  -1.637  24.223  0.00  0.00    +0.280 C 
ENDBRANCH  27   5
ENDBRANCH  24  27
BRANCH  24  26
ATOM     26  C   UNL     1       0.748  -0.465  23.171  0.00  0.00    +0.070 C 
BRANCH  26  30
ATOM     10  N   UNL     1       4.440  -1.156  23.690  0.00  0.00    -0.263 NA
ATOM     30  C   UNL     1       2.248  -0.270  23.187  0.00  0.00    -0.027 A 
ATOM     33  C   UNL     1       2.821   0.916  22.741  0.00  0.00    +0.006 A 
ATOM     35  C   UNL     1       3.093  -1.266  23.649  0.00  0.00    +0.114 A 
ATOM     36  C   UNL     1       4.203   1.066  22.768  0.00  0.00    +0.020 A 
ATOM     38  C   UNL     1       4.962   0.010  23.248  0.00  0.00    +0.111 A 
ENDBRANCH  26  30
ENDBRANCH  24  26
ENDBRANCH   9  24
ENDBRANCH  16  22
TORSDOF 8
ENDMDL
