MODEL 1
REMARK VINA RESULT:      -5.9      0.000      0.000
REMARK  Name = 45784003
REMARK  13 active torsions:
REMARK  status: ('A' for Active; 'I' for Inactive)
REMARK    1  A    between atoms: O_1  and  C_21
REMARK    2  A    between atoms: N_3  and  C_9
REMARK    3  A    between atoms: C_6  and  C_11
REMARK    4  A    between atoms: C_7  and  C_9
REMARK    5  A    between atoms: C_10  and  C_18
REMARK    6  A    between atoms: C_11  and  C_19
REMARK    7  A    between atoms: C_11  and  C_20
REMARK    8  A    between atoms: C_12  and  C_21
REMARK    9  A    between atoms: C_14  and  C_22
REMARK   10  A    between atoms: C_18  and  C_23
REMARK   11  A    between atoms: C_24  and  C_25
REMARK   12  A    between atoms: C_25  and  C_26
REMARK   13  A    between atoms: C_26  and  C_27
REMARK                            x       y       z     vdW  Elec       q    Type
REMARK                         _______ _______ _______ _____ _____    ______ ____
ROOT
ATOM      6  C   UNL     1      -2.362  -1.012  24.346  0.00  0.00    +0.000 C 
ATOM      7  C   UNL     1      -2.939  -0.110  25.467  0.00  0.00    +0.029 C 
ATOM      8  C   UNL     1      -0.855  -1.225  24.552  0.00  0.00    +0.012 C 
ATOM     10  C   UNL     1      -0.074   0.102  24.561  0.00  0.00    +0.024 C 
ATOM     13  C   UNL     1      -2.014   1.020  25.851  0.00  0.00    -0.023 C 
ATOM     14  C   UNL     1      -0.737   1.139  25.445  0.00  0.00    -0.073 C 
ATOM     22  C   UNL     1       0.116   2.294  25.890  0.00  0.00    +0.039 C 
ENDROOT
BRANCH   6  11
ATOM     11  C   UNL     1      -3.075  -2.367  24.283  0.00  0.00    -0.013 C 
ATOM     19  C   UNL     1      -4.422  -2.226  23.580  0.00  0.00    +0.007 C 
ATOM     20  C   UNL     1      -3.253  -2.940  25.686  0.00  0.00    +0.007 C 
ENDBRANCH   6  11
BRANCH   7   9
ATOM      9  C   UNL     1      -4.305   0.459  25.072  0.00  0.00    +0.092 C 
BRANCH   9   3
ATOM      3  N   UNL     1      -4.332   1.905  25.248  0.00  0.00    -0.297 NA
ATOM     12  C   UNL     1      -4.258   2.648  23.981  0.00  0.00    +0.082 C 
ATOM     15  C   UNL     1      -5.582   2.346  25.871  0.00  0.00    +0.085 C 
ATOM     16  C   UNL     1      -4.723   4.048  24.385  0.00  0.00    +0.022 C 
ATOM     17  C   UNL     1      -5.584   3.846  25.627  0.00  0.00    +0.017 C 
BRANCH  12  21
ATOM     21  C   UNL     1      -2.862   2.667  23.373  0.00  0.00    +0.174 C 
BRANCH  21   1
ATOM      1  O   UNL     1      -2.886   1.931  22.162  0.00  0.00    -0.393 OA
ATOM     28  H   UNL     1      -2.140   2.245  21.622  0.00  0.00    +0.209 HD
ENDBRANCH  21   1
ENDBRANCH  12  21
ENDBRANCH   9   3
ENDBRANCH   7   9
BRANCH  10  18
ATOM     18  C   UNL     1       0.122   0.637  23.139  0.00  0.00    +0.105 C 
BRANCH  18  23
ATOM      2  O   UNL     1       2.526   0.923  23.433  0.00  0.00    -0.425 OA
ATOM      4  N   UNL     1       1.959  -0.198  21.583  0.00  0.00    -0.112 NA
ATOM      5  N   UNL     1       3.337  -0.111  21.622  0.00  0.00    -0.112 NA
ATOM     23  C   UNL     1       1.528   0.418  22.658  0.00  0.00    +0.218 A 
ATOM     24  C   UNL     1       3.624   0.551  22.719  0.00  0.00    +0.217 A 
BRANCH  24  25
ATOM     25  C   UNL     1       4.932   0.933  23.266  0.00  0.00    +0.097 C 
BRANCH  25  26
ATOM     26  C   UNL     1       5.571  -0.175  24.131  0.00  0.00    +0.006 C 
ATOM     27  C   UNL     1       4.869  -1.515  23.983  0.00  0.00    +0.004 C 
ENDBRANCH  25  26
ENDBRANCH  24  25
ENDBRANCH  18  23
ENDBRANCH  10  18
TORSDOF 9
ENDMDL
MODEL 2
REMARK VINA RESULT:      -4.5      1.602      7.332
REMARK  Name = 45784003
REMARK  13 active torsions:
REMARK  status: ('A' for Active; 'I' for Inactive)
REMARK    1  A    between atoms: O_1  and  C_21
REMARK    2  A    between atoms: N_3  and  C_9
REMARK    3  A    between atoms: C_6  and  C_11
REMARK    4  A    between atoms: C_7  and  C_9
REMARK    5  A    between atoms: C_10  and  C_18
REMARK    6  A    between atoms: C_11  and  C_19
REMARK    7  A    between atoms: C_11  and  C_20
REMARK    8  A    between atoms: C_12  and  C_21
REMARK    9  A    between atoms: C_14  and  C_22
REMARK   10  A    between atoms: C_18  and  C_23
REMARK   11  A    between atoms: C_24  and  C_25
REMARK   12  A    between atoms: C_25  and  C_26
REMARK   13  A    between atoms: C_26  and  C_27
REMARK                            x       y       z     vdW  Elec       q    Type
REMARK                         _______ _______ _______ _____ _____    ______ ____
ROOT
ATOM      6  C   UNL     1      -0.690   0.759  24.594  0.00  0.00    +0.000 C 
ATOM      7  C   UNL     1       0.171  -0.502  24.328  0.00  0.00    +0.029 C 
ATOM      8  C   UNL     1      -1.794   0.448  25.616  0.00  0.00    +0.012 C 
ATOM     10  C   UNL     1      -2.723  -0.686  25.143  0.00  0.00    +0.024 C 
ATOM     13  C   UNL     1      -0.645  -1.771  24.265  0.00  0.00    -0.023 C 
ATOM     14  C   UNL     1      -1.940  -1.869  24.612  0.00  0.00    -0.073 C 
ATOM     22  C   UNL     1      -2.670  -3.181  24.531  0.00  0.00    +0.039 C 
ENDROOT
BRANCH   6  11
ATOM     11  C   UNL     1       0.161   1.934  25.089  0.00  0.00    -0.013 C 
ATOM     19  C   UNL     1      -0.195   2.276  26.532  0.00  0.00    +0.007 C 
ATOM     20  C   UNL     1      -0.029   3.146  24.182  0.00  0.00    +0.007 C 
ENDBRANCH   6  11
BRANCH   7   9
ATOM      9  C   UNL     1       0.985  -0.354  23.038  0.00  0.00    +0.092 C 
BRANCH   9   3
ATOM      3  N   UNL     1       2.296   0.219  23.320  0.00  0.00    -0.297 NA
ATOM     12  C   UNL     1       3.410  -0.650  22.916  0.00  0.00    +0.082 C 
ATOM     15  C   UNL     1       2.504   1.467  22.582  0.00  0.00    +0.085 C 
ATOM     16  C   UNL     1       4.601   0.310  22.911  0.00  0.00    +0.022 C 
ATOM     17  C   UNL     1       4.002   1.696  22.699  0.00  0.00    +0.017 C 
BRANCH  12  21
ATOM     21  C   UNL     1       3.633  -1.824  23.859  0.00  0.00    +0.174 C 
BRANCH  21   1
ATOM      1  O   UNL     1       4.987  -1.818  24.278  0.00  0.00    -0.393 OA
ATOM     28  H   UNL     1       5.404  -2.617  23.914  0.00  0.00    +0.209 HD
ENDBRANCH  21   1
ENDBRANCH  12  21
ENDBRANCH   9   3
ENDBRANCH   7   9
BRANCH  10  18
ATOM     18  C   UNL     1      -3.727  -0.179  24.103  0.00  0.00    +0.105 C 
BRANCH  18  23
ATOM      2  O   UNL     1      -3.736   2.200  24.641  0.00  0.00    -0.425 OA
ATOM      4  N   UNL     1      -5.697   1.179  24.980  0.00  0.00    -0.112 NA
ATOM      5  N   UNL     1      -5.845   2.510  25.322  0.00  0.00    -0.112 NA
ATOM     23  C   UNL     1      -4.452   1.044  24.589  0.00  0.00    +0.218 A 
ATOM     24  C   UNL     1      -4.676   3.067  25.109  0.00  0.00    +0.217 A 
BRANCH  24  25
ATOM     25  C   UNL     1      -4.257   4.461  25.298  0.00  0.00    +0.097 C 
BRANCH  25  26
ATOM     26  C   UNL     1      -2.900   4.591  26.022  0.00  0.00    +0.006 C 
ATOM     27  C   UNL     1      -1.880   5.387  25.223  0.00  0.00    +0.004 C 
ENDBRANCH  25  26
ENDBRANCH  24  25
ENDBRANCH  18  23
ENDBRANCH  10  18
TORSDOF 9
ENDMDL
MODEL 3
REMARK VINA RESULT:      -4.4      1.659      4.118
REMARK  Name = 45784003
REMARK  13 active torsions:
REMARK  status: ('A' for Active; 'I' for Inactive)
REMARK    1  A    between atoms: O_1  and  C_21
REMARK    2  A    between atoms: N_3  and  C_9
REMARK    3  A    between atoms: C_6  and  C_11
REMARK    4  A    between atoms: C_7  and  C_9
REMARK    5  A    between atoms: C_10  and  C_18
REMARK    6  A    between atoms: C_11  and  C_19
REMARK    7  A    between atoms: C_11  and  C_20
REMARK    8  A    between atoms: C_12  and  C_21
REMARK    9  A    between atoms: C_14  and  C_22
REMARK   10  A    between atoms: C_18  and  C_23
REMARK   11  A    between atoms: C_24  and  C_25
REMARK   12  A    between atoms: C_25  and  C_26
REMARK   13  A    between atoms: C_26  and  C_27
REMARK                            x       y       z     vdW  Elec       q    Type
REMARK                         _______ _______ _______ _____ _____    ______ ____
ROOT
ATOM      6  C   UNL     1      -3.261   2.643  25.381  0.00  0.00    +0.000 C 
ATOM      7  C   UNL     1      -3.994   1.802  24.305  0.00  0.00    +0.029 C 
ATOM      8  C   UNL     1      -2.306   3.647  24.717  0.00  0.00    +0.012 C 
ATOM     10  C   UNL     1      -1.251   2.953  23.836  0.00  0.00    +0.024 C 
ATOM     13  C   UNL     1      -3.104   1.417  23.148  0.00  0.00    -0.023 C 
ATOM     14  C   UNL     1      -1.871   1.910  22.930  0.00  0.00    -0.073 C 
ATOM     22  C   UNL     1      -1.060   1.478  21.741  0.00  0.00    +0.039 C 
ENDROOT
BRANCH   6  11
ATOM     11  C   UNL     1      -4.245   3.385  26.291  0.00  0.00    -0.013 C 
ATOM     19  C   UNL     1      -5.471   3.828  25.498  0.00  0.00    +0.007 C 
ATOM     20  C   UNL     1      -3.563   4.582  26.947  0.00  0.00    +0.007 C 
ENDBRANCH   6  11
BRANCH   7   9
ATOM      9  C   UNL     1      -4.613   0.540  24.917  0.00  0.00    +0.092 C 
BRANCH   9   3
ATOM      3  N   UNL     1      -3.833  -0.639  24.562  0.00  0.00    -0.297 NA
ATOM     12  C   UNL     1      -3.173  -1.270  25.714  0.00  0.00    +0.082 C 
ATOM     15  C   UNL     1      -4.681  -1.690  23.992  0.00  0.00    +0.085 C 
ATOM     16  C   UNL     1      -2.807  -2.655  25.176  0.00  0.00    +0.022 C 
ATOM     17  C   UNL     1      -3.793  -2.922  24.044  0.00  0.00    +0.017 C 
BRANCH  12  21
ATOM     21  C   UNL     1      -1.947  -0.508  26.199  0.00  0.00    +0.174 C 
BRANCH  21   1
ATOM      1  O   UNL     1      -0.789  -1.251  25.858  0.00  0.00    -0.393 OA
ATOM     28  H   UNL     1      -1.083  -2.147  25.620  0.00  0.00    +0.209 HD
ENDBRANCH  21   1
ENDBRANCH  12  21
ENDBRANCH   9   3
ENDBRANCH   7   9
BRANCH  10  18
ATOM     18  C   UNL     1      -0.133   2.345  24.691  0.00  0.00    +0.105 C 
BRANCH  18  23
ATOM      2  O   UNL     1       1.871   1.618  23.506  0.00  0.00    -0.425 OA
ATOM      4  N   UNL     1       0.262   0.068  23.619  0.00  0.00    -0.112 NA
ATOM      5  N   UNL     1       1.329  -0.475  22.928  0.00  0.00    -0.112 NA
ATOM     23  C   UNL     1       0.622   1.289  23.937  0.00  0.00    +0.218 A 
ATOM     24  C   UNL     1       2.245   0.465  22.886  0.00  0.00    +0.217 A 
BRANCH  24  25
ATOM     25  C   UNL     1       3.581   0.440  22.280  0.00  0.00    +0.097 C 
BRANCH  25  26
ATOM     26  C   UNL     1       4.708   0.748  23.290  0.00  0.00    +0.006 C 
ATOM     27  C   UNL     1       5.341  -0.508  23.865  0.00  0.00    +0.004 C 
ENDBRANCH  25  26
ENDBRANCH  24  25
ENDBRANCH  18  23
ENDBRANCH  10  18
TORSDOF 9
ENDMDL
MODEL 4
REMARK VINA RESULT:      -3.4      2.836      5.380
REMARK  Name = 45784003
REMARK  13 active torsions:
REMARK  status: ('A' for Active; 'I' for Inactive)
REMARK    1  A    between atoms: O_1  and  C_21
REMARK    2  A    between atoms: N_3  and  C_9
REMARK    3  A    between atoms: C_6  and  C_11
REMARK    4  A    between atoms: C_7  and  C_9
REMARK    5  A    between atoms: C_10  and  C_18
REMARK    6  A    between atoms: C_11  and  C_19
REMARK    7  A    between atoms: C_11  and  C_20
REMARK    8  A    between atoms: C_12  and  C_21
REMARK    9  A    between atoms: C_14  and  C_22
REMARK   10  A    between atoms: C_18  and  C_23
REMARK   11  A    between atoms: C_24  and  C_25
REMARK   12  A    between atoms: C_25  and  C_26
REMARK   13  A    between atoms: C_26  and  C_27
REMARK                            x       y       z     vdW  Elec       q    Type
REMARK                         _______ _______ _______ _____ _____    ______ ____
ROOT
ATOM      6  C   UNL     1      -1.927   3.197  24.951  0.00  0.00    +0.000 C 
ATOM      7  C   UNL     1      -2.312   2.782  23.508  0.00  0.00    +0.029 C 
ATOM      8  C   UNL     1      -0.418   3.017  25.176  0.00  0.00    +0.012 C 
ATOM     10  C   UNL     1       0.036   1.563  24.947  0.00  0.00    +0.024 C 
ATOM     13  C   UNL     1      -1.570   1.558  23.027  0.00  0.00    -0.023 C 
ATOM     14  C   UNL     1      -0.530   0.992  23.663  0.00  0.00    -0.073 C 
ATOM     22  C   UNL     1       0.159  -0.221  23.101  0.00  0.00    +0.039 C 
ENDROOT
BRANCH   6  11
ATOM     11  C   UNL     1      -2.329   4.644  25.253  0.00  0.00    -0.013 C 
ATOM     19  C   UNL     1      -1.154   5.585  25.001  0.00  0.00    +0.007 C 
ATOM     20  C   UNL     1      -2.824   4.769  26.691  0.00  0.00    +0.007 C 
ENDBRANCH   6  11
BRANCH   7   9
ATOM      9  C   UNL     1      -3.821   2.548  23.383  0.00  0.00    +0.092 C 
BRANCH   9   3
ATOM      3  N   UNL     1      -4.408   2.267  24.687  0.00  0.00    -0.297 NA
ATOM     12  C   UNL     1      -5.690   2.953  24.909  0.00  0.00    +0.082 C 
ATOM     15  C   UNL     1      -4.711   0.842  24.843  0.00  0.00    +0.085 C 
ATOM     16  C   UNL     1      -6.278   2.190  26.098  0.00  0.00    +0.022 C 
ATOM     17  C   UNL     1      -5.630   0.810  26.053  0.00  0.00    +0.017 C 
BRANCH  12  21
ATOM     21  C   UNL     1      -5.535   4.438  25.210  0.00  0.00    +0.174 C 
BRANCH  21   1
ATOM      1  O   UNL     1      -6.672   4.872  25.938  0.00  0.00    -0.393 OA
ATOM     28  H   UNL     1      -6.348   5.407  26.682  0.00  0.00    +0.209 HD
ENDBRANCH  21   1
ENDBRANCH  12  21
ENDBRANCH   9   3
ENDBRANCH   7   9
BRANCH  10  18
ATOM     18  C   UNL     1      -0.322   0.679  26.147  0.00  0.00    +0.105 C 
BRANCH  18  23
ATOM      2  O   UNL     1      -2.181  -0.851  25.751  0.00  0.00    -0.425 OA
ATOM      4  N   UNL     1      -0.171  -1.711  25.276  0.00  0.00    -0.112 NA
ATOM      5  N   UNL     1      -1.123  -2.677  25.008  0.00  0.00    -0.112 NA
ATOM     23  C   UNL     1      -0.833  -0.663  25.707  0.00  0.00    +0.218 A 
ATOM     24  C   UNL     1      -2.281  -2.131  25.299  0.00  0.00    +0.217 A 
BRANCH  24  25
ATOM     25  C   UNL     1      -3.632  -2.697  25.204  0.00  0.00    +0.097 C 
BRANCH  25  26
ATOM     26  C   UNL     1      -4.229  -2.599  23.784  0.00  0.00    +0.006 C 
ATOM     27  C   UNL     1      -4.003  -1.238  23.144  0.00  0.00    +0.004 C 
ENDBRANCH  25  26
ENDBRANCH  24  25
ENDBRANCH  18  23
ENDBRANCH  10  18
TORSDOF 9
ENDMDL
MODEL 5
REMARK VINA RESULT:      -3.2      1.532      7.287
REMARK  Name = 45784003
REMARK  13 active torsions:
REMARK  status: ('A' for Active; 'I' for Inactive)
REMARK    1  A    between atoms: O_1  and  C_21
REMARK    2  A    between atoms: N_3  and  C_9
REMARK    3  A    between atoms: C_6  and  C_11
REMARK    4  A    between atoms: C_7  and  C_9
REMARK    5  A    between atoms: C_10  and  C_18
REMARK    6  A    between atoms: C_11  and  C_19
REMARK    7  A    between atoms: C_11  and  C_20
REMARK    8  A    between atoms: C_12  and  C_21
REMARK    9  A    between atoms: C_14  and  C_22
REMARK   10  A    between atoms: C_18  and  C_23
REMARK   11  A    between atoms: C_24  and  C_25
REMARK   12  A    between atoms: C_25  and  C_26
REMARK   13  A    between atoms: C_26  and  C_27
REMARK                            x       y       z     vdW  Elec       q    Type
REMARK                         _______ _______ _______ _____ _____    ______ ____
ROOT
ATOM      6  C   UNL     1      -0.455   0.871  24.375  0.00  0.00    +0.000 C 
ATOM      7  C   UNL     1       0.443  -0.349  24.045  0.00  0.00    +0.029 C 
ATOM      8  C   UNL     1      -1.465   0.510  25.475  0.00  0.00    +0.012 C 
ATOM     10  C   UNL     1      -2.371  -0.668  25.071  0.00  0.00    +0.024 C 
ATOM     13  C   UNL     1      -0.313  -1.656  24.041  0.00  0.00    -0.023 C 
ATOM     14  C   UNL     1      -1.574  -1.814  24.482  0.00  0.00    -0.073 C 
ATOM     22  C   UNL     1      -2.244  -3.159  24.454  0.00  0.00    +0.039 C 
ENDROOT
BRANCH   6  11
ATOM     11  C   UNL     1       0.372   2.086  24.807  0.00  0.00    -0.013 C 
ATOM     19  C   UNL     1       0.126   2.399  26.280  0.00  0.00    +0.007 C 
ATOM     20  C   UNL     1       0.041   3.292  23.934  0.00  0.00    +0.007 C 
ENDBRANCH   6  11
BRANCH   7   9
ATOM      9  C   UNL     1       1.153  -0.165  22.699  0.00  0.00    +0.092 C 
BRANCH   9   3
ATOM      3  N   UNL     1       2.563  -0.517  22.809  0.00  0.00    -0.297 NA
ATOM     12  C   UNL     1       3.390   0.560  23.372  0.00  0.00    +0.082 C 
ATOM     15  C   UNL     1       2.763  -1.656  23.708  0.00  0.00    +0.085 C 
ATOM     16  C   UNL     1       4.672  -0.174  23.771  0.00  0.00    +0.022 C 
ATOM     17  C   UNL     1       4.257  -1.626  23.983  0.00  0.00    +0.017 C 
BRANCH  12  21
ATOM     21  C   UNL     1       3.666   1.688  22.387  0.00  0.00    +0.174 C 
BRANCH  21   1
ATOM      1  O   UNL     1       3.841   1.129  21.096  0.00  0.00    -0.393 OA
ATOM     28  H   UNL     1       4.066   0.191  21.219  0.00  0.00    +0.209 HD
ENDBRANCH  21   1
ENDBRANCH  12  21
ENDBRANCH   9   3
ENDBRANCH   7   9
BRANCH  10  18
ATOM     18  C   UNL     1      -3.472  -0.212  24.107  0.00  0.00    +0.105 C 
BRANCH  18  23
ATOM      2  O   UNL     1      -3.574   2.160  24.665  0.00  0.00    -0.425 OA
ATOM      4  N   UNL     1      -5.447   1.029  25.132  0.00  0.00    -0.112 NA
ATOM      5  N   UNL     1      -5.644   2.348  25.495  0.00  0.00    -0.112 NA
ATOM     23  C   UNL     1      -4.227   0.966  24.653  0.00  0.00    +0.218 A 
ATOM     24  C   UNL     1      -4.525   2.971  25.205  0.00  0.00    +0.217 A 
BRANCH  24  25
ATOM     25  C   UNL     1      -4.171   4.386  25.376  0.00  0.00    +0.097 C 
BRANCH  25  26
ATOM     26  C   UNL     1      -2.802   4.587  26.061  0.00  0.00    +0.006 C 
ATOM     27  C   UNL     1      -1.836   5.400  25.214  0.00  0.00    +0.004 C 
ENDBRANCH  25  26
ENDBRANCH  24  25
ENDBRANCH  18  23
ENDBRANCH  10  18
TORSDOF 9
ENDMDL
MODEL 6
REMARK VINA RESULT:      -3.1      1.622      2.134
REMARK  Name = 45784003
REMARK  13 active torsions:
REMARK  status: ('A' for Active; 'I' for Inactive)
REMARK    1  A    between atoms: O_1  and  C_21
REMARK    2  A    between atoms: N_3  and  C_9
REMARK    3  A    between atoms: C_6  and  C_11
REMARK    4  A    between atoms: C_7  and  C_9
REMARK    5  A    between atoms: C_10  and  C_18
REMARK    6  A    between atoms: C_11  and  C_19
REMARK    7  A    between atoms: C_11  and  C_20
REMARK    8  A    between atoms: C_12  and  C_21
REMARK    9  A    between atoms: C_14  and  C_22
REMARK   10  A    between atoms: C_18  and  C_23
REMARK   11  A    between atoms: C_24  and  C_25
REMARK   12  A    between atoms: C_25  and  C_26
REMARK   13  A    between atoms: C_26  and  C_27
REMARK                            x       y       z     vdW  Elec       q    Type
REMARK                         _______ _______ _______ _____ _____    ______ ____
ROOT
ATOM      6  C   UNL     1      -2.625  -0.765  24.314  0.00  0.00    +0.000 C 
ATOM      7  C   UNL     1      -3.041   0.694  24.633  0.00  0.00    +0.029 C 
ATOM      8  C   UNL     1      -1.262  -1.084  24.947  0.00  0.00    +0.012 C 
ATOM     10  C   UNL     1      -0.153  -0.140  24.448  0.00  0.00    +0.024 C 
ATOM     13  C   UNL     1      -1.885   1.663  24.577  0.00  0.00    -0.023 C 
ATOM     14  C   UNL     1      -0.591   1.310  24.480  0.00  0.00    -0.073 C 
ATOM     22  C   UNL     1       0.497   2.347  24.445  0.00  0.00    +0.039 C 
ENDROOT
BRANCH   6  11
ATOM     11  C   UNL     1      -3.672  -1.773  24.799  0.00  0.00    -0.013 C 
ATOM     19  C   UNL     1      -3.222  -2.420  26.105  0.00  0.00    +0.007 C 
ATOM     20  C   UNL     1      -3.925  -2.832  23.730  0.00  0.00    +0.007 C 
ENDBRANCH   6  11
BRANCH   7   9
ATOM      9  C   UNL     1      -4.154   1.170  23.693  0.00  0.00    +0.092 C 
BRANCH   9   3
ATOM      3  N   UNL     1      -4.703   2.441  24.148  0.00  0.00    -0.297 NA
ATOM     12  C   UNL     1      -5.080   2.438  25.569  0.00  0.00    +0.082 C 
ATOM     15  C   UNL     1      -3.726   3.524  24.019  0.00  0.00    +0.085 C 
ATOM     16  C   UNL     1      -5.207   3.929  25.887  0.00  0.00    +0.022 C 
ATOM     17  C   UNL     1      -4.323   4.636  24.865  0.00  0.00    +0.017 C 
BRANCH  12  21
ATOM     21  C   UNL     1      -6.375   1.687  25.849  0.00  0.00    +0.174 C 
BRANCH  21   1
ATOM      1  O   UNL     1      -6.746   1.913  27.198  0.00  0.00    -0.393 OA
ATOM     28  H   UNL     1      -6.872   1.041  27.610  0.00  0.00    +0.209 HD
ENDBRANCH  21   1
ENDBRANCH  12  21
ENDBRANCH   9   3
ENDBRANCH   7   9
BRANCH  10  18
ATOM     18  C   UNL     1       0.322  -0.539  23.046  0.00  0.00    +0.105 C 
BRANCH  18  23
ATOM      2  O   UNL     1       2.631  -0.986  23.693  0.00  0.00    -0.425 OA
ATOM      4  N   UNL     1       2.417   0.504  22.038  0.00  0.00    -0.112 NA
ATOM      5  N   UNL     1       3.765   0.348  22.299  0.00  0.00    -0.112 NA
ATOM     23  C   UNL     1       1.794  -0.293  22.874  0.00  0.00    +0.218 A 
ATOM     24  C   UNL     1       3.843  -0.531  23.272  0.00  0.00    +0.217 A 
BRANCH  24  25
ATOM     25  C   UNL     1       5.028  -1.076  23.946  0.00  0.00    +0.097 C 
BRANCH  25  26
ATOM     26  C   UNL     1       6.222  -0.097  23.954  0.00  0.00    +0.006 C 
ATOM     27  C   UNL     1       7.284  -0.456  22.928  0.00  0.00    +0.004 C 
ENDBRANCH  25  26
ENDBRANCH  24  25
ENDBRANCH  18  23
ENDBRANCH  10  18
TORSDOF 9
ENDMDL
MODEL 7
REMARK VINA RESULT:      -2.2      2.155      6.195
REMARK  Name = 45784003
REMARK  13 active torsions:
REMARK  status: ('A' for Active; 'I' for Inactive)
REMARK    1  A    between atoms: O_1  and  C_21
REMARK    2  A    between atoms: N_3  and  C_9
REMARK    3  A    between atoms: C_6  and  C_11
REMARK    4  A    between atoms: C_7  and  C_9
REMARK    5  A    between atoms: C_10  and  C_18
REMARK    6  A    between atoms: C_11  and  C_19
REMARK    7  A    between atoms: C_11  and  C_20
REMARK    8  A    between atoms: C_12  and  C_21
REMARK    9  A    between atoms: C_14  and  C_22
REMARK   10  A    between atoms: C_18  and  C_23
REMARK   11  A    between atoms: C_24  and  C_25
REMARK   12  A    between atoms: C_25  and  C_26
REMARK   13  A    between atoms: C_26  and  C_27
REMARK                            x       y       z     vdW  Elec       q    Type
REMARK                         _______ _______ _______ _____ _____    ______ ____
ROOT
ATOM      6  C   UNL     1      -3.386  -1.015  24.766  0.00  0.00    +0.000 C 
ATOM      7  C   UNL     1      -2.322  -0.368  23.843  0.00  0.00    +0.029 C 
ATOM      8  C   UNL     1      -4.800  -0.697  24.258  0.00  0.00    +0.012 C 
ATOM     10  C   UNL     1      -5.069   0.818  24.191  0.00  0.00    +0.024 C 
ATOM     13  C   UNL     1      -2.712   1.012  23.368  0.00  0.00    -0.023 C 
ATOM     14  C   UNL     1      -3.929   1.563  23.527  0.00  0.00    -0.073 C 
ATOM     22  C   UNL     1      -4.232   2.941  23.008  0.00  0.00    +0.039 C 
ENDROOT
BRANCH   6  11
ATOM     11  C   UNL     1      -3.200  -2.532  24.870  0.00  0.00    -0.013 C 
ATOM     19  C   UNL     1      -1.756  -2.913  24.559  0.00  0.00    +0.007 C 
ATOM     20  C   UNL     1      -4.165  -3.252  23.932  0.00  0.00    +0.007 C 
ENDBRANCH   6  11
BRANCH   7   9
ATOM      9  C   UNL     1      -0.956  -0.303  24.533  0.00  0.00    +0.092 C 
BRANCH   9   3
ATOM      3  N   UNL     1       0.031   0.329  23.667  0.00  0.00    -0.297 NA
ATOM     12  C   UNL     1       1.058   1.079  24.403  0.00  0.00    +0.082 C 
ATOM     15  C   UNL     1       0.774  -0.664  22.888  0.00  0.00    +0.085 C 
ATOM     16  C   UNL     1       2.157   1.264  23.354  0.00  0.00    +0.022 C 
ATOM     17  C   UNL     1       1.962   0.124  22.361  0.00  0.00    +0.017 C 
BRANCH  12  21
ATOM     21  C   UNL     1       0.561   2.413  24.944  0.00  0.00    +0.174 C 
BRANCH  21   1
ATOM      1  O   UNL     1       0.657   2.393  26.358  0.00  0.00    -0.393 OA
ATOM     28  H   UNL     1      -0.248   2.327  26.705  0.00  0.00    +0.209 HD
ENDBRANCH  21   1
ENDBRANCH  12  21
ENDBRANCH   9   3
ENDBRANCH   7   9
BRANCH  10  18
ATOM     18  C   UNL     1      -5.361   1.388  25.583  0.00  0.00    +0.105 C 
BRANCH  18  23
ATOM      2  O   UNL     1      -3.422   2.844  25.849  0.00  0.00    -0.425 OA
ATOM      4  N   UNL     1      -5.380   3.926  25.813  0.00  0.00    -0.112 NA
ATOM      5  N   UNL     1      -4.378   4.864  25.967  0.00  0.00    -0.112 NA
ATOM     23  C   UNL     1      -4.777   2.762  25.748  0.00  0.00    +0.218 A 
ATOM     24  C   UNL     1      -3.252   4.188  25.983  0.00  0.00    +0.217 A 
BRANCH  24  25
ATOM     25  C   UNL     1      -1.873   4.672  26.119  0.00  0.00    +0.097 C 
BRANCH  25  26
ATOM     26  C   UNL     1      -1.441   5.598  24.961  0.00  0.00    +0.006 C 
ATOM     27  C   UNL     1      -0.536   4.901  23.958  0.00  0.00    +0.004 C 
ENDBRANCH  25  26
ENDBRANCH  24  25
ENDBRANCH  18  23
ENDBRANCH  10  18
TORSDOF 9
ENDMDL
MODEL 8
REMARK VINA RESULT:      -2.1      2.688      4.975
REMARK  Name = 45784003
REMARK  13 active torsions:
REMARK  status: ('A' for Active; 'I' for Inactive)
REMARK    1  A    between atoms: O_1  and  C_21
REMARK    2  A    between atoms: N_3  and  C_9
REMARK    3  A    between atoms: C_6  and  C_11
REMARK    4  A    between atoms: C_7  and  C_9
REMARK    5  A    between atoms: C_10  and  C_18
REMARK    6  A    between atoms: C_11  and  C_19
REMARK    7  A    between atoms: C_11  and  C_20
REMARK    8  A    between atoms: C_12  and  C_21
REMARK    9  A    between atoms: C_14  and  C_22
REMARK   10  A    between atoms: C_18  and  C_23
REMARK   11  A    between atoms: C_24  and  C_25
REMARK   12  A    between atoms: C_25  and  C_26
REMARK   13  A    between atoms: C_26  and  C_27
REMARK                            x       y       z     vdW  Elec       q    Type
REMARK                         _______ _______ _______ _____ _____    ______ ____
ROOT
ATOM      6  C   UNL     1      -3.442   1.902  23.965  0.00  0.00    +0.000 C 
ATOM      7  C   UNL     1      -4.109   3.216  24.445  0.00  0.00    +0.029 C 
ATOM      8  C   UNL     1      -4.491   0.790  23.818  0.00  0.00    +0.012 C 
ATOM     10  C   UNL     1      -5.231   0.508  25.139  0.00  0.00    +0.024 C 
ATOM     13  C   UNL     1      -5.187   2.988  25.478  0.00  0.00    -0.023 C 
ATOM     14  C   UNL     1      -5.690   1.786  25.811  0.00  0.00    -0.073 C 
ATOM     22  C   UNL     1      -6.773   1.656  26.844  0.00  0.00    +0.039 C 
ENDROOT
BRANCH   6  11
ATOM     11  C   UNL     1      -2.698   2.093  22.639  0.00  0.00    -0.013 C 
ATOM     19  C   UNL     1      -3.467   3.047  21.731  0.00  0.00    +0.007 C 
ATOM     20  C   UNL     1      -2.481   0.748  21.953  0.00  0.00    +0.007 C 
ENDBRANCH   6  11
BRANCH   7   9
ATOM      9  C   UNL     1      -3.069   4.196  24.998  0.00  0.00    +0.092 C 
BRANCH   9   3
ATOM      3  N   UNL     1      -1.776   3.541  25.152  0.00  0.00    -0.297 NA
ATOM     12  C   UNL     1      -0.646   4.481  25.172  0.00  0.00    +0.082 C 
ATOM     15  C   UNL     1      -1.689   2.819  26.423  0.00  0.00    +0.085 C 
ATOM     16  C   UNL     1       0.487   3.633  25.753  0.00  0.00    +0.022 C 
ATOM     17  C   UNL     1      -0.201   2.542  26.567  0.00  0.00    +0.017 C 
BRANCH  12  21
ATOM     21  C   UNL     1      -0.293   5.031  23.797  0.00  0.00    +0.174 C 
BRANCH  21   1
ATOM      1  O   UNL     1       0.284   3.990  23.027  0.00  0.00    -0.393 OA
ATOM     28  H   UNL     1       0.029   3.150  23.445  0.00  0.00    +0.209 HD
ENDBRANCH  21   1
ENDBRANCH  12  21
ENDBRANCH   9   3
ENDBRANCH   7   9
BRANCH  10  18
ATOM     18  C   UNL     1      -4.368  -0.332  26.086  0.00  0.00    +0.105 C 
BRANCH  18  23
ATOM      2  O   UNL     1      -2.064  -0.601  25.332  0.00  0.00    -0.425 OA
ATOM      4  N   UNL     1      -3.441  -2.232  24.663  0.00  0.00    -0.112 NA
ATOM      5  N   UNL     1      -2.181  -2.510  24.170  0.00  0.00    -0.112 NA
ATOM     23  C   UNL     1      -3.326  -1.111  25.335  0.00  0.00    +0.218 A 
ATOM     24  C   UNL     1      -1.409  -1.532  24.585  0.00  0.00    +0.217 A 
BRANCH  24  25
ATOM     25  C   UNL     1       0.025  -1.313  24.360  0.00  0.00    +0.097 C 
BRANCH  25  26
ATOM     26  C   UNL     1       0.340   0.084  23.783  0.00  0.00    +0.006 C 
ATOM     27  C   UNL     1       1.364   0.039  22.661  0.00  0.00    +0.004 C 
ENDBRANCH  25  26
ENDBRANCH  24  25
ENDBRANCH  18  23
ENDBRANCH  10  18
TORSDOF 9
ENDMDL
MODEL 9
REMARK VINA RESULT:      -2.0      2.299      6.320
REMARK  Name = 45784003
REMARK  13 active torsions:
REMARK  status: ('A' for Active; 'I' for Inactive)
REMARK    1  A    between atoms: O_1  and  C_21
REMARK    2  A    between atoms: N_3  and  C_9
REMARK    3  A    between atoms: C_6  and  C_11
REMARK    4  A    between atoms: C_7  and  C_9
REMARK    5  A    between atoms: C_10  and  C_18
REMARK    6  A    between atoms: C_11  and  C_19
REMARK    7  A    between atoms: C_11  and  C_20
REMARK    8  A    between atoms: C_12  and  C_21
REMARK    9  A    between atoms: C_14  and  C_22
REMARK   10  A    between atoms: C_18  and  C_23
REMARK   11  A    between atoms: C_24  and  C_25
REMARK   12  A    between atoms: C_25  and  C_26
REMARK   13  A    between atoms: C_26  and  C_27
REMARK                            x       y       z     vdW  Elec       q    Type
REMARK                         _______ _______ _______ _____ _____    ______ ____
ROOT
ATOM      6  C   UNL     1      -3.419  -0.309  25.034  0.00  0.00    +0.000 C 
ATOM      7  C   UNL     1      -2.284   0.483  24.338  0.00  0.00    +0.029 C 
ATOM      8  C   UNL     1      -4.680  -0.321  24.157  0.00  0.00    +0.012 C 
ATOM     10  C   UNL     1      -5.191   1.099  23.851  0.00  0.00    +0.024 C 
ATOM     13  C   UNL     1      -2.776   1.720  23.625  0.00  0.00    -0.023 C 
ATOM     14  C   UNL     1      -4.070   2.018  23.411  0.00  0.00    -0.073 C 
ATOM     22  C   UNL     1      -4.468   3.269  22.678  0.00  0.00    +0.039 C 
ENDROOT
BRANCH   6  11
ATOM     11  C   UNL     1      -2.996  -1.746  25.356  0.00  0.00    -0.013 C 
ATOM     19  C   UNL     1      -3.781  -2.735  24.500  0.00  0.00    +0.007 C 
ATOM     20  C   UNL     1      -3.194  -2.038  26.840  0.00  0.00    +0.007 C 
ENDBRANCH   6  11
BRANCH   7   9
ATOM      9  C   UNL     1      -1.187   0.870  25.335  0.00  0.00    +0.092 C 
BRANCH   9   3
ATOM      3  N   UNL     1       0.134   0.605  24.778  0.00  0.00    -0.297 NA
ATOM     12  C   UNL     1       0.130  -0.437  23.741  0.00  0.00    +0.082 C 
ATOM     15  C   UNL     1       0.685   1.791  24.118  0.00  0.00    +0.085 C 
ATOM     16  C   UNL     1       1.477  -0.227  23.047  0.00  0.00    +0.022 C 
ATOM     17  C   UNL     1       1.839   1.233  23.303  0.00  0.00    +0.017 C 
BRANCH  12  21
ATOM     21  C   UNL     1      -0.004  -1.847  24.302  0.00  0.00    +0.174 C 
BRANCH  21   1
ATOM      1  O   UNL     1       0.342  -1.822  25.676  0.00  0.00    -0.393 OA
ATOM     28  H   UNL     1      -0.287  -2.400  26.140  0.00  0.00    +0.209 HD
ENDBRANCH  21   1
ENDBRANCH  12  21
ENDBRANCH   9   3
ENDBRANCH   7   9
BRANCH  10  18
ATOM     18  C   UNL     1      -5.944   1.685  25.051  0.00  0.00    +0.105 C 
BRANCH  18  23
ATOM      2  O   UNL     1      -3.985   2.884  25.872  0.00  0.00    -0.425 OA
ATOM      4  N   UNL     1      -5.823   4.147  25.693  0.00  0.00    -0.112 NA
ATOM      5  N   UNL     1      -4.799   4.948  26.165  0.00  0.00    -0.112 NA
ATOM     23  C   UNL     1      -5.302   2.953  25.536  0.00  0.00    +0.218 A 
ATOM     24  C   UNL     1      -3.746   4.169  26.253  0.00  0.00    +0.217 A 
BRANCH  24  25
ATOM     25  C   UNL     1      -2.382   4.488  26.694  0.00  0.00    +0.097 C 
BRANCH  25  26
ATOM     26  C   UNL     1      -1.324   4.262  25.593  0.00  0.00    +0.006 C 
ATOM     27  C   UNL     1      -1.075   5.505  24.753  0.00  0.00    +0.004 C 
ENDBRANCH  25  26
ENDBRANCH  24  25
ENDBRANCH  18  23
ENDBRANCH  10  18
TORSDOF 9
ENDMDL
