MODEL 1
REMARK VINA RESULT:       1.7      0.000      0.000
REMARK  Name = 11884075
REMARK  8 active torsions:
REMARK  status: ('A' for Active; 'I' for Inactive)
REMARK    1  A    between atoms: S_1  and  N_9
REMARK    2  A    between atoms: S_1  and  C_18
REMARK    3  A    between atoms: O_4  and  C_15
REMARK    4  A    between atoms: O_4  and  C_19
REMARK    5  A    between atoms: O_8  and  C_33
REMARK    6  A    between atoms: O_8  and  C_34
REMARK    7  A    between atoms: N_9  and  C_14
REMARK    8  A    between atoms: N_10  and  C_25
REMARK                            x       y       z     vdW  Elec       q    Type
REMARK                         _______ _______ _______ _____ _____    ______ ____
ROOT
ATOM      2  O   UNL     1      -2.900   0.069  23.831  0.00  0.00    -0.369 OA
ATOM      3  O   UNL     1      -3.446  -2.490  25.446  0.00  0.00    -0.368 OA
ATOM     12  C   UNL     1      -3.385  -1.103  25.836  0.00  0.00    +0.171 C 
ATOM     13  C   UNL     1      -2.283  -0.464  25.014  0.00  0.00    +0.191 C 
ATOM     14  C   UNL     1      -4.635  -0.388  25.387  0.00  0.00    +0.133 C 
ATOM     15  C   UNL     1      -1.385  -1.636  24.699  0.00  0.00    +0.235 C 
ATOM     16  C   UNL     1      -4.327  -0.042  23.944  0.00  0.00    +0.183 C 
ATOM     17  C   UNL     1      -2.381  -2.761  24.523  0.00  0.00    +0.207 C 
ENDROOT
BRANCH  14   9
ATOM      9  N   UNL     1      -4.816   0.856  26.174  0.00  0.00    -0.182 NA
ATOM     35  H   UNL     1      -4.780   0.784  27.197  0.00  0.00    +0.148 HD
BRANCH   9   1
ATOM      1  S   UNL     1      -5.456   2.240  25.428  0.00  0.00    +0.061 S 
ATOM      5  O   UNL     1      -5.601   3.296  26.413  0.00  0.00    -0.153 OA
ATOM      6  O   UNL     1      -6.585   1.849  24.607  0.00  0.00    -0.153 OA
BRANCH   1  18
ATOM     11  N   UNL     1      -2.630   2.869  26.140  0.00  0.00    -0.253 NA
ATOM     18  C   UNL     1      -4.151   2.698  24.327  0.00  0.00    +0.131 A 
ATOM     20  C   UNL     1      -2.883   2.961  24.821  0.00  0.00    +0.097 A 
ATOM     21  C   UNL     1      -4.458   2.782  22.972  0.00  0.00    +0.031 A 
ATOM     22  C   UNL     1      -1.882   3.324  23.896  0.00  0.00    +0.002 A 
ATOM     23  C   UNL     1      -3.467   3.140  22.066  0.00  0.00    +0.003 A 
ATOM     24  C   UNL     1      -2.181   3.411  22.525  0.00  0.00    +0.010 A 
ATOM     26  C   UNL     1      -0.596   3.590  24.384  0.00  0.00    +0.011 A 
ATOM     27  C   UNL     1      -1.376   3.135  26.571  0.00  0.00    +0.111 A 
ATOM     28  C   UNL     1      -0.333   3.496  25.744  0.00  0.00    +0.020 A 
ENDBRANCH   1  18
ENDBRANCH   9   1
ENDBRANCH  14   9
BRANCH  15   4
ATOM      4  O   UNL     1      -0.593  -1.445  23.550  0.00  0.00    -0.442 OA
BRANCH   4  19
ATOM      7  O   UNL     1       0.381   0.574  24.005  0.00  0.00    -0.226 OA
ATOM     10  N   UNL     1       1.651  -1.287  23.370  0.00  0.00    -0.251 N 
ATOM     19  C   UNL     1       0.491  -0.600  23.673  0.00  0.00    +0.405 C 
ATOM     36  H   UNL     1       1.538  -2.265  23.114  0.00  0.00    +0.158 HD
BRANCH  10  25
ATOM     25  C   UNL     1       2.977  -0.799  23.371  0.00  0.00    +0.037 A 
ATOM     29  C   UNL     1       3.986  -1.577  23.916  0.00  0.00    +0.027 A 
ATOM     30  C   UNL     1       3.243   0.447  22.827  0.00  0.00    +0.027 A 
ATOM     31  C   UNL     1       5.296  -1.097  23.917  0.00  0.00    +0.047 A 
ATOM     32  C   UNL     1       4.552   0.929  22.829  0.00  0.00    +0.047 A 
ATOM     33  C   UNL     1       5.578   0.157  23.373  0.00  0.00    +0.120 A 
BRANCH  33   8
ATOM      8  O   UNL     1       6.856   0.626  23.373  0.00  0.00    -0.495 OA
ATOM     34  C   UNL     1       7.896  -0.323  23.141  0.00  0.00    +0.277 C 
ENDBRANCH  33   8
ENDBRANCH  10  25
ENDBRANCH   4  19
ENDBRANCH  15   4
TORSDOF 7
ENDMDL
MODEL 2
REMARK VINA RESULT:       2.1      1.597      2.089
REMARK  Name = 11884075
REMARK  8 active torsions:
REMARK  status: ('A' for Active; 'I' for Inactive)
REMARK    1  A    between atoms: S_1  and  N_9
REMARK    2  A    between atoms: S_1  and  C_18
REMARK    3  A    between atoms: O_4  and  C_15
REMARK    4  A    between atoms: O_4  and  C_19
REMARK    5  A    between atoms: O_8  and  C_33
REMARK    6  A    between atoms: O_8  and  C_34
REMARK    7  A    between atoms: N_9  and  C_14
REMARK    8  A    between atoms: N_10  and  C_25
REMARK                            x       y       z     vdW  Elec       q    Type
REMARK                         _______ _______ _______ _____ _____    ______ ____
ROOT
ATOM      2  O   UNL     1      -2.399  -0.136  23.904  0.00  0.00    -0.369 OA
ATOM      3  O   UNL     1      -5.109  -1.551  24.234  0.00  0.00    -0.368 OA
ATOM     12  C   UNL     1      -4.433  -0.570  25.046  0.00  0.00    +0.171 C 
ATOM     13  C   UNL     1      -2.953  -0.897  24.989  0.00  0.00    +0.191 C 
ATOM     14  C   UNL     1      -4.530   0.789  24.398  0.00  0.00    +0.133 C 
ATOM     15  C   UNL     1      -2.955  -2.377  24.693  0.00  0.00    +0.235 C 
ATOM     16  C   UNL     1      -3.391   0.768  23.397  0.00  0.00    +0.183 C 
ATOM     17  C   UNL     1      -4.151  -2.517  23.778  0.00  0.00    +0.207 C 
ENDROOT
BRANCH  14   9
ATOM      9  N   UNL     1      -4.290   1.849  25.407  0.00  0.00    -0.182 NA
ATOM     35  H   UNL     1      -4.146   1.557  26.381  0.00  0.00    +0.148 HD
BRANCH   9   1
ATOM      1  S   UNL     1      -4.647   3.466  25.035  0.00  0.00    +0.061 S 
ATOM      5  O   UNL     1      -5.368   4.069  26.140  0.00  0.00    -0.153 OA
ATOM      6  O   UNL     1      -5.190   3.527  23.692  0.00  0.00    -0.153 OA
BRANCH   1  18
ATOM     11  N   UNL     1      -2.073   2.218  25.871  0.00  0.00    -0.253 NA
ATOM     18  C   UNL     1      -3.037   4.191  24.974  0.00  0.00    +0.131 A 
ATOM     20  C   UNL     1      -1.933   3.472  25.404  0.00  0.00    +0.097 A 
ATOM     21  C   UNL     1      -2.939   5.491  24.486  0.00  0.00    +0.031 A 
ATOM     22  C   UNL     1      -0.673   4.104  25.334  0.00  0.00    +0.002 A 
ATOM     23  C   UNL     1      -1.695   6.106  24.419  0.00  0.00    +0.003 A 
ATOM     24  C   UNL     1      -0.563   5.415  24.842  0.00  0.00    +0.010 A 
ATOM     26  C   UNL     1       0.450   3.385  25.765  0.00  0.00    +0.011 A 
ATOM     27  C   UNL     1      -0.964   1.559  26.278  0.00  0.00    +0.111 A 
ATOM     28  C   UNL     1       0.308   2.091  26.246  0.00  0.00    +0.020 A 
ENDBRANCH   1  18
ENDBRANCH   9   1
ENDBRANCH  14   9
BRANCH  15   4
ATOM      4  O   UNL     1      -1.768  -2.831  24.086  0.00  0.00    -0.442 OA
BRANCH   4  19
ATOM      7  O   UNL     1      -0.161  -2.221  25.595  0.00  0.00    -0.226 OA
ATOM     10  N   UNL     1      -0.050  -1.568  23.350  0.00  0.00    -0.251 N 
ATOM     19  C   UNL     1      -0.598  -2.196  24.451  0.00  0.00    +0.405 C 
ATOM     36  H   UNL     1      -0.565  -1.662  22.477  0.00  0.00    +0.158 HD
BRANCH  10  25
ATOM     25  C   UNL     1       1.140  -0.808  23.284  0.00  0.00    +0.037 A 
ATOM     29  C   UNL     1       2.364  -1.456  23.338  0.00  0.00    +0.027 A 
ATOM     30  C   UNL     1       1.060   0.570  23.167  0.00  0.00    +0.027 A 
ATOM     31  C   UNL     1       3.538  -0.707  23.273  0.00  0.00    +0.047 A 
ATOM     32  C   UNL     1       2.235   1.321  23.102  0.00  0.00    +0.047 A 
ATOM     33  C   UNL     1       3.473   0.682  23.155  0.00  0.00    +0.120 A 
BRANCH  33   8
ATOM      8  O   UNL     1       4.619   1.413  23.090  0.00  0.00    -0.495 OA
ATOM     34  C   UNL     1       5.784   0.851  23.693  0.00  0.00    +0.277 C 
ENDBRANCH  33   8
ENDBRANCH  10  25
ENDBRANCH   4  19
ENDBRANCH  15   4
TORSDOF 7
ENDMDL
MODEL 3
REMARK VINA RESULT:       3.1      1.404      2.328
REMARK  Name = 11884075
REMARK  8 active torsions:
REMARK  status: ('A' for Active; 'I' for Inactive)
REMARK    1  A    between atoms: S_1  and  N_9
REMARK    2  A    between atoms: S_1  and  C_18
REMARK    3  A    between atoms: O_4  and  C_15
REMARK    4  A    between atoms: O_4  and  C_19
REMARK    5  A    between atoms: O_8  and  C_33
REMARK    6  A    between atoms: O_8  and  C_34
REMARK    7  A    between atoms: N_9  and  C_14
REMARK    8  A    between atoms: N_10  and  C_25
REMARK                            x       y       z     vdW  Elec       q    Type
REMARK                         _______ _______ _______ _____ _____    ______ ____
ROOT
ATOM      2  O   UNL     1      -3.745  -0.646  23.651  0.00  0.00    -0.369 OA
ATOM      3  O   UNL     1      -4.097  -0.892  26.696  0.00  0.00    -0.368 OA
ATOM     12  C   UNL     1      -4.090   0.253  25.820  0.00  0.00    +0.171 C 
ATOM     13  C   UNL     1      -3.055  -0.021  24.746  0.00  0.00    +0.191 C 
ATOM     14  C   UNL     1      -5.391   0.327  25.060  0.00  0.00    +0.133 C 
ATOM     15  C   UNL     1      -2.114  -0.980  25.434  0.00  0.00    +0.235 C 
ATOM     16  C   UNL     1      -5.158  -0.618  23.898  0.00  0.00    +0.183 C 
ATOM     17  C   UNL     1      -3.058  -1.795  26.289  0.00  0.00    +0.207 C 
ENDROOT
BRANCH  14   9
ATOM      9  N   UNL     1      -5.602   1.704  24.551  0.00  0.00    -0.182 NA
ATOM     35  H   UNL     1      -5.650   1.835  23.534  0.00  0.00    +0.148 HD
BRANCH   9   1
ATOM      1  S   UNL     1      -5.363   3.031  25.581  0.00  0.00    +0.061 S 
ATOM      5  O   UNL     1      -5.702   2.656  26.941  0.00  0.00    -0.153 OA
ATOM      6  O   UNL     1      -5.963   4.205  24.978  0.00  0.00    -0.153 OA
BRANCH   1  18
ATOM     11  N   UNL     1      -3.596   2.556  23.228  0.00  0.00    -0.253 NA
ATOM     18  C   UNL     1      -3.611   3.248  25.498  0.00  0.00    +0.131 A 
ATOM     20  C   UNL     1      -2.931   2.980  24.319  0.00  0.00    +0.097 A 
ATOM     21  C   UNL     1      -2.965   3.687  26.649  0.00  0.00    +0.031 A 
ATOM     22  C   UNL     1      -1.534   3.169  24.312  0.00  0.00    +0.002 A 
ATOM     23  C   UNL     1      -1.588   3.872  26.635  0.00  0.00    +0.003 A 
ATOM     24  C   UNL     1      -0.872   3.613  25.469  0.00  0.00    +0.010 A 
ATOM     26  C   UNL     1      -0.838   2.903  23.125  0.00  0.00    +0.011 A 
ATOM     27  C   UNL     1      -2.887   2.309  22.103  0.00  0.00    +0.111 A 
ATOM     28  C   UNL     1      -1.520   2.465  21.999  0.00  0.00    +0.020 A 
ENDBRANCH   1  18
ENDBRANCH   9   1
ENDBRANCH  14   9
BRANCH  15   4
ATOM      4  O   UNL     1      -1.378  -1.785  24.542  0.00  0.00    -0.442 OA
BRANCH   4  19
ATOM      7  O   UNL     1       0.605  -2.435  25.478  0.00  0.00    -0.226 OA
ATOM     10  N   UNL     1       0.521  -0.865  23.744  0.00  0.00    -0.251 N 
ATOM     19  C   UNL     1      -0.003  -1.754  24.662  0.00  0.00    +0.405 C 
ATOM     36  H   UNL     1      -0.151  -0.389  23.146  0.00  0.00    +0.158 HD
BRANCH  10  25
ATOM     25  C   UNL     1       1.878  -0.532  23.532  0.00  0.00    +0.037 A 
ATOM     29  C   UNL     1       2.198   0.702  22.990  0.00  0.00    +0.027 A 
ATOM     30  C   UNL     1       2.862  -1.447  23.870  0.00  0.00    +0.027 A 
ATOM     31  C   UNL     1       3.537   1.031  22.781  0.00  0.00    +0.047 A 
ATOM     32  C   UNL     1       4.202  -1.119  23.661  0.00  0.00    +0.047 A 
ATOM     33  C   UNL     1       4.539   0.120  23.116  0.00  0.00    +0.120 A 
BRANCH  33   8
ATOM      8  O   UNL     1       5.847   0.441  22.914  0.00  0.00    -0.495 OA
ATOM     34  C   UNL     1       6.805  -0.602  23.081  0.00  0.00    +0.277 C 
ENDBRANCH  33   8
ENDBRANCH  10  25
ENDBRANCH   4  19
ENDBRANCH  15   4
TORSDOF 7
ENDMDL
MODEL 4
REMARK VINA RESULT:       3.2      1.375      1.854
REMARK  Name = 11884075
REMARK  8 active torsions:
REMARK  status: ('A' for Active; 'I' for Inactive)
REMARK    1  A    between atoms: S_1  and  N_9
REMARK    2  A    between atoms: S_1  and  C_18
REMARK    3  A    between atoms: O_4  and  C_15
REMARK    4  A    between atoms: O_4  and  C_19
REMARK    5  A    between atoms: O_8  and  C_33
REMARK    6  A    between atoms: O_8  and  C_34
REMARK    7  A    between atoms: N_9  and  C_14
REMARK    8  A    between atoms: N_10  and  C_25
REMARK                            x       y       z     vdW  Elec       q    Type
REMARK                         _______ _______ _______ _____ _____    ______ ____
ROOT
ATOM      2  O   UNL     1      -2.916  -0.450  23.238  0.00  0.00    -0.369 OA
ATOM      3  O   UNL     1      -1.808  -2.282  25.446  0.00  0.00    -0.368 OA
ATOM     12  C   UNL     1      -2.307  -0.929  25.481  0.00  0.00    +0.171 C 
ATOM     13  C   UNL     1      -1.860  -0.263  24.195  0.00  0.00    +0.191 C 
ATOM     14  C   UNL     1      -3.812  -0.934  25.384  0.00  0.00    +0.133 C 
ATOM     15  C   UNL     1      -0.626  -1.051  23.828  0.00  0.00    +0.235 C 
ATOM     16  C   UNL     1      -4.054  -1.032  23.891  0.00  0.00    +0.183 C 
ATOM     17  C   UNL     1      -0.995  -2.448  24.275  0.00  0.00    +0.207 C 
ENDROOT
BRANCH  14   9
ATOM      9  N   UNL     1      -4.356   0.347  25.897  0.00  0.00    -0.182 NA
ATOM     35  H   UNL     1      -4.589   0.400  26.896  0.00  0.00    +0.148 HD
BRANCH   9   1
ATOM      1  S   UNL     1      -4.942   1.511  24.811  0.00  0.00    +0.061 S 
ATOM      5  O   UNL     1      -6.358   1.721  25.044  0.00  0.00    -0.153 OA
ATOM      6  O   UNL     1      -4.462   1.192  23.480  0.00  0.00    -0.153 OA
BRANCH   1  18
ATOM     11  N   UNL     1      -2.153   2.306  24.120  0.00  0.00    -0.253 NA
ATOM     18  C   UNL     1      -4.083   2.964  25.334  0.00  0.00    +0.131 A 
ATOM     20  C   UNL     1      -2.778   3.188  24.921  0.00  0.00    +0.097 A 
ATOM     21  C   UNL     1      -4.767   3.848  26.163  0.00  0.00    +0.031 A 
ATOM     22  C   UNL     1      -2.143   4.364  25.372  0.00  0.00    +0.002 A 
ATOM     23  C   UNL     1      -4.135   5.005  26.602  0.00  0.00    +0.003 A 
ATOM     24  C   UNL     1      -2.825   5.264  26.208  0.00  0.00    +0.010 A 
ATOM     26  C   UNL     1      -0.824   4.601  24.960  0.00  0.00    +0.011 A 
ATOM     27  C   UNL     1      -0.881   2.571  23.745  0.00  0.00    +0.111 A 
ATOM     28  C   UNL     1      -0.178   3.693  24.133  0.00  0.00    +0.020 A 
ENDBRANCH   1  18
ENDBRANCH   9   1
ENDBRANCH  14   9
BRANCH  15   4
ATOM      4  O   UNL     1      -0.312  -1.000  22.455  0.00  0.00    -0.442 OA
BRANCH   4  19
ATOM      7  O   UNL     1       1.373  -0.572  20.969  0.00  0.00    -0.226 OA
ATOM     10  N   UNL     1       1.768  -0.695  23.273  0.00  0.00    -0.251 N 
ATOM     19  C   UNL     1       1.002  -0.736  22.125  0.00  0.00    +0.405 C 
ATOM     36  H   UNL     1       1.274  -0.858  24.148  0.00  0.00    +0.158 HD
BRANCH  10  25
ATOM     25  C   UNL     1       3.156  -0.455  23.385  0.00  0.00    +0.037 A 
ATOM     29  C   UNL     1       3.979  -1.449  23.892  0.00  0.00    +0.027 A 
ATOM     30  C   UNL     1       3.668   0.769  22.985  0.00  0.00    +0.027 A 
ATOM     31  C   UNL     1       5.349  -1.213  24.002  0.00  0.00    +0.047 A 
ATOM     32  C   UNL     1       5.039   1.006  23.095  0.00  0.00    +0.047 A 
ATOM     33  C   UNL     1       5.879   0.015  23.604  0.00  0.00    +0.120 A 
BRANCH  33   8
ATOM      8  O   UNL     1       7.216   0.245  23.709  0.00  0.00    -0.495 OA
ATOM     34  C   UNL     1       8.072  -0.480  22.828  0.00  0.00    +0.277 C 
ENDBRANCH  33   8
ENDBRANCH  10  25
ENDBRANCH   4  19
ENDBRANCH  15   4
TORSDOF 7
ENDMDL
MODEL 5
REMARK VINA RESULT:       3.4      2.560      6.876
REMARK  Name = 11884075
REMARK  8 active torsions:
REMARK  status: ('A' for Active; 'I' for Inactive)
REMARK    1  A    between atoms: S_1  and  N_9
REMARK    2  A    between atoms: S_1  and  C_18
REMARK    3  A    between atoms: O_4  and  C_15
REMARK    4  A    between atoms: O_4  and  C_19
REMARK    5  A    between atoms: O_8  and  C_33
REMARK    6  A    between atoms: O_8  and  C_34
REMARK    7  A    between atoms: N_9  and  C_14
REMARK    8  A    between atoms: N_10  and  C_25
REMARK                            x       y       z     vdW  Elec       q    Type
REMARK                         _______ _______ _______ _____ _____    ______ ____
ROOT
ATOM      2  O   UNL     1      -3.484   3.595  23.991  0.00  0.00    -0.369 OA
ATOM      3  O   UNL     1      -3.077   5.392  26.454  0.00  0.00    -0.368 OA
ATOM     12  C   UNL     1      -2.333   4.261  25.957  0.00  0.00    +0.171 C 
ATOM     13  C   UNL     1      -3.344   3.285  25.387  0.00  0.00    +0.191 C 
ATOM     14  C   UNL     1      -1.512   4.673  24.760  0.00  0.00    +0.133 C 
ATOM     15  C   UNL     1      -4.595   3.618  26.164  0.00  0.00    +0.235 C 
ATOM     16  C   UNL     1      -2.506   4.577  23.619  0.00  0.00    +0.183 C 
ATOM     17  C   UNL     1      -4.480   5.118  26.325  0.00  0.00    +0.207 C 
ENDROOT
BRANCH  14   9
ATOM      9  N   UNL     1      -0.408   3.706  24.546  0.00  0.00    -0.182 NA
ATOM     35  H   UNL     1      -0.010   3.638  23.602  0.00  0.00    +0.148 HD
BRANCH   9   1
ATOM      1  S   UNL     1      -0.110   2.497  25.698  0.00  0.00    +0.061 S 
ATOM      5  O   UNL     1      -1.284   2.325  26.534  0.00  0.00    -0.153 OA
ATOM      6  O   UNL     1       1.186   2.736  26.303  0.00  0.00    -0.153 OA
BRANCH   1  18
ATOM     11  N   UNL     1       2.083   1.880  23.777  0.00  0.00    -0.253 NA
ATOM     18  C   UNL     1       0.051   1.058  24.685  0.00  0.00    +0.131 A 
ATOM     20  C   UNL     1       1.140   0.922  23.837  0.00  0.00    +0.097 A 
ATOM     21  C   UNL     1      -0.948   0.094  24.778  0.00  0.00    +0.031 A 
ATOM     22  C   UNL     1       1.215  -0.247  23.051  0.00  0.00    +0.002 A 
ATOM     23  C   UNL     1      -0.868  -1.055  24.001  0.00  0.00    +0.003 A 
ATOM     24  C   UNL     1       0.211  -1.227  23.138  0.00  0.00    +0.010 A 
ATOM     26  C   UNL     1       2.312  -0.395  22.191  0.00  0.00    +0.011 A 
ATOM     27  C   UNL     1       3.126   1.699  22.934  0.00  0.00    +0.111 A 
ATOM     28  C   UNL     1       3.286   0.592  22.127  0.00  0.00    +0.020 A 
ENDBRANCH   1  18
ENDBRANCH   9   1
ENDBRANCH  14   9
BRANCH  15   4
ATOM      4  O   UNL     1      -5.783   3.246  25.504  0.00  0.00    -0.442 OA
BRANCH   4  19
ATOM      7  O   UNL     1      -6.886   1.479  24.560  0.00  0.00    -0.226 OA
ATOM     10  N   UNL     1      -4.682   1.285  25.322  0.00  0.00    -0.251 N 
ATOM     19  C   UNL     1      -5.874   1.937  25.075  0.00  0.00    +0.405 C 
ATOM     36  H   UNL     1      -3.950   1.840  25.762  0.00  0.00    +0.158 HD
BRANCH  10  25
ATOM     25  C   UNL     1      -4.350  -0.059  25.040  0.00  0.00    +0.037 A 
ATOM     29  C   UNL     1      -3.841  -0.860  26.050  0.00  0.00    +0.027 A 
ATOM     30  C   UNL     1      -4.541  -0.551  23.759  0.00  0.00    +0.027 A 
ATOM     31  C   UNL     1      -3.514  -2.187  25.773  0.00  0.00    +0.047 A 
ATOM     32  C   UNL     1      -4.214  -1.879  23.480  0.00  0.00    +0.047 A 
ATOM     33  C   UNL     1      -3.701  -2.696  24.487  0.00  0.00    +0.120 A 
BRANCH  33   8
ATOM      8  O   UNL     1      -3.384  -3.992  24.216  0.00  0.00    -0.495 OA
ATOM     34  C   UNL     1      -2.351  -4.221  23.258  0.00  0.00    +0.277 C 
ENDBRANCH  33   8
ENDBRANCH  10  25
ENDBRANCH   4  19
ENDBRANCH  15   4
TORSDOF 7
ENDMDL
