MODEL 1
REMARK VINA RESULT:      -5.6      0.000      0.000
REMARK  Name = 75536653
REMARK  9 active torsions:
REMARK  status: ('A' for Active; 'I' for Inactive)
REMARK    1  A    between atoms: S_1  and  N_7
REMARK    2  A    between atoms: S_1  and  C_16
REMARK    3  A    between atoms: O_3  and  C_9
REMARK    4  A    between atoms: N_6  and  C_8
REMARK    5  A    between atoms: N_6  and  C_13
REMARK    6  A    between atoms: N_7  and  C_12
REMARK    7  A    between atoms: C_10  and  C_12
REMARK    8  A    between atoms: C_13  and  C_14
REMARK    9  A    between atoms: C_13  and  C_15
REMARK                            x       y       z     vdW  Elec       q    Type
REMARK                         _______ _______ _______ _____ _____    ______ ____
ROOT
ATOM      2  O   UNL     1      -2.735   2.642  23.342  0.00  0.00    -0.371 OA
ATOM      8  C   UNL     1      -4.534   1.432  24.313  0.00  0.00    +0.111 C 
ATOM      9  C   UNL     1      -4.027   2.453  25.314  0.00  0.00    +0.164 C 
ATOM     10  C   UNL     1      -3.309   3.433  24.396  0.00  0.00    +0.164 C 
ATOM     11  C   UNL     1      -3.361   1.346  23.350  0.00  0.00    +0.181 C 
ENDROOT
BRANCH   9   3
ATOM      3  O   UNL     1      -5.072   3.075  26.036  0.00  0.00    -0.388 OA
ATOM     18  H   UNL     1      -5.033   4.032  25.868  0.00  0.00    +0.210 HD
ENDBRANCH   9   3
BRANCH   8   6
ATOM      6  N   UNL     1      -4.873   0.149  24.907  0.00  0.00    -0.307 NA
ATOM     17  H   UNL     1      -5.748  -0.199  24.516  0.00  0.00    +0.123 HD
BRANCH   6  13
ATOM     13  C   UNL     1      -3.811  -0.827  24.694  0.00  0.00    +0.048 C 
ATOM     14  C   UNL     1      -3.329  -1.357  26.040  0.00  0.00    +0.023 C 
ATOM     15  C   UNL     1      -4.307  -1.962  23.802  0.00  0.00    +0.023 C 
ENDBRANCH   6  13
ENDBRANCH   8   6
BRANCH  10  12
ATOM     12  C   UNL     1      -2.218   4.223  25.097  0.00  0.00    +0.139 C 
BRANCH  12   7
ATOM      7  N   UNL     1      -1.561   3.371  26.108  0.00  0.00    -0.192 NA
ATOM     19  H   UNL     1      -2.225   2.857  26.701  0.00  0.00    +0.148 HD
BRANCH   7   1
ATOM      1  S   UNL     1      -0.127   2.546  25.691  0.00  0.00    +0.027 S 
ATOM      4  O   UNL     1       0.838   2.665  26.767  0.00  0.00    -0.158 OA
ATOM      5  O   UNL     1       0.230   2.901  24.332  0.00  0.00    -0.158 OA
ATOM     16  C   UNL     1      -0.711   0.867  25.665  0.00  0.00    +0.214 C 
ENDBRANCH   7   1
ENDBRANCH  12   7
ENDBRANCH  10  12
TORSDOF 6
ENDMDL
MODEL 2
REMARK VINA RESULT:      -5.5      2.636      4.687
REMARK  Name = 75536653
REMARK  9 active torsions:
REMARK  status: ('A' for Active; 'I' for Inactive)
REMARK    1  A    between atoms: S_1  and  N_7
REMARK    2  A    between atoms: S_1  and  C_16
REMARK    3  A    between atoms: O_3  and  C_9
REMARK    4  A    between atoms: N_6  and  C_8
REMARK    5  A    between atoms: N_6  and  C_13
REMARK    6  A    between atoms: N_7  and  C_12
REMARK    7  A    between atoms: C_10  and  C_12
REMARK    8  A    between atoms: C_13  and  C_14
REMARK    9  A    between atoms: C_13  and  C_15
REMARK                            x       y       z     vdW  Elec       q    Type
REMARK                         _______ _______ _______ _____ _____    ______ ____
ROOT
ATOM      2  O   UNL     1      -4.499   2.757  25.680  0.00  0.00    -0.371 OA
ATOM      8  C   UNL     1      -2.528   3.419  24.532  0.00  0.00    +0.111 C 
ATOM      9  C   UNL     1      -2.920   2.025  24.078  0.00  0.00    +0.164 C 
ATOM     10  C   UNL     1      -4.392   1.993  24.467  0.00  0.00    +0.164 C 
ATOM     11  C   UNL     1      -3.302   3.540  25.834  0.00  0.00    +0.181 C 
ENDROOT
BRANCH   9   3
ATOM      3  O   UNL     1      -2.737   1.832  22.689  0.00  0.00    -0.388 OA
ATOM     18  H   UNL     1      -2.566   0.888  22.530  0.00  0.00    +0.210 HD
ENDBRANCH   9   3
BRANCH   8   6
ATOM      6  N   UNL     1      -1.095   3.594  24.707  0.00  0.00    -0.307 NA
ATOM     17  H   UNL     1      -0.913   4.350  25.367  0.00  0.00    +0.123 HD
BRANCH   6  13
ATOM     13  C   UNL     1      -0.467   2.364  25.174  0.00  0.00    +0.048 C 
ATOM     14  C   UNL     1       0.558   1.895  24.146  0.00  0.00    +0.023 C 
ATOM     15  C   UNL     1       0.183   2.586  26.536  0.00  0.00    +0.023 C 
ENDBRANCH   6  13
ENDBRANCH   8   6
BRANCH  10  12
ATOM     12  C   UNL     1      -4.923   0.589  24.694  0.00  0.00    +0.139 C 
BRANCH  12   7
ATOM      7  N   UNL     1      -4.037  -0.388  24.031  0.00  0.00    -0.192 NA
ATOM     19  H   UNL     1      -3.440   0.030  23.305  0.00  0.00    +0.148 HD
BRANCH   7   1
ATOM      1  S   UNL     1      -3.334  -1.635  24.960  0.00  0.00    +0.027 S 
ATOM      4  O   UNL     1      -3.725  -2.925  24.426  0.00  0.00    -0.158 OA
ATOM      5  O   UNL     1      -3.523  -1.324  26.363  0.00  0.00    -0.158 OA
ATOM     16  C   UNL     1      -1.613  -1.388  24.589  0.00  0.00    +0.214 C 
ENDBRANCH   7   1
ENDBRANCH  12   7
ENDBRANCH  10  12
TORSDOF 6
ENDMDL
MODEL 3
REMARK VINA RESULT:      -5.5      2.877      4.888
REMARK  Name = 75536653
REMARK  9 active torsions:
REMARK  status: ('A' for Active; 'I' for Inactive)
REMARK    1  A    between atoms: S_1  and  N_7
REMARK    2  A    between atoms: S_1  and  C_16
REMARK    3  A    between atoms: O_3  and  C_9
REMARK    4  A    between atoms: N_6  and  C_8
REMARK    5  A    between atoms: N_6  and  C_13
REMARK    6  A    between atoms: N_7  and  C_12
REMARK    7  A    between atoms: C_10  and  C_12
REMARK    8  A    between atoms: C_13  and  C_14
REMARK    9  A    between atoms: C_13  and  C_15
REMARK                            x       y       z     vdW  Elec       q    Type
REMARK                         _______ _______ _______ _____ _____    ______ ____
ROOT
ATOM      2  O   UNL     1      -0.805   0.424  23.368  0.00  0.00    -0.371 OA
ATOM      8  C   UNL     1      -0.739   2.582  24.359  0.00  0.00    +0.111 C 
ATOM      9  C   UNL     1      -0.743   1.534  25.456  0.00  0.00    +0.164 C 
ATOM     10  C   UNL     1      -0.259   0.308  24.693  0.00  0.00    +0.164 C 
ATOM     11  C   UNL     1      -1.249   1.779  23.173  0.00  0.00    +0.181 C 
ENDROOT
BRANCH   9   3
ATOM      3  O   UNL     1       0.120   1.863  26.527  0.00  0.00    -0.388 OA
ATOM     18  H   UNL     1       1.029   1.909  26.186  0.00  0.00    +0.210 HD
ENDBRANCH   9   3
BRANCH   8   6
ATOM      6  N   UNL     1      -1.566   3.741  24.655  0.00  0.00    -0.307 NA
ATOM     17  H   UNL     1      -1.698   4.302  23.813  0.00  0.00    +0.123 HD
BRANCH   6  13
ATOM     13  C   UNL     1      -2.860   3.340  25.193  0.00  0.00    +0.048 C 
ATOM     14  C   UNL     1      -3.162   4.152  26.448  0.00  0.00    +0.023 C 
ATOM     15  C   UNL     1      -3.951   3.528  24.142  0.00  0.00    +0.023 C 
ENDBRANCH   6  13
ENDBRANCH   8   6
BRANCH  10  12
ATOM     12  C   UNL     1      -0.702  -1.002  25.319  0.00  0.00    +0.139 C 
BRANCH  12   7
ATOM      7  N   UNL     1      -1.677  -1.669  24.433  0.00  0.00    -0.192 NA
ATOM     19  H   UNL     1      -1.289  -2.483  23.940  0.00  0.00    +0.148 HD
BRANCH   7   1
ATOM      1  S   UNL     1      -3.304  -1.795  24.934  0.00  0.00    +0.027 S 
ATOM      4  O   UNL     1      -3.420  -1.406  26.326  0.00  0.00    -0.158 OA
ATOM      5  O   UNL     1      -3.829  -3.065  24.472  0.00  0.00    -0.158 OA
ATOM     16  C   UNL     1      -4.050  -0.520  23.946  0.00  0.00    +0.214 C 
ENDBRANCH   7   1
ENDBRANCH  12   7
ENDBRANCH  10  12
TORSDOF 6
ENDMDL
MODEL 4
REMARK VINA RESULT:      -5.5      2.363      4.323
REMARK  Name = 75536653
REMARK  9 active torsions:
REMARK  status: ('A' for Active; 'I' for Inactive)
REMARK    1  A    between atoms: S_1  and  N_7
REMARK    2  A    between atoms: S_1  and  C_16
REMARK    3  A    between atoms: O_3  and  C_9
REMARK    4  A    between atoms: N_6  and  C_8
REMARK    5  A    between atoms: N_6  and  C_13
REMARK    6  A    between atoms: N_7  and  C_12
REMARK    7  A    between atoms: C_10  and  C_12
REMARK    8  A    between atoms: C_13  and  C_14
REMARK    9  A    between atoms: C_13  and  C_15
REMARK                            x       y       z     vdW  Elec       q    Type
REMARK                         _______ _______ _______ _____ _____    ______ ____
ROOT
ATOM      2  O   UNL     1      -5.265   1.065  25.348  0.00  0.00    -0.371 OA
ATOM      8  C   UNL     1      -4.158   2.787  24.143  0.00  0.00    +0.111 C 
ATOM      9  C   UNL     1      -3.215   1.609  24.302  0.00  0.00    +0.164 C 
ATOM     10  C   UNL     1      -4.199   0.481  24.581  0.00  0.00    +0.164 C 
ATOM     11  C   UNL     1      -5.187   2.496  25.224  0.00  0.00    +0.181 C 
ENDROOT
BRANCH   9   3
ATOM      3  O   UNL     1      -2.448   1.364  23.139  0.00  0.00    -0.388 OA
ATOM     18  H   UNL     1      -2.936   0.739  22.576  0.00  0.00    +0.210 HD
ENDBRANCH   9   3
BRANCH   8   6
ATOM      6  N   UNL     1      -3.512   4.079  24.311  0.00  0.00    -0.307 NA
ATOM     17  H   UNL     1      -4.202   4.786  24.563  0.00  0.00    +0.123 HD
BRANCH   6  13
ATOM     13  C   UNL     1      -2.469   4.018  25.327  0.00  0.00    +0.048 C 
ATOM     14  C   UNL     1      -1.361   5.007  24.979  0.00  0.00    +0.023 C 
ATOM     15  C   UNL     1      -3.055   4.314  26.705  0.00  0.00    +0.023 C 
ENDBRANCH   6  13
ENDBRANCH   8   6
BRANCH  10  12
ATOM     12  C   UNL     1      -3.585  -0.674  25.351  0.00  0.00    +0.139 C 
BRANCH  12   7
ATOM      7  N   UNL     1      -2.167  -0.379  25.639  0.00  0.00    -0.192 NA
ATOM     19  H   UNL     1      -1.995  -0.125  26.620  0.00  0.00    +0.148 HD
BRANCH   7   1
ATOM      1  S   UNL     1      -0.954  -1.306  24.876  0.00  0.00    +0.027 S 
ATOM      4  O   UNL     1      -0.108  -1.926  25.876  0.00  0.00    -0.158 OA
ATOM      5  O   UNL     1      -0.380  -0.517  23.804  0.00  0.00    -0.158 OA
ATOM     16  C   UNL     1      -1.941  -2.581  24.127  0.00  0.00    +0.214 C 
ENDBRANCH   7   1
ENDBRANCH  12   7
ENDBRANCH  10  12
TORSDOF 6
ENDMDL
MODEL 5
REMARK VINA RESULT:      -5.2      2.018      3.781
REMARK  Name = 75536653
REMARK  9 active torsions:
REMARK  status: ('A' for Active; 'I' for Inactive)
REMARK    1  A    between atoms: S_1  and  N_7
REMARK    2  A    between atoms: S_1  and  C_16
REMARK    3  A    between atoms: O_3  and  C_9
REMARK    4  A    between atoms: N_6  and  C_8
REMARK    5  A    between atoms: N_6  and  C_13
REMARK    6  A    between atoms: N_7  and  C_12
REMARK    7  A    between atoms: C_10  and  C_12
REMARK    8  A    between atoms: C_13  and  C_14
REMARK    9  A    between atoms: C_13  and  C_15
REMARK                            x       y       z     vdW  Elec       q    Type
REMARK                         _______ _______ _______ _____ _____    ______ ____
ROOT
ATOM      2  O   UNL     1      -0.945   2.603  25.664  0.00  0.00    -0.371 OA
ATOM      8  C   UNL     1      -1.299   0.696  24.292  0.00  0.00    +0.111 C 
ATOM      9  C   UNL     1      -2.308   1.768  23.920  0.00  0.00    +0.164 C 
ATOM     10  C   UNL     1      -1.626   3.015  24.466  0.00  0.00    +0.164 C 
ATOM     11  C   UNL     1      -0.853   1.168  25.666  0.00  0.00    +0.181 C 
ENDROOT
BRANCH   9   3
ATOM      3  O   UNL     1      -2.524   1.852  22.525  0.00  0.00    -0.388 OA
ATOM     18  H   UNL     1      -1.820   2.402  22.139  0.00  0.00    +0.210 HD
ENDBRANCH   9   3
BRANCH   8   6
ATOM      6  N   UNL     1      -1.853  -0.648  24.307  0.00  0.00    -0.307 NA
ATOM     17  H   UNL     1      -1.288  -1.254  24.902  0.00  0.00    +0.123 HD
BRANCH   6  13
ATOM     13  C   UNL     1      -3.234  -0.643  24.773  0.00  0.00    +0.048 C 
ATOM     14  C   UNL     1      -4.106  -1.415  23.789  0.00  0.00    +0.023 C 
ATOM     15  C   UNL     1      -3.322  -1.244  26.173  0.00  0.00    +0.023 C 
ENDBRANCH   6  13
ENDBRANCH   8   6
BRANCH  10  12
ATOM     12  C   UNL     1      -2.596   4.137  24.787  0.00  0.00    +0.139 C 
BRANCH  12   7
ATOM      7  N   UNL     1      -3.961   3.740  24.388  0.00  0.00    -0.192 NA
ATOM     19  H   UNL     1      -3.981   3.094  23.589  0.00  0.00    +0.148 HD
BRANCH   7   1
ATOM      1  S   UNL     1      -5.136   3.479  25.598  0.00  0.00    +0.027 S 
ATOM      4  O   UNL     1      -6.139   4.525  25.543  0.00  0.00    -0.158 OA
ATOM      5  O   UNL     1      -4.456   3.169  26.840  0.00  0.00    -0.158 OA
ATOM     16  C   UNL     1      -5.881   1.976  25.012  0.00  0.00    +0.214 C 
ENDBRANCH   7   1
ENDBRANCH  12   7
ENDBRANCH  10  12
TORSDOF 6
ENDMDL
MODEL 6
REMARK VINA RESULT:      -5.2      2.404      4.122
REMARK  Name = 75536653
REMARK  9 active torsions:
REMARK  status: ('A' for Active; 'I' for Inactive)
REMARK    1  A    between atoms: S_1  and  N_7
REMARK    2  A    between atoms: S_1  and  C_16
REMARK    3  A    between atoms: O_3  and  C_9
REMARK    4  A    between atoms: N_6  and  C_8
REMARK    5  A    between atoms: N_6  and  C_13
REMARK    6  A    between atoms: N_7  and  C_12
REMARK    7  A    between atoms: C_10  and  C_12
REMARK    8  A    between atoms: C_13  and  C_14
REMARK    9  A    between atoms: C_13  and  C_15
REMARK                            x       y       z     vdW  Elec       q    Type
REMARK                         _______ _______ _______ _____ _____    ______ ____
ROOT
ATOM      2  O   UNL     1      -0.361   3.519  25.730  0.00  0.00    -0.371 OA
ATOM      8  C   UNL     1      -0.600   1.209  25.232  0.00  0.00    +0.111 C 
ATOM      9  C   UNL     1      -1.953   1.885  25.106  0.00  0.00    +0.164 C 
ATOM     10  C   UNL     1      -1.539   3.339  24.925  0.00  0.00    +0.164 C 
ATOM     11  C   UNL     1       0.167   2.224  26.064  0.00  0.00    +0.181 C 
ENDROOT
BRANCH   9   3
ATOM      3  O   UNL     1      -2.700   1.409  24.003  0.00  0.00    -0.388 OA
ATOM     18  H   UNL     1      -3.351   0.764  24.330  0.00  0.00    +0.210 HD
ENDBRANCH   9   3
BRANCH   8   6
ATOM      6  N   UNL     1      -0.659  -0.104  25.853  0.00  0.00    -0.307 NA
ATOM     17  H   UNL     1      -1.573  -0.248  26.284  0.00  0.00    +0.123 HD
BRANCH   6  13
ATOM     13  C   UNL     1      -0.396  -1.158  24.882  0.00  0.00    +0.048 C 
ATOM     14  C   UNL     1      -1.683  -1.927  24.604  0.00  0.00    +0.023 C 
ATOM     15  C   UNL     1       0.177  -0.564  23.599  0.00  0.00    +0.023 C 
ENDBRANCH   6  13
ENDBRANCH   8   6
BRANCH  10  12
ATOM     12  C   UNL     1      -2.610   4.326  25.353  0.00  0.00    +0.139 C 
BRANCH  12   7
ATOM      7  N   UNL     1      -3.684   3.610  26.071  0.00  0.00    -0.192 NA
ATOM     19  H   UNL     1      -3.713   3.821  27.076  0.00  0.00    +0.148 HD
BRANCH   7   1
ATOM      1  S   UNL     1      -5.191   3.390  25.302  0.00  0.00    +0.027 S 
ATOM      4  O   UNL     1      -4.987   3.045  23.909  0.00  0.00    -0.158 OA
ATOM      5  O   UNL     1      -6.061   4.488  25.674  0.00  0.00    -0.158 OA
ATOM     16  C   UNL     1      -5.779   1.939  26.145  0.00  0.00    +0.214 C 
ENDBRANCH   7   1
ENDBRANCH  12   7
ENDBRANCH  10  12
TORSDOF 6
ENDMDL
MODEL 7
REMARK VINA RESULT:      -5.1      2.277      3.843
REMARK  Name = 75536653
REMARK  9 active torsions:
REMARK  status: ('A' for Active; 'I' for Inactive)
REMARK    1  A    between atoms: S_1  and  N_7
REMARK    2  A    between atoms: S_1  and  C_16
REMARK    3  A    between atoms: O_3  and  C_9
REMARK    4  A    between atoms: N_6  and  C_8
REMARK    5  A    between atoms: N_6  and  C_13
REMARK    6  A    between atoms: N_7  and  C_12
REMARK    7  A    between atoms: C_10  and  C_12
REMARK    8  A    between atoms: C_13  and  C_14
REMARK    9  A    between atoms: C_13  and  C_15
REMARK                            x       y       z     vdW  Elec       q    Type
REMARK                         _______ _______ _______ _____ _____    ______ ____
ROOT
ATOM      2  O   UNL     1      -0.788   1.004  26.156  0.00  0.00    -0.371 OA
ATOM      8  C   UNL     1      -0.733  -0.900  24.736  0.00  0.00    +0.111 C 
ATOM      9  C   UNL     1      -0.605   0.353  23.890  0.00  0.00    +0.164 C 
ATOM     10  C   UNL     1      -0.133   1.362  24.928  0.00  0.00    +0.164 C 
ATOM     11  C   UNL     1      -1.303  -0.334  26.027  0.00  0.00    +0.181 C 
ENDROOT
BRANCH   9   3
ATOM      3  O   UNL     1       0.326   0.206  22.836  0.00  0.00    -0.388 OA
ATOM     18  H   UNL     1       0.006   0.713  22.070  0.00  0.00    +0.210 HD
ENDBRANCH   9   3
BRANCH   8   6
ATOM      6  N   UNL     1      -1.582  -1.921  24.143  0.00  0.00    -0.307 NA
ATOM     17  H   UNL     1      -1.191  -2.846  24.318  0.00  0.00    +0.123 HD
BRANCH   6  13
ATOM     13  C   UNL     1      -2.940  -1.847  24.669  0.00  0.00    +0.048 C 
ATOM     14  C   UNL     1      -3.838  -1.141  23.660  0.00  0.00    +0.023 C 
ATOM     15  C   UNL     1      -3.461  -3.246  24.984  0.00  0.00    +0.023 C 
ENDBRANCH   6  13
ENDBRANCH   8   6
BRANCH  10  12
ATOM     12  C   UNL     1      -0.468   2.798  24.566  0.00  0.00    +0.139 C 
BRANCH  12   7
ATOM      7  N   UNL     1      -1.725   2.832  23.791  0.00  0.00    -0.192 NA
ATOM     19  H   UNL     1      -1.769   2.116  23.055  0.00  0.00    +0.148 HD
BRANCH   7   1
ATOM      1  S   UNL     1      -3.189   3.175  24.599  0.00  0.00    +0.027 S 
ATOM      4  O   UNL     1      -3.778   1.945  25.090  0.00  0.00    -0.158 OA
ATOM      5  O   UNL     1      -3.959   4.093  23.783  0.00  0.00    -0.158 OA
ATOM     16  C   UNL     1      -2.583   4.088  25.998  0.00  0.00    +0.214 C 
ENDBRANCH   7   1
ENDBRANCH  12   7
ENDBRANCH  10  12
TORSDOF 6
ENDMDL
MODEL 8
REMARK VINA RESULT:      -4.4     16.316     18.365
REMARK  Name = 75536653
REMARK  9 active torsions:
REMARK  status: ('A' for Active; 'I' for Inactive)
REMARK    1  A    between atoms: S_1  and  N_7
REMARK    2  A    between atoms: S_1  and  C_16
REMARK    3  A    between atoms: O_3  and  C_9
REMARK    4  A    between atoms: N_6  and  C_8
REMARK    5  A    between atoms: N_6  and  C_13
REMARK    6  A    between atoms: N_7  and  C_12
REMARK    7  A    between atoms: C_10  and  C_12
REMARK    8  A    between atoms: C_13  and  C_14
REMARK    9  A    between atoms: C_13  and  C_15
REMARK                            x       y       z     vdW  Elec       q    Type
REMARK                         _______ _______ _______ _____ _____    ______ ____
ROOT
ATOM      2  O   UNL     1      13.174   8.053  18.108  0.00  0.00    -0.371 OA
ATOM      8  C   UNL     1      15.098   7.508  19.390  0.00  0.00    +0.111 C 
ATOM      9  C   UNL     1      13.997   7.977  20.324  0.00  0.00    +0.164 C 
ATOM     10  C   UNL     1      12.765   7.763  19.455  0.00  0.00    +0.164 C 
ATOM     11  C   UNL     1      14.611   8.050  18.056  0.00  0.00    +0.181 C 
ENDROOT
BRANCH   9   3
ATOM      3  O   UNL     1      13.938   7.222  21.518  0.00  0.00    -0.388 OA
ATOM     18  H   UNL     1      13.239   7.596  22.083  0.00  0.00    +0.210 HD
ENDBRANCH   9   3
BRANCH   8   6
ATOM      6  N   UNL     1      16.418   7.998  19.752  0.00  0.00    -0.307 NA
ATOM     17  H   UNL     1      16.365   8.552  20.607  0.00  0.00    +0.123 HD
BRANCH   6  13
ATOM     13  C   UNL     1      17.357   6.897  19.931  0.00  0.00    +0.048 C 
ATOM     14  C   UNL     1      17.304   6.415  21.377  0.00  0.00    +0.023 C 
ATOM     15  C   UNL     1      17.034   5.763  18.962  0.00  0.00    +0.023 C 
ENDBRANCH   6  13
ENDBRANCH   8   6
BRANCH  10  12
ATOM     12  C   UNL     1      11.597   8.654  19.840  0.00  0.00    +0.139 C 
BRANCH  12   7
ATOM      7  N   UNL     1      10.483   7.821  20.335  0.00  0.00    -0.192 NA
ATOM     19  H   UNL     1      10.127   7.158  19.634  0.00  0.00    +0.148 HD
BRANCH   7   1
ATOM      1  S   UNL     1      10.512   7.269  21.949  0.00  0.00    +0.027 S 
ATOM      4  O   UNL     1      11.495   6.213  22.090  0.00  0.00    -0.158 OA
ATOM      5  O   UNL     1       9.146   7.074  22.393  0.00  0.00    -0.158 OA
ATOM     16  C   UNL     1      11.137   8.713  22.777  0.00  0.00    +0.214 C 
ENDBRANCH   7   1
ENDBRANCH  12   7
ENDBRANCH  10  12
TORSDOF 6
ENDMDL
MODEL 9
REMARK VINA RESULT:      -4.1      3.234      4.437
REMARK  Name = 75536653
REMARK  9 active torsions:
REMARK  status: ('A' for Active; 'I' for Inactive)
REMARK    1  A    between atoms: S_1  and  N_7
REMARK    2  A    between atoms: S_1  and  C_16
REMARK    3  A    between atoms: O_3  and  C_9
REMARK    4  A    between atoms: N_6  and  C_8
REMARK    5  A    between atoms: N_6  and  C_13
REMARK    6  A    between atoms: N_7  and  C_12
REMARK    7  A    between atoms: C_10  and  C_12
REMARK    8  A    between atoms: C_13  and  C_14
REMARK    9  A    between atoms: C_13  and  C_15
REMARK                            x       y       z     vdW  Elec       q    Type
REMARK                         _______ _______ _______ _____ _____    ______ ____
ROOT
ATOM      2  O   UNL     1      -0.145   2.037  24.861  0.00  0.00    -0.371 OA
ATOM      8  C   UNL     1      -2.509   2.085  24.641  0.00  0.00    +0.111 C 
ATOM      9  C   UNL     1      -1.990   0.764  24.105  0.00  0.00    +0.164 C 
ATOM     10  C   UNL     1      -0.630   0.686  24.786  0.00  0.00    +0.164 C 
ATOM     11  C   UNL     1      -1.247   2.932  24.630  0.00  0.00    +0.181 C 
ENDROOT
BRANCH   9   3
ATOM      3  O   UNL     1      -2.818  -0.328  24.453  0.00  0.00    -0.388 OA
ATOM     18  H   UNL     1      -3.382  -0.060  25.199  0.00  0.00    +0.210 HD
ENDBRANCH   9   3
BRANCH   8   6
ATOM      6  N   UNL     1      -3.581   2.658  23.843  0.00  0.00    -0.307 NA
ATOM     17  H   UNL     1      -3.862   2.005  23.112  0.00  0.00    +0.123 HD
BRANCH   6  13
ATOM     13  C   UNL     1      -4.730   2.999  24.673  0.00  0.00    +0.048 C 
ATOM     14  C   UNL     1      -5.522   1.735  24.990  0.00  0.00    +0.023 C 
ATOM     15  C   UNL     1      -4.272   3.695  25.951  0.00  0.00    +0.023 C 
ENDBRANCH   6  13
ENDBRANCH   8   6
BRANCH  10  12
ATOM     12  C   UNL     1       0.368  -0.178  24.036  0.00  0.00    +0.139 C 
BRANCH  12   7
ATOM      7  N   UNL     1       1.424   0.675  23.457  0.00  0.00    -0.192 NA
ATOM     19  H   UNL     1       1.677   1.473  24.054  0.00  0.00    +0.148 HD
BRANCH   7   1
ATOM      1  S   UNL     1       2.703  -0.057  22.596  0.00  0.00    +0.027 S 
ATOM      4  O   UNL     1       2.326  -0.225  21.206  0.00  0.00    -0.158 OA
ATOM      5  O   UNL     1       3.197  -1.177  23.372  0.00  0.00    -0.158 OA
ATOM     16  C   UNL     1       3.929   1.228  22.678  0.00  0.00    +0.214 C 
ENDBRANCH   7   1
ENDBRANCH  12   7
ENDBRANCH  10  12
TORSDOF 6
ENDMDL
MODEL 10
REMARK VINA RESULT:      -3.8      1.921      3.429
REMARK  Name = 75536653
REMARK  9 active torsions:
REMARK  status: ('A' for Active; 'I' for Inactive)
REMARK    1  A    between atoms: S_1  and  N_7
REMARK    2  A    between atoms: S_1  and  C_16
REMARK    3  A    between atoms: O_3  and  C_9
REMARK    4  A    between atoms: N_6  and  C_8
REMARK    5  A    between atoms: N_6  and  C_13
REMARK    6  A    between atoms: N_7  and  C_12
REMARK    7  A    between atoms: C_10  and  C_12
REMARK    8  A    between atoms: C_13  and  C_14
REMARK    9  A    between atoms: C_13  and  C_15
REMARK                            x       y       z     vdW  Elec       q    Type
REMARK                         _______ _______ _______ _____ _____    ______ ____
ROOT
ATOM      2  O   UNL     1      -2.653  -1.198  25.346  0.00  0.00    -0.371 OA
ATOM      8  C   UNL     1      -4.100   0.239  24.128  0.00  0.00    +0.111 C 
ATOM      9  C   UNL     1      -2.679   0.758  24.017  0.00  0.00    +0.164 C 
ATOM     10  C   UNL     1      -1.882  -0.493  24.359  0.00  0.00    +0.164 C 
ATOM     11  C   UNL     1      -3.993  -0.675  25.339  0.00  0.00    +0.181 C 
ENDROOT
BRANCH   9   3
ATOM      3  O   UNL     1      -2.374   1.240  22.723  0.00  0.00    -0.388 OA
ATOM     18  H   UNL     1      -3.181   1.193  22.181  0.00  0.00    +0.210 HD
ENDBRANCH   9   3
BRANCH   8   6
ATOM      6  N   UNL     1      -5.094   1.287  24.297  0.00  0.00    -0.307 NA
ATOM     17  H   UNL     1      -5.971   0.889  24.633  0.00  0.00    +0.123 HD
BRANCH   6  13
ATOM     13  C   UNL     1      -4.626   2.311  25.224  0.00  0.00    +0.048 C 
ATOM     14  C   UNL     1      -4.306   3.587  24.452  0.00  0.00    +0.023 C 
ATOM     15  C   UNL     1      -5.676   2.569  26.301  0.00  0.00    +0.023 C 
ENDBRANCH   6  13
ENDBRANCH   8   6
BRANCH  10  12
ATOM     12  C   UNL     1      -0.498  -0.192  24.907  0.00  0.00    +0.139 C 
BRANCH  12   7
ATOM      7  N   UNL     1      -0.610   0.723  26.060  0.00  0.00    -0.192 NA
ATOM     19  H   UNL     1      -0.347   0.287  26.953  0.00  0.00    +0.148 HD
BRANCH   7   1
ATOM      1  S   UNL     1      -0.178   2.362  25.864  0.00  0.00    +0.027 S 
ATOM      4  O   UNL     1      -1.352   3.200  26.011  0.00  0.00    -0.158 OA
ATOM      5  O   UNL     1       0.674   2.476  24.696  0.00  0.00    -0.158 OA
ATOM     16  C   UNL     1       0.848   2.602  27.295  0.00  0.00    +0.214 C 
ENDBRANCH   7   1
ENDBRANCH  12   7
ENDBRANCH  10  12
TORSDOF 6
ENDMDL
