MODEL 1
REMARK VINA RESULT:      -5.9      0.000      0.000
REMARK  Name = 45783792
REMARK  5 active torsions:
REMARK  status: ('A' for Active; 'I' for Inactive)
REMARK    1  A    between atoms: N_2  and  C_7
REMARK    2  A    between atoms: N_6  and  C_21
REMARK    3  A    between atoms: N_6  and  C_22
REMARK    4  A    between atoms: C_10  and  C_15
REMARK    5  A    between atoms: C_16  and  C_17
REMARK                            x       y       z     vdW  Elec       q    Type
REMARK                         _______ _______ _______ _____ _____    ______ ____
ROOT
ATOM      1  O   UNL     1      -2.575 -10.552  14.634  0.00  0.00    -0.336 OA
ATOM      3  N   UNL     1      -4.793 -10.722  14.366  0.00  0.00    -0.190 NA
ATOM      4  N   UNL     1      -3.127 -10.511  15.920  0.00  0.00    -0.056 NA
ATOM     15  C   UNL     1      -3.624 -10.677  13.778  0.00  0.00    +0.245 A 
ATOM     16  C   UNL     1      -4.437 -10.617  15.679  0.00  0.00    +0.204 A 
ENDROOT
BRANCH  16  17
ATOM      5  N   UNL     1      -7.745 -10.572  17.376  0.00  0.00    -0.240 NA
ATOM     17  C   UNL     1      -5.417 -10.619  16.727  0.00  0.00    +0.041 A 
ATOM     18  C   UNL     1      -5.038 -10.664  18.063  0.00  0.00    +0.016 A 
ATOM     19  C   UNL     1      -6.772 -10.573  16.438  0.00  0.00    +0.124 A 
ATOM     20  C   UNL     1      -6.010 -10.663  19.057  0.00  0.00    +0.044 A 
ATOM     21  C   UNL     1      -7.338 -10.616  18.664  0.00  0.00    +0.118 A 
BRANCH  21   6
ATOM      6  N   UNL     1      -8.317 -10.618  19.689  0.00  0.00    -0.332 N 
ATOM     22  C   UNL     1      -9.717 -10.664  19.415  0.00  0.00    +0.127 C 
ATOM     23  H   UNL     1      -8.013 -10.355  20.620  0.00  0.00    +0.147 HD
ENDBRANCH  21   6
ENDBRANCH  16  17
BRANCH  15  10
ATOM      2  N   UNL     1      -3.890  -9.633  11.539  0.00  0.00    -0.288 NA
ATOM     10  C   UNL     1      -3.286 -10.745  12.303  0.00  0.00    +0.146 C 
ATOM     12  C   UNL     1      -2.987  -9.361  10.419  0.00  0.00    +0.085 C 
ATOM     13  C   UNL     1      -1.775 -10.635  12.030  0.00  0.00    +0.030 C 
ATOM     14  C   UNL     1      -1.628  -9.453  11.082  0.00  0.00    +0.017 C 
BRANCH   2   7
ATOM      7  C   UNL     1      -5.229  -9.983  11.045  0.00  0.00    +0.057 C 
ATOM      8  C   UNL     1      -6.238  -8.896  11.471  0.00  0.00    +0.019 C 
ATOM      9  C   UNL     1      -5.400  -9.468   9.601  0.00  0.00    +0.019 C 
ATOM     11  C   UNL     1      -6.789  -8.953  10.030  0.00  0.00    +0.003 C 
ENDBRANCH   2   7
ENDBRANCH  15  10
TORSDOF 4
ENDMDL
MODEL 2
REMARK VINA RESULT:      -3.6      2.209      2.903
REMARK  Name = 45783792
REMARK  5 active torsions:
REMARK  status: ('A' for Active; 'I' for Inactive)
REMARK    1  A    between atoms: N_2  and  C_7
REMARK    2  A    between atoms: N_6  and  C_21
REMARK    3  A    between atoms: N_6  and  C_22
REMARK    4  A    between atoms: C_10  and  C_15
REMARK    5  A    between atoms: C_16  and  C_17
REMARK                            x       y       z     vdW  Elec       q    Type
REMARK                         _______ _______ _______ _____ _____    ______ ____
ROOT
ATOM      1  O   UNL     1      -7.598 -10.084  11.790  0.00  0.00    -0.336 OA
ATOM      3  N   UNL     1      -5.761 -10.112  13.072  0.00  0.00    -0.190 NA
ATOM      4  N   UNL     1      -8.047 -10.066  13.116  0.00  0.00    -0.056 NA
ATOM     15  C   UNL     1      -6.240 -10.112  11.853  0.00  0.00    +0.245 A 
ATOM     16  C   UNL     1      -6.907 -10.083  13.811  0.00  0.00    +0.204 A 
ENDROOT
BRANCH  16  17
ATOM      5  N   UNL     1      -8.000  -9.593  17.332  0.00  0.00    -0.240 NA
ATOM     17  C   UNL     1      -6.877 -10.075  15.246  0.00  0.00    +0.041 A 
ATOM     18  C   UNL     1      -5.757 -10.513  15.941  0.00  0.00    +0.016 A 
ATOM     19  C   UNL     1      -7.963  -9.627  15.981  0.00  0.00    +0.124 A 
ATOM     20  C   UNL     1      -5.756 -10.493  17.332  0.00  0.00    +0.044 A 
ATOM     21  C   UNL     1      -6.893 -10.028  17.973  0.00  0.00    +0.118 A 
BRANCH  21   6
ATOM      6  N   UNL     1      -6.877 -10.015  19.390  0.00  0.00    -0.332 N 
ATOM     22  C   UNL     1      -5.949 -10.781  20.157  0.00  0.00    +0.127 C 
ATOM     23  H   UNL     1      -7.688  -9.625  19.859  0.00  0.00    +0.147 HD
ENDBRANCH  21   6
ENDBRANCH  16  17
BRANCH  15  10
ATOM      2  N   UNL     1      -5.663  -8.873   9.778  0.00  0.00    -0.288 NA
ATOM     10  C   UNL     1      -5.503 -10.135  10.530  0.00  0.00    +0.146 C 
ATOM     12  C   UNL     1      -4.441  -8.701   8.991  0.00  0.00    +0.085 C 
ATOM     13  C   UNL     1      -3.982 -10.304  10.697  0.00  0.00    +0.030 C 
ATOM     14  C   UNL     1      -3.369  -9.108   9.983  0.00  0.00    +0.017 C 
BRANCH   2   7
ATOM      7  C   UNL     1      -6.839  -8.917   8.897  0.00  0.00    +0.057 C 
ATOM      8  C   UNL     1      -8.099  -8.524   9.696  0.00  0.00    +0.019 C 
ATOM      9  C   UNL     1      -6.981  -7.570   8.157  0.00  0.00    +0.019 C 
ATOM     11  C   UNL     1      -8.485  -7.629   8.499  0.00  0.00    +0.003 C 
ENDBRANCH   2   7
ENDBRANCH  15  10
TORSDOF 4
ENDMDL
MODEL 3
REMARK VINA RESULT:      -3.5     14.261     16.773
REMARK  Name = 45783792
REMARK  5 active torsions:
REMARK  status: ('A' for Active; 'I' for Inactive)
REMARK    1  A    between atoms: N_2  and  C_7
REMARK    2  A    between atoms: N_6  and  C_21
REMARK    3  A    between atoms: N_6  and  C_22
REMARK    4  A    between atoms: C_10  and  C_15
REMARK    5  A    between atoms: C_16  and  C_17
REMARK                            x       y       z     vdW  Elec       q    Type
REMARK                         _______ _______ _______ _____ _____    ______ ____
ROOT
ATOM      1  O   UNL     1      -1.907   2.474  25.386  0.00  0.00    -0.336 OA
ATOM      3  N   UNL     1      -1.542   1.155  23.613  0.00  0.00    -0.190 NA
ATOM      4  N   UNL     1      -0.517   2.350  25.272  0.00  0.00    -0.056 NA
ATOM     15  C   UNL     1      -2.435   1.739  24.372  0.00  0.00    +0.245 A 
ATOM     16  C   UNL     1      -0.381   1.559  24.204  0.00  0.00    +0.204 A 
ENDROOT
BRANCH  16  17
ATOM      5  N   UNL     1       3.188   1.725  23.174  0.00  0.00    -0.240 NA
ATOM     17  C   UNL     1       0.900   1.152  23.703  0.00  0.00    +0.041 A 
ATOM     18  C   UNL     1       1.118  -0.150  23.267  0.00  0.00    +0.016 A 
ATOM     19  C   UNL     1       1.958   2.044  23.635  0.00  0.00    +0.124 A 
ATOM     20  C   UNL     1       2.370  -0.516  22.786  0.00  0.00    +0.044 A 
ATOM     21  C   UNL     1       3.362   0.451  22.760  0.00  0.00    +0.118 A 
BRANCH  21   6
ATOM      6  N   UNL     1       4.633   0.062  22.268  0.00  0.00    -0.332 N 
ATOM     22  C   UNL     1       5.754  -0.160  23.122  0.00  0.00    +0.127 C 
ATOM     23  H   UNL     1       4.794   0.164  21.272  0.00  0.00    +0.147 HD
ENDBRANCH  21   6
ENDBRANCH  16  17
BRANCH  15  10
ATOM      2  N   UNL     1      -4.570   1.048  25.440  0.00  0.00    -0.288 NA
ATOM     10  C   UNL     1      -3.946   1.710  24.275  0.00  0.00    +0.146 C 
ATOM     12  C   UNL     1      -5.876   1.681  25.628  0.00  0.00    +0.085 C 
ATOM     13  C   UNL     1      -4.570   3.118  24.244  0.00  0.00    +0.030 C 
ATOM     14  C   UNL     1      -5.550   3.144  25.407  0.00  0.00    +0.017 C 
BRANCH   2   7
ATOM      7  C   UNL     1      -4.727  -0.397  25.217  0.00  0.00    +0.057 C 
ATOM      8  C   UNL     1      -4.167  -0.769  23.828  0.00  0.00    +0.019 C 
ATOM      9  C   UNL     1      -3.521  -1.147  25.820  0.00  0.00    +0.019 C 
ATOM     11  C   UNL     1      -3.475  -1.967  24.514  0.00  0.00    +0.003 C 
ENDBRANCH   2   7
ENDBRANCH  15  10
TORSDOF 4
ENDMDL
MODEL 4
REMARK VINA RESULT:      -3.0     14.621     17.138
REMARK  Name = 45783792
REMARK  5 active torsions:
REMARK  status: ('A' for Active; 'I' for Inactive)
REMARK    1  A    between atoms: N_2  and  C_7
REMARK    2  A    between atoms: N_6  and  C_21
REMARK    3  A    between atoms: N_6  and  C_22
REMARK    4  A    between atoms: C_10  and  C_15
REMARK    5  A    between atoms: C_16  and  C_17
REMARK                            x       y       z     vdW  Elec       q    Type
REMARK                         _______ _______ _______ _____ _____    ______ ____
ROOT
ATOM      1  O   UNL     1      -3.085  -0.150  24.367  0.00  0.00    -0.336 OA
ATOM      3  N   UNL     1      -1.653   1.553  24.627  0.00  0.00    -0.190 NA
ATOM      4  N   UNL     1      -1.872  -0.572  23.810  0.00  0.00    -0.056 NA
ATOM     15  C   UNL     1      -2.870   1.111  24.825  0.00  0.00    +0.245 A 
ATOM     16  C   UNL     1      -1.078   0.485  24.003  0.00  0.00    +0.204 A 
ENDROOT
BRANCH  16  17
ATOM      5  N   UNL     1       2.426   1.645  23.555  0.00  0.00    -0.240 NA
ATOM     17  C   UNL     1       0.293   0.509  23.580  0.00  0.00    +0.041 A 
ATOM     18  C   UNL     1       0.824  -0.521  22.814  0.00  0.00    +0.016 A 
ATOM     19  C   UNL     1       1.127   1.562  23.921  0.00  0.00    +0.124 A 
ATOM     20  C   UNL     1       2.156  -0.470  22.418  0.00  0.00    +0.044 A 
ATOM     21  C   UNL     1       2.908   0.625  22.812  0.00  0.00    +0.118 A 
BRANCH  21   6
ATOM      6  N   UNL     1       4.264   0.662  22.401  0.00  0.00    -0.332 N 
ATOM     22  C   UNL     1       5.330   0.197  23.228  0.00  0.00    +0.127 C 
ATOM     23  H   UNL     1       4.489   1.237  21.597  0.00  0.00    +0.147 HD
ENDBRANCH  21   6
ENDBRANCH  16  17
BRANCH  15  10
ATOM      2  N   UNL     1      -4.540   2.946  24.690  0.00  0.00    -0.288 NA
ATOM     10  C   UNL     1      -4.048   1.800  25.483  0.00  0.00    +0.146 C 
ATOM     12  C   UNL     1      -5.975   3.050  24.957  0.00  0.00    +0.085 C 
ATOM     13  C   UNL     1      -5.269   0.876  25.639  0.00  0.00    +0.030 C 
ATOM     14  C   UNL     1      -6.406   1.597  24.929  0.00  0.00    +0.017 C 
BRANCH   2   7
ATOM      7  C   UNL     1      -3.857   4.193  25.064  0.00  0.00    +0.057 C 
ATOM      8  C   UNL     1      -2.927   3.931  26.267  0.00  0.00    +0.019 C 
ATOM      9  C   UNL     1      -2.582   4.359  24.212  0.00  0.00    +0.019 C 
ATOM     11  C   UNL     1      -1.853   4.747  25.515  0.00  0.00    +0.003 C 
ENDBRANCH   2   7
ENDBRANCH  15  10
TORSDOF 4
ENDMDL
MODEL 5
REMARK VINA RESULT:      -2.4      3.167      6.206
REMARK  Name = 45783792
REMARK  5 active torsions:
REMARK  status: ('A' for Active; 'I' for Inactive)
REMARK    1  A    between atoms: N_2  and  C_7
REMARK    2  A    between atoms: N_6  and  C_21
REMARK    3  A    between atoms: N_6  and  C_22
REMARK    4  A    between atoms: C_10  and  C_15
REMARK    5  A    between atoms: C_16  and  C_17
REMARK                            x       y       z     vdW  Elec       q    Type
REMARK                         _______ _______ _______ _____ _____    ______ ____
ROOT
ATOM      1  O   UNL     1      -6.599 -10.182  11.075  0.00  0.00    -0.336 OA
ATOM      3  N   UNL     1      -6.463 -10.724  13.244  0.00  0.00    -0.190 NA
ATOM      4  N   UNL     1      -5.239 -10.133  11.404  0.00  0.00    -0.056 NA
ATOM     15  C   UNL     1      -7.249 -10.537  12.214  0.00  0.00    +0.245 A 
ATOM     16  C   UNL     1      -5.240 -10.465  12.698  0.00  0.00    +0.204 A 
ENDROOT
BRANCH  16  17
ATOM      5  N   UNL     1      -1.620 -10.529  13.548  0.00  0.00    -0.240 NA
ATOM     17  C   UNL     1      -4.036 -10.544  13.476  0.00  0.00    +0.041 A 
ATOM     18  C   UNL     1      -4.084 -10.707  14.855  0.00  0.00    +0.016 A 
ATOM     19  C   UNL     1      -2.790 -10.462  12.875  0.00  0.00    +0.124 A 
ATOM     20  C   UNL     1      -2.901 -10.781  15.582  0.00  0.00    +0.044 A 
ATOM     21  C   UNL     1      -1.706 -10.688  14.887  0.00  0.00    +0.118 A 
BRANCH  21   6
ATOM      6  N   UNL     1      -0.510 -10.764  15.643  0.00  0.00    -0.332 N 
ATOM     22  C   UNL     1      -0.033  -9.680  16.440  0.00  0.00    +0.127 C 
ATOM     23  H   UNL     1       0.125 -11.525  15.429  0.00  0.00    +0.147 HD
ENDBRANCH  21   6
ENDBRANCH  16  17
BRANCH  15  10
ATOM      2  N   UNL     1      -9.454  -9.588  12.859  0.00  0.00    -0.288 NA
ATOM     10  C   UNL     1      -8.756 -10.662  12.121  0.00  0.00    +0.146 C 
ATOM     12  C   UNL     1     -10.715  -9.353  12.155  0.00  0.00    +0.085 C 
ATOM     13  C   UNL     1      -9.276 -10.547  10.676  0.00  0.00    +0.030 C 
ATOM     14  C   UNL     1     -10.281  -9.404  10.705  0.00  0.00    +0.017 C 
BRANCH   2   7
ATOM      7  C   UNL     1      -9.708  -9.972  14.255  0.00  0.00    +0.057 C 
ATOM      8  C   UNL     1      -8.637  -9.341  15.168  0.00  0.00    +0.019 C 
ATOM      9  C   UNL     1     -10.716  -8.990  14.886  0.00  0.00    +0.019 C 
ATOM     11  C   UNL     1      -9.789  -8.949  16.119  0.00  0.00    +0.003 C 
ENDBRANCH   2   7
ENDBRANCH  15  10
TORSDOF 4
ENDMDL
