MODEL 1
REMARK VINA RESULT:      -4.0      0.000      0.000
REMARK  Name = 11867430
REMARK  9 active torsions:
REMARK  status: ('A' for Active; 'I' for Inactive)
REMARK    1  A    between atoms: O_3  and  C_11
REMARK    2  A    between atoms: O_3  and  C_21
REMARK    3  A    between atoms: N_5  and  C_10
REMARK    4  A    between atoms: N_5  and  C_17
REMARK    5  A    between atoms: N_6  and  C_14
REMARK    6  A    between atoms: N_7  and  C_27
REMARK    7  A    between atoms: N_7  and  C_28
REMARK    8  A    between atoms: N_7  and  C_29
REMARK    9  A    between atoms: C_17  and  C_22
REMARK                            x       y       z     vdW  Elec       q    Type
REMARK                         _______ _______ _______ _____ _____    ______ ____
ROOT
ATOM      1  O   UNL     1      -1.665   2.565  26.218  0.00  0.00    -0.369 OA
ATOM      2  O   UNL     1      -1.243   5.216  24.760  0.00  0.00    -0.369 OA
ATOM      8  C   UNL     1      -2.339   4.276  24.725  0.00  0.00    +0.170 C 
ATOM      9  C   UNL     1      -1.730   2.891  24.819  0.00  0.00    +0.191 C 
ATOM     10  C   UNL     1      -3.166   4.402  25.985  0.00  0.00    +0.111 C 
ATOM     11  C   UNL     1      -0.354   3.100  24.232  0.00  0.00    +0.235 C 
ATOM     12  C   UNL     1      -2.357   3.573  26.972  0.00  0.00    +0.181 C 
ATOM     13  C   UNL     1      -0.006   4.488  24.721  0.00  0.00    +0.207 C 
ENDROOT
BRANCH  10   5
ATOM      5  N   UNL     1      -4.495   3.815  25.815  0.00  0.00    -0.305 NA
ATOM     30  H   UNL     1      -5.204   4.534  25.963  0.00  0.00    +0.123 HD
BRANCH   5  17
ATOM     17  C   UNL     1      -4.655   3.282  24.471  0.00  0.00    +0.116 C 
BRANCH  17  22
ATOM     22  C   UNL     1      -4.279   1.825  24.397  0.00  0.00    -0.033 A 
ATOM     23  C   UNL     1      -4.634   0.959  25.432  0.00  0.00    +0.007 A 
ATOM     24  C   UNL     1      -3.575   1.343  23.294  0.00  0.00    +0.007 A 
ATOM     25  C   UNL     1      -4.285  -0.390  25.362  0.00  0.00    +0.023 A 
ATOM     26  C   UNL     1      -3.226  -0.006  23.225  0.00  0.00    +0.023 A 
ATOM     27  C   UNL     1      -3.581  -0.872  24.259  0.00  0.00    +0.029 A 
BRANCH  27   7
ATOM      7  N   UNL     1      -3.228  -2.236  24.189  0.00  0.00    -0.336 N 
ATOM     28  C   UNL     1      -4.216  -3.233  23.831  0.00  0.00    +0.129 C 
ATOM     29  C   UNL     1      -1.867  -2.656  24.461  0.00  0.00    +0.129 C 
ENDBRANCH  27   7
ENDBRANCH  17  22
ENDBRANCH   5  17
ENDBRANCH  10   5
BRANCH  11   3
ATOM      3  O   UNL     1       0.588   2.139  24.652  0.00  0.00    -0.442 OA
BRANCH   3  21
ATOM      4  O   UNL     1       0.247   0.378  23.217  0.00  0.00    -0.226 OA
ATOM      6  N   UNL     1       2.330   1.381  23.419  0.00  0.00    -0.278 N 
ATOM     21  C   UNL     1       0.992   1.218  23.712  0.00  0.00    +0.401 C 
ATOM     31  H   UNL     1       2.838   2.089  23.938  0.00  0.00    +0.152 HD
BRANCH   6  14
ATOM     14  C   UNL     1       3.049   0.563  22.467  0.00  0.00    +0.076 C 
ATOM     15  C   UNL     1       2.910  -0.925  22.804  0.00  0.00    +0.022 C 
ATOM     16  C   UNL     1       4.521   0.980  22.384  0.00  0.00    +0.022 C 
ATOM     18  C   UNL     1       3.705  -1.319  24.050  0.00  0.00    +0.002 C 
ATOM     19  C   UNL     1       5.312   0.583  23.630  0.00  0.00    +0.002 C 
ATOM     20  C   UNL     1       5.168  -0.904  23.939  0.00  0.00    +0.000 C 
ENDBRANCH   6  14
ENDBRANCH   3  21
ENDBRANCH  11   3
TORSDOF 7
ENDMDL
MODEL 2
REMARK VINA RESULT:      -2.2      2.251      5.384
REMARK  Name = 11867430
REMARK  9 active torsions:
REMARK  status: ('A' for Active; 'I' for Inactive)
REMARK    1  A    between atoms: O_3  and  C_11
REMARK    2  A    between atoms: O_3  and  C_21
REMARK    3  A    between atoms: N_5  and  C_10
REMARK    4  A    between atoms: N_5  and  C_17
REMARK    5  A    between atoms: N_6  and  C_14
REMARK    6  A    between atoms: N_7  and  C_27
REMARK    7  A    between atoms: N_7  and  C_28
REMARK    8  A    between atoms: N_7  and  C_29
REMARK    9  A    between atoms: C_17  and  C_22
REMARK                            x       y       z     vdW  Elec       q    Type
REMARK                         _______ _______ _______ _____ _____    ______ ____
ROOT
ATOM      1  O   UNL     1      -4.062   2.440  23.535  0.00  0.00    -0.369 OA
ATOM      2  O   UNL     1      -5.841   3.332  25.853  0.00  0.00    -0.369 OA
ATOM      8  C   UNL     1      -4.404   3.282  25.723  0.00  0.00    +0.170 C 
ATOM      9  C   UNL     1      -4.081   2.039  24.917  0.00  0.00    +0.191 C 
ATOM     10  C   UNL     1      -3.925   4.422  24.851  0.00  0.00    +0.111 C 
ATOM     11  C   UNL     1      -5.256   1.141  25.220  0.00  0.00    +0.235 C 
ATOM     12  C   UNL     1      -4.170   3.870  23.454  0.00  0.00    +0.181 C 
ATOM     13  C   UNL     1      -6.398   2.127  25.306  0.00  0.00    +0.207 C 
ENDROOT
BRANCH  10   5
ATOM      5  N   UNL     1      -2.498   4.680  25.040  0.00  0.00    -0.305 NA
ATOM     30  H   UNL     1      -2.377   5.571  25.524  0.00  0.00    +0.123 HD
BRANCH   5  17
ATOM     17  C   UNL     1      -1.887   3.633  25.845  0.00  0.00    +0.116 C 
BRANCH  17  22
ATOM     22  C   UNL     1      -0.911   2.810  25.047  0.00  0.00    -0.033 A 
ATOM     23  C   UNL     1      -1.295   2.271  23.818  0.00  0.00    +0.007 A 
ATOM     24  C   UNL     1       0.375   2.585  25.536  0.00  0.00    +0.007 A 
ATOM     25  C   UNL     1      -0.390   1.508  23.079  0.00  0.00    +0.023 A 
ATOM     26  C   UNL     1       1.279   1.822  24.797  0.00  0.00    +0.023 A 
ATOM     27  C   UNL     1       0.896   1.283  23.569  0.00  0.00    +0.029 A 
BRANCH  27   7
ATOM      7  N   UNL     1       1.810   0.511  22.822  0.00  0.00    -0.336 N 
ATOM     28  C   UNL     1       1.335  -0.496  21.894  0.00  0.00    +0.129 C 
ATOM     29  C   UNL     1       3.237   0.725  22.961  0.00  0.00    +0.129 C 
ENDBRANCH  27   7
ENDBRANCH  17  22
ENDBRANCH   5  17
ENDBRANCH  10   5
BRANCH  11   3
ATOM      3  O   UNL     1      -5.478   0.156  24.236  0.00  0.00    -0.442 OA
BRANCH   3  21
ATOM      4  O   UNL     1      -4.783  -1.914  23.524  0.00  0.00    -0.226 OA
ATOM      6  N   UNL     1      -4.003  -0.998  25.508  0.00  0.00    -0.278 N 
ATOM     21  C   UNL     1      -4.752  -1.008  24.351  0.00  0.00    +0.401 C 
ATOM     31  H   UNL     1      -4.108  -0.200  26.126  0.00  0.00    +0.152 HD
BRANCH   6  14
ATOM     14  C   UNL     1      -3.133  -2.081  25.911  0.00  0.00    +0.076 C 
ATOM     15  C   UNL     1      -2.069  -1.595  26.900  0.00  0.00    +0.022 C 
ATOM     16  C   UNL     1      -2.494  -2.757  24.694  0.00  0.00    +0.022 C 
ATOM     18  C   UNL     1      -1.007  -0.720  26.232  0.00  0.00    +0.002 C 
ATOM     19  C   UNL     1      -1.431  -1.881  24.029  0.00  0.00    +0.002 C 
ATOM     20  C   UNL     1      -0.377  -1.418  25.031  0.00  0.00    +0.000 C 
ENDBRANCH   6  14
ENDBRANCH   3  21
ENDBRANCH  11   3
TORSDOF 7
ENDMDL
MODEL 3
REMARK VINA RESULT:      -1.1      2.197      7.586
REMARK  Name = 11867430
REMARK  9 active torsions:
REMARK  status: ('A' for Active; 'I' for Inactive)
REMARK    1  A    between atoms: O_3  and  C_11
REMARK    2  A    between atoms: O_3  and  C_21
REMARK    3  A    between atoms: N_5  and  C_10
REMARK    4  A    between atoms: N_5  and  C_17
REMARK    5  A    between atoms: N_6  and  C_14
REMARK    6  A    between atoms: N_7  and  C_27
REMARK    7  A    between atoms: N_7  and  C_28
REMARK    8  A    between atoms: N_7  and  C_29
REMARK    9  A    between atoms: C_17  and  C_22
REMARK                            x       y       z     vdW  Elec       q    Type
REMARK                         _______ _______ _______ _____ _____    ______ ____
ROOT
ATOM      1  O   UNL     1      -2.496   0.177  25.828  0.00  0.00    -0.369 OA
ATOM      2  O   UNL     1      -2.666  -2.266  24.001  0.00  0.00    -0.369 OA
ATOM      8  C   UNL     1      -1.962  -1.014  23.851  0.00  0.00    +0.170 C 
ATOM      9  C   UNL     1      -2.854   0.061  24.439  0.00  0.00    +0.191 C 
ATOM     10  C   UNL     1      -0.735  -1.002  24.737  0.00  0.00    +0.111 C 
ATOM     11  C   UNL     1      -4.233  -0.529  24.267  0.00  0.00    +0.235 C 
ATOM     12  C   UNL     1      -1.330  -0.620  26.085  0.00  0.00    +0.181 C 
ATOM     13  C   UNL     1      -3.983  -2.000  24.507  0.00  0.00    +0.207 C 
ENDROOT
BRANCH  10   5
ATOM      5  N   UNL     1       0.224   0.015  24.310  0.00  0.00    -0.305 NA
ATOM     30  H   UNL     1       0.955   0.108  25.016  0.00  0.00    +0.123 HD
BRANCH   5  17
ATOM     17  C   UNL     1       0.846  -0.358  23.049  0.00  0.00    +0.116 C 
BRANCH  17  22
ATOM     22  C   UNL     1       2.348  -0.270  23.117  0.00  0.00    -0.033 A 
ATOM     23  C   UNL     1       3.094  -1.377  23.526  0.00  0.00    +0.007 A 
ATOM     24  C   UNL     1       2.993   0.918  22.773  0.00  0.00    +0.007 A 
ATOM     25  C   UNL     1       4.485  -1.295  23.588  0.00  0.00    +0.023 A 
ATOM     26  C   UNL     1       4.384   0.999  22.837  0.00  0.00    +0.023 A 
ATOM     27  C   UNL     1       5.130  -0.107  23.244  0.00  0.00    +0.029 A 
BRANCH  27   7
ATOM      7  N   UNL     1       6.537  -0.024  23.308  0.00  0.00    -0.336 N 
ATOM     28  C   UNL     1       7.361  -1.025  22.661  0.00  0.00    +0.129 C 
ATOM     29  C   UNL     1       7.176   1.071  24.011  0.00  0.00    +0.129 C 
ENDBRANCH  27   7
ENDBRANCH  17  22
ENDBRANCH   5  17
ENDBRANCH  10   5
BRANCH  11   3
ATOM      3  O   UNL     1      -5.187   0.000  25.160  0.00  0.00    -0.442 OA
BRANCH   3  21
ATOM      4  O   UNL     1      -6.556   1.789  24.711  0.00  0.00    -0.226 OA
ATOM      6  N   UNL     1      -4.349   2.094  25.358  0.00  0.00    -0.278 N 
ATOM     21  C   UNL     1      -5.463   1.344  25.046  0.00  0.00    +0.401 C 
ATOM     31  H   UNL     1      -3.494   1.593  25.576  0.00  0.00    +0.152 HD
BRANCH   6  14
ATOM     14  C   UNL     1      -4.321   3.540  25.332  0.00  0.00    +0.076 C 
ATOM     15  C   UNL     1      -3.848   4.058  23.970  0.00  0.00    +0.022 C 
ATOM     16  C   UNL     1      -3.458   4.096  26.469  0.00  0.00    +0.022 C 
ATOM     18  C   UNL     1      -2.354   3.823  23.743  0.00  0.00    +0.002 C 
ATOM     19  C   UNL     1      -1.965   3.861  26.238  0.00  0.00    +0.002 C 
ATOM     20  C   UNL     1      -1.515   4.394  24.880  0.00  0.00    +0.000 C 
ENDBRANCH   6  14
ENDBRANCH   3  21
ENDBRANCH  11   3
TORSDOF 7
ENDMDL
MODEL 4
REMARK VINA RESULT:      -0.1      1.940      6.977
REMARK  Name = 11867430
REMARK  9 active torsions:
REMARK  status: ('A' for Active; 'I' for Inactive)
REMARK    1  A    between atoms: O_3  and  C_11
REMARK    2  A    between atoms: O_3  and  C_21
REMARK    3  A    between atoms: N_5  and  C_10
REMARK    4  A    between atoms: N_5  and  C_17
REMARK    5  A    between atoms: N_6  and  C_14
REMARK    6  A    between atoms: N_7  and  C_27
REMARK    7  A    between atoms: N_7  and  C_28
REMARK    8  A    between atoms: N_7  and  C_29
REMARK    9  A    between atoms: C_17  and  C_22
REMARK                            x       y       z     vdW  Elec       q    Type
REMARK                         _______ _______ _______ _____ _____    ______ ____
ROOT
ATOM      1  O   UNL     1      -2.465   1.936  23.682  0.00  0.00    -0.369 OA
ATOM      2  O   UNL     1      -1.039   4.219  25.127  0.00  0.00    -0.369 OA
ATOM      8  C   UNL     1      -0.924   2.786  25.267  0.00  0.00    +0.170 C 
ATOM      9  C   UNL     1      -2.317   2.216  25.085  0.00  0.00    +0.191 C 
ATOM     10  C   UNL     1      -0.137   2.216  24.107  0.00  0.00    +0.111 C 
ATOM     11  C   UNL     1      -3.197   3.363  25.520  0.00  0.00    +0.235 C 
ATOM     12  C   UNL     1      -1.202   2.124  23.024  0.00  0.00    +0.181 C 
ATOM     13  C   UNL     1      -2.428   4.564  25.019  0.00  0.00    +0.207 C 
ENDROOT
BRANCH  10   5
ATOM      5  N   UNL     1       0.378   0.882  24.413  0.00  0.00    -0.305 NA
ATOM     30  H   UNL     1      -0.372   0.313  24.808  0.00  0.00    +0.123 HD
BRANCH   5  17
ATOM     17  C   UNL     1       0.865   0.228  23.208  0.00  0.00    +0.116 C 
BRANCH  17  22
ATOM     22  C   UNL     1       2.366   0.109  23.202  0.00  0.00    -0.033 A 
ATOM     23  C   UNL     1       2.974  -1.077  23.616  0.00  0.00    +0.007 A 
ATOM     24  C   UNL     1       3.149   1.185  22.784  0.00  0.00    +0.007 A 
ATOM     25  C   UNL     1       4.365  -1.186  23.610  0.00  0.00    +0.023 A 
ATOM     26  C   UNL     1       4.539   1.075  22.779  0.00  0.00    +0.023 A 
ATOM     27  C   UNL     1       5.147  -0.110  23.192  0.00  0.00    +0.029 A 
BRANCH  27   7
ATOM      7  N   UNL     1       6.553  -0.221  23.187  0.00  0.00    -0.336 N 
ATOM     28  C   UNL     1       7.367   0.738  23.908  0.00  0.00    +0.129 C 
ATOM     29  C   UNL     1       7.202  -1.303  22.473  0.00  0.00    +0.129 C 
ENDBRANCH  27   7
ENDBRANCH  17  22
ENDBRANCH   5  17
ENDBRANCH  10   5
BRANCH  11   3
ATOM      3  O   UNL     1      -4.500   3.306  24.985  0.00  0.00    -0.442 OA
BRANCH   3  21
ATOM      4  O   UNL     1      -6.362   1.962  24.945  0.00  0.00    -0.226 OA
ATOM      6  N   UNL     1      -4.245   1.077  25.287  0.00  0.00    -0.278 N 
ATOM     21  C   UNL     1      -5.148   2.094  25.063  0.00  0.00    +0.401 C 
ATOM     31  H   UNL     1      -3.271   1.335  25.409  0.00  0.00    +0.152 HD
BRANCH   6  14
ATOM     14  C   UNL     1      -4.618  -0.315  25.417  0.00  0.00    +0.076 C 
ATOM     15  C   UNL     1      -3.668  -1.054  26.365  0.00  0.00    +0.022 C 
ATOM     16  C   UNL     1      -4.681  -0.998  24.047  0.00  0.00    +0.022 C 
ATOM     18  C   UNL     1      -2.284  -1.272  25.752  0.00  0.00    +0.002 C 
ATOM     19  C   UNL     1      -3.296  -1.217  23.439  0.00  0.00    +0.002 C 
ATOM     20  C   UNL     1      -2.372  -1.964  24.396  0.00  0.00    +0.000 C 
ENDBRANCH   6  14
ENDBRANCH   3  21
ENDBRANCH  11   3
TORSDOF 7
ENDMDL
MODEL 5
REMARK VINA RESULT:      -0.1      1.473      2.258
REMARK  Name = 11867430
REMARK  9 active torsions:
REMARK  status: ('A' for Active; 'I' for Inactive)
REMARK    1  A    between atoms: O_3  and  C_11
REMARK    2  A    between atoms: O_3  and  C_21
REMARK    3  A    between atoms: N_5  and  C_10
REMARK    4  A    between atoms: N_5  and  C_17
REMARK    5  A    between atoms: N_6  and  C_14
REMARK    6  A    between atoms: N_7  and  C_27
REMARK    7  A    between atoms: N_7  and  C_28
REMARK    8  A    between atoms: N_7  and  C_29
REMARK    9  A    between atoms: C_17  and  C_22
REMARK                            x       y       z     vdW  Elec       q    Type
REMARK                         _______ _______ _______ _____ _____    ______ ____
ROOT
ATOM      1  O   UNL     1      -2.517   3.048  26.075  0.00  0.00    -0.369 OA
ATOM      2  O   UNL     1      -2.405   5.589  24.382  0.00  0.00    -0.369 OA
ATOM      8  C   UNL     1      -3.079   4.331  24.165  0.00  0.00    +0.170 C 
ATOM      9  C   UNL     1      -2.163   3.246  24.695  0.00  0.00    +0.191 C 
ATOM     10  C   UNL     1      -4.305   4.243  25.047  0.00  0.00    +0.111 C 
ATOM     11  C   UNL     1      -0.798   3.877  24.555  0.00  0.00    +0.235 C 
ATOM     12  C   UNL     1      -3.702   3.803  26.374  0.00  0.00    +0.181 C 
ATOM     13  C   UNL     1      -1.082   5.327  24.874  0.00  0.00    +0.207 C 
ENDROOT
BRANCH  10   5
ATOM      5  N   UNL     1      -5.241   3.228  24.566  0.00  0.00    -0.305 NA
ATOM     30  H   UNL     1      -4.852   2.775  23.738  0.00  0.00    +0.123 HD
BRANCH   5  17
ATOM     17  C   UNL     1      -5.469   2.212  25.582  0.00  0.00    +0.116 C 
BRANCH  17  22
ATOM     22  C   UNL     1      -4.744   0.930  25.266  0.00  0.00    -0.033 A 
ATOM     23  C   UNL     1      -4.329   0.090  26.300  0.00  0.00    +0.007 A 
ATOM     24  C   UNL     1      -4.487   0.583  23.940  0.00  0.00    +0.007 A 
ATOM     25  C   UNL     1      -3.659  -1.097  26.007  0.00  0.00    +0.023 A 
ATOM     26  C   UNL     1      -3.816  -0.604  23.647  0.00  0.00    +0.023 A 
ATOM     27  C   UNL     1      -3.402  -1.444  24.681  0.00  0.00    +0.029 A 
BRANCH  27   7
ATOM      7  N   UNL     1      -2.722  -2.644  24.384  0.00  0.00    -0.336 N 
ATOM     28  C   UNL     1      -1.325  -2.803  24.735  0.00  0.00    +0.129 C 
ATOM     29  C   UNL     1      -3.417  -3.740  23.738  0.00  0.00    +0.129 C 
ENDBRANCH  27   7
ENDBRANCH  17  22
ENDBRANCH   5  17
ENDBRANCH  10   5
BRANCH  11   3
ATOM      3  O   UNL     1       0.168   3.323  25.420  0.00  0.00    -0.442 OA
BRANCH   3  21
ATOM      4  O   UNL     1      -0.255   1.286  26.393  0.00  0.00    -0.226 OA
ATOM      6  N   UNL     1       0.898   1.446  24.386  0.00  0.00    -0.278 N 
ATOM     21  C   UNL     1       0.228   1.949  25.481  0.00  0.00    +0.401 C 
ATOM     31  H   UNL     1       1.287   2.114  23.728  0.00  0.00    +0.152 HD
BRANCH   6  14
ATOM     14  C   UNL     1       1.126   0.035  24.162  0.00  0.00    +0.076 C 
ATOM     15  C   UNL     1       2.527  -0.214  23.595  0.00  0.00    +0.022 C 
ATOM     16  C   UNL     1       0.045  -0.560  23.253  0.00  0.00    +0.022 C 
ATOM     18  C   UNL     1       2.661   0.246  22.143  0.00  0.00    +0.002 C 
ATOM     19  C   UNL     1       0.183  -0.100  21.802  0.00  0.00    +0.002 C 
ATOM     20  C   UNL     1       1.582  -0.368  21.257  0.00  0.00    +0.000 C 
ENDBRANCH   6  14
ENDBRANCH   3  21
ENDBRANCH  11   3
TORSDOF 7
ENDMDL
