MODEL 1
REMARK VINA RESULT:      -2.6      0.000      0.000
REMARK  Name = 44716532
REMARK  12 active torsions:
REMARK  status: ('A' for Active; 'I' for Inactive)
REMARK    1  A    between atoms: O_2  and  C_11
REMARK    2  A    between atoms: O_3  and  C_12
REMARK    3  A    between atoms: N_8  and  C_16
REMARK    4  A    between atoms: N_9  and  C_19
REMARK    5  A    between atoms: N_10  and  C_20
REMARK    6  A    between atoms: N_10  and  C_27
REMARK    7  A    between atoms: N_10  and  C_28
REMARK    8  A    between atoms: C_13  and  C_15
REMARK    9  A    between atoms: C_14  and  C_16
REMARK   10  A    between atoms: C_15  and  C_17
REMARK   11  A    between atoms: C_18  and  C_21
REMARK   12  A    between atoms: C_19  and  C_20
REMARK                            x       y       z     vdW  Elec       q    Type
REMARK                         _______ _______ _______ _____ _____    ______ ____
ROOT
ATOM      1  O   UNL     1      -3.039   2.938  23.915  0.00  0.00    -0.366 OA
ATOM     11  C   UNL     1      -2.217   4.125  25.786  0.00  0.00    +0.175 C 
ATOM     12  C   UNL     1      -1.054   3.892  24.843  0.00  0.00    +0.176 C 
ATOM     13  C   UNL     1      -3.412   3.958  24.856  0.00  0.00    +0.158 C 
ATOM     14  C   UNL     1      -1.600   2.865  23.850  0.00  0.00    +0.167 C 
ENDROOT
BRANCH  11   2
ATOM      2  O   UNL     1      -2.222   3.130  26.801  0.00  0.00    -0.387 OA
ATOM     30  H   UNL     1      -1.647   3.444  27.519  0.00  0.00    +0.210 HD
ENDBRANCH  11   2
BRANCH  12   3
ATOM      3  O   UNL     1      -0.776   5.098  24.133  0.00  0.00    -0.387 OA
ATOM     31  H   UNL     1      -1.498   5.721  24.327  0.00  0.00    +0.210 HD
ENDBRANCH  12   3
BRANCH  13  15
ATOM     15  C   UNL     1      -4.713   3.565  25.532  0.00  0.00    +0.130 C 
BRANCH  15  17
ATOM      4  O   UNL     1      -6.319   2.003  24.619  0.00  0.00    -0.276 OA
ATOM      9  N   UNL     1      -4.246   1.218  25.318  0.00  0.00    -0.314 N 
ATOM     17  C   UNL     1      -5.205   2.196  25.098  0.00  0.00    +0.216 C 
ATOM     33  H   UNL     1      -3.352   1.474  25.725  0.00  0.00    +0.149 HD
BRANCH   9  19
ATOM     19  C   UNL     1      -4.455  -0.176  24.999  0.00  0.00    +0.119 C 
BRANCH  19  20
ATOM     20  C   UNL     1      -3.502  -1.068  25.780  0.00  0.00    +0.102 C 
BRANCH  20  10
ATOM     10  N   UNL     1      -3.204  -2.278  25.025  0.00  0.00    -0.307 NA
ATOM     27  C   UNL     1      -1.812  -2.276  24.572  0.00  0.00    +0.104 C 
ATOM     28  C   UNL     1      -4.110  -2.407  23.881  0.00  0.00    +0.104 C 
ENDBRANCH  20  10
ENDBRANCH  19  20
ENDBRANCH   9  19
ENDBRANCH  15  17
ENDBRANCH  13  15
BRANCH  14  16
ATOM     16  C   UNL     1      -1.192   1.436  24.179  0.00  0.00    +0.138 C 
BRANCH  16   8
ATOM      5  O   UNL     1       0.154  -0.379  22.408  0.00  0.00    -0.270 OA
ATOM      8  N   UNL     1       0.224   1.259  24.050  0.00  0.00    -0.309 N 
ATOM     18  C   UNL     1       0.793   0.351  23.161  0.00  0.00    +0.244 C 
ATOM     32  H   UNL     1       0.807   1.791  24.687  0.00  0.00    +0.149 HD
BRANCH  18  21
ATOM      6  O   UNL     1       5.062  -1.957  24.037  0.00  0.00    -0.453 OA
ATOM      7  O   UNL     1       6.365  -0.094  23.236  0.00  0.00    -0.453 OA
ATOM     21  C   UNL     1       2.277   0.268  23.168  0.00  0.00    +0.040 A 
ATOM     22  C   UNL     1       2.904  -0.890  23.636  0.00  0.00    +0.062 A 
ATOM     23  C   UNL     1       3.037   1.354  22.701  0.00  0.00    +0.017 A 
ATOM     24  C   UNL     1       4.283  -0.921  23.621  0.00  0.00    +0.167 A 
ATOM     25  C   UNL     1       5.026   0.142  23.165  0.00  0.00    +0.166 A 
ATOM     26  C   UNL     1       4.432   1.297  22.697  0.00  0.00    +0.050 A 
ATOM     29  C   UNL     1       6.380  -1.426  23.790  0.00  0.00    +0.466 C 
ENDBRANCH  18  21
ENDBRANCH  16   8
ENDBRANCH  14  16
TORSDOF 10
ENDMDL
MODEL 2
REMARK VINA RESULT:      -2.1      2.213      7.772
REMARK  Name = 44716532
REMARK  12 active torsions:
REMARK  status: ('A' for Active; 'I' for Inactive)
REMARK    1  A    between atoms: O_2  and  C_11
REMARK    2  A    between atoms: O_3  and  C_12
REMARK    3  A    between atoms: N_8  and  C_16
REMARK    4  A    between atoms: N_9  and  C_19
REMARK    5  A    between atoms: N_10  and  C_20
REMARK    6  A    between atoms: N_10  and  C_27
REMARK    7  A    between atoms: N_10  and  C_28
REMARK    8  A    between atoms: C_13  and  C_15
REMARK    9  A    between atoms: C_14  and  C_16
REMARK   10  A    between atoms: C_15  and  C_17
REMARK   11  A    between atoms: C_18  and  C_21
REMARK   12  A    between atoms: C_19  and  C_20
REMARK                            x       y       z     vdW  Elec       q    Type
REMARK                         _______ _______ _______ _____ _____    ______ ____
ROOT
ATOM      1  O   UNL     1      -1.392  -1.846  23.647  0.00  0.00    -0.366 OA
ATOM     11  C   UNL     1      -0.199  -1.221  25.588  0.00  0.00    +0.175 C 
ATOM     12  C   UNL     1      -0.641  -2.659  25.764  0.00  0.00    +0.176 C 
ATOM     13  C   UNL     1      -0.272  -1.054  24.075  0.00  0.00    +0.158 C 
ATOM     14  C   UNL     1      -1.653  -2.862  24.637  0.00  0.00    +0.167 C 
ENDROOT
BRANCH  11   2
ATOM      2  O   UNL     1      -1.115  -0.350  26.239  0.00  0.00    -0.387 OA
ATOM     30  H   UNL     1      -1.099   0.498  25.763  0.00  0.00    +0.210 HD
ENDBRANCH  11   2
BRANCH  12   3
ATOM      3  O   UNL     1       0.468  -3.523  25.532  0.00  0.00    -0.387 OA
ATOM     31  H   UNL     1       0.590  -3.588  24.569  0.00  0.00    +0.210 HD
ENDBRANCH  12   3
BRANCH  13  15
ATOM     15  C   UNL     1      -0.448   0.371  23.584  0.00  0.00    +0.130 C 
BRANCH  15  17
ATOM      4  O   UNL     1       0.856   2.255  24.361  0.00  0.00    -0.276 OA
ATOM      9  N   UNL     1       1.889   0.614  23.080  0.00  0.00    -0.314 N 
ATOM     17  C   UNL     1       0.815   1.200  23.735  0.00  0.00    +0.216 C 
ATOM     33  H   UNL     1       1.756  -0.262  22.583  0.00  0.00    +0.149 HD
BRANCH   9  19
ATOM     19  C   UNL     1       3.212   1.195  23.060  0.00  0.00    +0.119 C 
BRANCH  19  20
ATOM     20  C   UNL     1       4.188   0.314  22.294  0.00  0.00    +0.102 C 
BRANCH  20  10
ATOM     10  N   UNL     1       5.123  -0.324  23.212  0.00  0.00    -0.307 NA
ATOM     27  C   UNL     1       4.507  -1.489  23.851  0.00  0.00    +0.104 C 
ATOM     28  C   UNL     1       5.580   0.628  24.226  0.00  0.00    +0.104 C 
ENDBRANCH  20  10
ENDBRANCH  19  20
ENDBRANCH   9  19
ENDBRANCH  15  17
ENDBRANCH  13  15
BRANCH  14  16
ATOM     16  C   UNL     1      -3.098  -2.707  25.091  0.00  0.00    +0.138 C 
BRANCH  16   8
ATOM      5  O   UNL     1      -4.369  -0.897  23.260  0.00  0.00    -0.270 OA
ATOM      8  N   UNL     1      -3.421  -1.332  25.332  0.00  0.00    -0.309 N 
ATOM     18  C   UNL     1      -4.040  -0.523  24.383  0.00  0.00    +0.244 C 
ATOM     32  H   UNL     1      -3.122  -0.945  26.221  0.00  0.00    +0.149 HD
BRANCH  18  21
ATOM      6  O   UNL     1      -2.569   4.078  25.375  0.00  0.00    -0.453 OA
ATOM      7  O   UNL     1      -4.814   4.813  25.856  0.00  0.00    -0.453 OA
ATOM     21  C   UNL     1      -4.282   0.888  24.778  0.00  0.00    +0.040 A 
ATOM     22  C   UNL     1      -3.208   1.777  24.866  0.00  0.00    +0.062 A 
ATOM     23  C   UNL     1      -5.591   1.317  25.059  0.00  0.00    +0.017 A 
ATOM     24  C   UNL     1      -3.482   3.078  25.236  0.00  0.00    +0.167 A 
ATOM     25  C   UNL     1      -4.763   3.497  25.511  0.00  0.00    +0.166 A 
ATOM     26  C   UNL     1      -5.842   2.640  25.431  0.00  0.00    +0.050 A 
ATOM     29  C   UNL     1      -3.420   5.174  25.767  0.00  0.00    +0.466 C 
ENDBRANCH  18  21
ENDBRANCH  16   8
ENDBRANCH  14  16
TORSDOF 10
ENDMDL
MODEL 3
REMARK VINA RESULT:      -2.0      1.750      3.750
REMARK  Name = 44716532
REMARK  12 active torsions:
REMARK  status: ('A' for Active; 'I' for Inactive)
REMARK    1  A    between atoms: O_2  and  C_11
REMARK    2  A    between atoms: O_3  and  C_12
REMARK    3  A    between atoms: N_8  and  C_16
REMARK    4  A    between atoms: N_9  and  C_19
REMARK    5  A    between atoms: N_10  and  C_20
REMARK    6  A    between atoms: N_10  and  C_27
REMARK    7  A    between atoms: N_10  and  C_28
REMARK    8  A    between atoms: C_13  and  C_15
REMARK    9  A    between atoms: C_14  and  C_16
REMARK   10  A    between atoms: C_15  and  C_17
REMARK   11  A    between atoms: C_18  and  C_21
REMARK   12  A    between atoms: C_19  and  C_20
REMARK                            x       y       z     vdW  Elec       q    Type
REMARK                         _______ _______ _______ _____ _____    ______ ____
ROOT
ATOM      1  O   UNL     1      -3.006   0.516  25.370  0.00  0.00    -0.366 OA
ATOM     11  C   UNL     1      -3.986  -1.406  24.406  0.00  0.00    +0.175 C 
ATOM     12  C   UNL     1      -2.502  -1.670  24.550  0.00  0.00    +0.176 C 
ATOM     13  C   UNL     1      -4.201  -0.279  25.410  0.00  0.00    +0.158 C 
ATOM     14  C   UNL     1      -1.922  -0.292  24.868  0.00  0.00    +0.167 C 
ENDROOT
BRANCH  11   2
ATOM      2  O   UNL     1      -4.274  -0.968  23.085  0.00  0.00    -0.387 OA
ATOM     30  H   UNL     1      -4.036  -0.027  23.031  0.00  0.00    +0.210 HD
ENDBRANCH  11   2
BRANCH  12   3
ATOM      3  O   UNL     1      -2.282  -2.519  25.675  0.00  0.00    -0.387 OA
ATOM     31  H   UNL     1      -2.425  -3.435  25.380  0.00  0.00    +0.210 HD
ENDBRANCH  12   3
BRANCH  13  15
ATOM     15  C   UNL     1      -5.404   0.607  25.146  0.00  0.00    +0.130 C 
BRANCH  15  17
ATOM      4  O   UNL     1      -5.666   2.665  26.390  0.00  0.00    -0.276 OA
ATOM      9  N   UNL     1      -4.222   2.619  24.570  0.00  0.00    -0.314 N 
ATOM     17  C   UNL     1      -5.132   2.067  25.460  0.00  0.00    +0.216 C 
ATOM     33  H   UNL     1      -3.836   2.044  23.826  0.00  0.00    +0.149 HD
BRANCH   9  19
ATOM     19  C   UNL     1      -3.787   3.995  24.638  0.00  0.00    +0.119 C 
BRANCH  19  20
ATOM     20  C   UNL     1      -2.689   4.175  25.676  0.00  0.00    +0.102 C 
BRANCH  20  10
ATOM     10  N   UNL     1      -1.404   3.757  25.131  0.00  0.00    -0.307 NA
ATOM     27  C   UNL     1      -0.669   2.946  26.104  0.00  0.00    +0.104 C 
ATOM     28  C   UNL     1      -0.607   4.922  24.738  0.00  0.00    +0.104 C 
ENDBRANCH  20  10
ENDBRANCH  19  20
ENDBRANCH   9  19
ENDBRANCH  15  17
ENDBRANCH  13  15
BRANCH  14  16
ATOM     16  C   UNL     1      -1.344   0.413  23.648  0.00  0.00    +0.138 C 
BRANCH  16   8
ATOM      5  O   UNL     1       0.473  -0.500  21.622  0.00  0.00    -0.270 OA
ATOM      8  N   UNL     1       0.087   0.452  23.702  0.00  0.00    -0.309 N 
ATOM     18  C   UNL     1       0.895  -0.014  22.669  0.00  0.00    +0.244 C 
ATOM     32  H   UNL     1       0.499   0.789  24.566  0.00  0.00    +0.149 HD
BRANCH  18  21
ATOM      6  O   UNL     1       5.222  -1.814  24.203  0.00  0.00    -0.453 OA
ATOM      7  O   UNL     1       6.410   0.181  23.555  0.00  0.00    -0.453 OA
ATOM     21  C   UNL     1       2.361   0.072  22.891  0.00  0.00    +0.040 A 
ATOM     22  C   UNL     1       3.039  -1.003  23.471  0.00  0.00    +0.062 A 
ATOM     23  C   UNL     1       3.055   1.235  22.513  0.00  0.00    +0.017 A 
ATOM     24  C   UNL     1       4.400  -0.877  23.655  0.00  0.00    +0.167 A 
ATOM     25  C   UNL     1       5.078   0.262  23.286  0.00  0.00    +0.166 A 
ATOM     26  C   UNL     1       4.433   1.338  22.711  0.00  0.00    +0.050 A 
ATOM     29  C   UNL     1       6.494  -1.137  24.135  0.00  0.00    +0.466 C 
ENDBRANCH  18  21
ENDBRANCH  16   8
ENDBRANCH  14  16
TORSDOF 10
ENDMDL
MODEL 4
REMARK VINA RESULT:      -1.8      2.461      6.530
REMARK  Name = 44716532
REMARK  12 active torsions:
REMARK  status: ('A' for Active; 'I' for Inactive)
REMARK    1  A    between atoms: O_2  and  C_11
REMARK    2  A    between atoms: O_3  and  C_12
REMARK    3  A    between atoms: N_8  and  C_16
REMARK    4  A    between atoms: N_9  and  C_19
REMARK    5  A    between atoms: N_10  and  C_20
REMARK    6  A    between atoms: N_10  and  C_27
REMARK    7  A    between atoms: N_10  and  C_28
REMARK    8  A    between atoms: C_13  and  C_15
REMARK    9  A    between atoms: C_14  and  C_16
REMARK   10  A    between atoms: C_15  and  C_17
REMARK   11  A    between atoms: C_18  and  C_21
REMARK   12  A    between atoms: C_19  and  C_20
REMARK                            x       y       z     vdW  Elec       q    Type
REMARK                         _______ _______ _______ _____ _____    ______ ____
ROOT
ATOM      1  O   UNL     1      -1.751   3.526  26.348  0.00  0.00    -0.366 OA
ATOM     11  C   UNL     1      -0.570   3.922  24.341  0.00  0.00    +0.175 C 
ATOM     12  C   UNL     1      -1.601   5.021  24.491  0.00  0.00    +0.176 C 
ATOM     13  C   UNL     1      -0.439   3.418  25.773  0.00  0.00    +0.158 C 
ATOM     14  C   UNL     1      -2.505   4.512  25.614  0.00  0.00    +0.167 C 
ENDROOT
BRANCH  11   2
ATOM      2  O   UNL     1      -1.072   2.901  23.488  0.00  0.00    -0.387 OA
ATOM     30  H   UNL     1      -0.327   2.574  22.956  0.00  0.00    +0.210 HD
ENDBRANCH  11   2
BRANCH  12   3
ATOM      3  O   UNL     1      -0.957   6.212  24.939  0.00  0.00    -0.387 OA
ATOM     31  H   UNL     1      -0.909   6.819  24.181  0.00  0.00    +0.210 HD
ENDBRANCH  12   3
BRANCH  13  15
ATOM     15  C   UNL     1       0.057   1.991  25.918  0.00  0.00    +0.130 C 
BRANCH  15  17
ATOM      4  O   UNL     1      -1.392   0.751  24.431  0.00  0.00    -0.276 OA
ATOM      9  N   UNL     1       0.882   0.859  23.966  0.00  0.00    -0.314 N 
ATOM     17  C   UNL     1      -0.260   1.137  24.704  0.00  0.00    +0.216 C 
ATOM     33  H   UNL     1       1.780   1.220  24.274  0.00  0.00    +0.149 HD
BRANCH   9  19
ATOM     19  C   UNL     1       0.866   0.061  22.761  0.00  0.00    +0.119 C 
BRANCH  19  20
ATOM     20  C   UNL     1       2.262  -0.068  22.168  0.00  0.00    +0.102 C 
BRANCH  20  10
ATOM     10  N   UNL     1       3.271   0.119  23.202  0.00  0.00    -0.307 NA
ATOM     27  C   UNL     1       4.317   1.035  22.745  0.00  0.00    +0.104 C 
ATOM     28  C   UNL     1       3.857  -1.167  23.589  0.00  0.00    +0.104 C 
ENDBRANCH  20  10
ENDBRANCH  19  20
ENDBRANCH   9  19
ENDBRANCH  15  17
ENDBRANCH  13  15
BRANCH  14  16
ATOM     16  C   UNL     1      -3.774   3.842  25.107  0.00  0.00    +0.138 C 
BRANCH  16   8
ATOM      5  O   UNL     1      -5.710   1.823  25.757  0.00  0.00    -0.270 OA
ATOM      8  N   UNL     1      -3.602   2.424  24.995  0.00  0.00    -0.309 N 
ATOM     18  C   UNL     1      -4.598   1.513  25.334  0.00  0.00    +0.244 C 
ATOM     32  H   UNL     1      -2.685   2.100  24.707  0.00  0.00    +0.149 HD
BRANCH  18  21
ATOM      6  O   UNL     1      -4.520  -2.759  22.871  0.00  0.00    -0.453 OA
ATOM      7  O   UNL     1      -3.356  -3.894  24.651  0.00  0.00    -0.453 OA
ATOM     21  C   UNL     1      -4.253   0.076  25.187  0.00  0.00    +0.040 A 
ATOM     22  C   UNL     1      -4.604  -0.605  24.018  0.00  0.00    +0.062 A 
ATOM     23  C   UNL     1      -3.575  -0.587  26.224  0.00  0.00    +0.017 A 
ATOM     24  C   UNL     1      -4.261  -1.938  23.926  0.00  0.00    +0.167 A 
ATOM     25  C   UNL     1      -3.597  -2.586  24.942  0.00  0.00    +0.166 A 
ATOM     26  C   UNL     1      -3.239  -1.938  26.106  0.00  0.00    +0.050 A 
ATOM     29  C   UNL     1      -3.943  -3.996  23.337  0.00  0.00    +0.466 C 
ENDBRANCH  18  21
ENDBRANCH  16   8
ENDBRANCH  14  16
TORSDOF 10
ENDMDL
MODEL 5
REMARK VINA RESULT:      -1.6      2.462      5.621
REMARK  Name = 44716532
REMARK  12 active torsions:
REMARK  status: ('A' for Active; 'I' for Inactive)
REMARK    1  A    between atoms: O_2  and  C_11
REMARK    2  A    between atoms: O_3  and  C_12
REMARK    3  A    between atoms: N_8  and  C_16
REMARK    4  A    between atoms: N_9  and  C_19
REMARK    5  A    between atoms: N_10  and  C_20
REMARK    6  A    between atoms: N_10  and  C_27
REMARK    7  A    between atoms: N_10  and  C_28
REMARK    8  A    between atoms: C_13  and  C_15
REMARK    9  A    between atoms: C_14  and  C_16
REMARK   10  A    between atoms: C_15  and  C_17
REMARK   11  A    between atoms: C_18  and  C_21
REMARK   12  A    between atoms: C_19  and  C_20
REMARK                            x       y       z     vdW  Elec       q    Type
REMARK                         _______ _______ _______ _____ _____    ______ ____
ROOT
ATOM      1  O   UNL     1      -3.793   3.951  26.357  0.00  0.00    -0.366 OA
ATOM     11  C   UNL     1      -3.036   3.924  24.119  0.00  0.00    +0.175 C 
ATOM     12  C   UNL     1      -4.504   4.298  24.103  0.00  0.00    +0.176 C 
ATOM     13  C   UNL     1      -2.644   4.261  25.553  0.00  0.00    +0.158 C 
ATOM     14  C   UNL     1      -4.969   3.979  25.523  0.00  0.00    +0.167 C 
ENDROOT
BRANCH  11   2
ATOM      2  O   UNL     1      -2.888   2.533  23.867  0.00  0.00    -0.387 OA
ATOM     30  H   UNL     1      -2.007   2.271  24.183  0.00  0.00    +0.210 HD
ENDBRANCH  11   2
BRANCH  12   3
ATOM      3  O   UNL     1      -4.628   5.703  23.894  0.00  0.00    -0.387 OA
ATOM     31  H   UNL     1      -5.579   5.905  23.842  0.00  0.00    +0.210 HD
ENDBRANCH  12   3
BRANCH  13  15
ATOM     15  C   UNL     1      -1.438   3.512  26.091  0.00  0.00    +0.130 C 
BRANCH  15  17
ATOM      4  O   UNL     1      -0.016   4.139  24.237  0.00  0.00    -0.276 OA
ATOM      9  N   UNL     1       0.109   1.976  25.079  0.00  0.00    -0.314 N 
ATOM     17  C   UNL     1      -0.378   3.275  25.030  0.00  0.00    +0.216 C 
ATOM     33  H   UNL     1      -0.258   1.329  25.771  0.00  0.00    +0.149 HD
BRANCH   9  19
ATOM     19  C   UNL     1       1.124   1.481  24.178  0.00  0.00    +0.119 C 
BRANCH  19  20
ATOM     20  C   UNL     1       0.541   0.481  23.189  0.00  0.00    +0.102 C 
BRANCH  20  10
ATOM     10  N   UNL     1       1.603  -0.316  22.589  0.00  0.00    -0.307 NA
ATOM     27  C   UNL     1       2.871   0.415  22.606  0.00  0.00    +0.104 C 
ATOM     28  C   UNL     1       1.253  -0.694  21.219  0.00  0.00    +0.104 C 
ENDBRANCH  20  10
ENDBRANCH  19  20
ENDBRANCH   9  19
ENDBRANCH  15  17
ENDBRANCH  13  15
BRANCH  14  16
ATOM     16  C   UNL     1      -5.654   2.624  25.642  0.00  0.00    +0.138 C 
BRANCH  16   8
ATOM      5  O   UNL     1      -6.070   0.142  24.260  0.00  0.00    -0.270 OA
ATOM      8  N   UNL     1      -4.711   1.554  25.502  0.00  0.00    -0.309 N 
ATOM     18  C   UNL     1      -4.999   0.380  24.812  0.00  0.00    +0.244 C 
ATOM     32  H   UNL     1      -3.826   1.663  25.986  0.00  0.00    +0.149 HD
BRANCH  18  21
ATOM      6  O   UNL     1      -0.442  -1.241  25.777  0.00  0.00    -0.453 OA
ATOM      7  O   UNL     1      -0.869  -3.386  24.765  0.00  0.00    -0.453 OA
ATOM     21  C   UNL     1      -3.923  -0.645  24.781  0.00  0.00    +0.040 A 
ATOM     22  C   UNL     1      -2.676  -0.357  25.340  0.00  0.00    +0.062 A 
ATOM     23  C   UNL     1      -4.171  -1.896  24.191  0.00  0.00    +0.017 A 
ATOM     24  C   UNL     1      -1.709  -1.340  25.289  0.00  0.00    +0.167 A 
ATOM     25  C   UNL     1      -1.952  -2.565  24.711  0.00  0.00    +0.166 A 
ATOM     26  C   UNL     1      -3.175  -2.874  24.152  0.00  0.00    +0.050 A 
ATOM     29  C   UNL     1       0.084  -2.541  25.443  0.00  0.00    +0.466 C 
ENDBRANCH  18  21
ENDBRANCH  16   8
ENDBRANCH  14  16
TORSDOF 10
ENDMDL
MODEL 6
REMARK VINA RESULT:      -0.4      1.910      6.910
REMARK  Name = 44716532
REMARK  12 active torsions:
REMARK  status: ('A' for Active; 'I' for Inactive)
REMARK    1  A    between atoms: O_2  and  C_11
REMARK    2  A    between atoms: O_3  and  C_12
REMARK    3  A    between atoms: N_8  and  C_16
REMARK    4  A    between atoms: N_9  and  C_19
REMARK    5  A    between atoms: N_10  and  C_20
REMARK    6  A    between atoms: N_10  and  C_27
REMARK    7  A    between atoms: N_10  and  C_28
REMARK    8  A    between atoms: C_13  and  C_15
REMARK    9  A    between atoms: C_14  and  C_16
REMARK   10  A    between atoms: C_15  and  C_17
REMARK   11  A    between atoms: C_18  and  C_21
REMARK   12  A    between atoms: C_19  and  C_20
REMARK                            x       y       z     vdW  Elec       q    Type
REMARK                         _______ _______ _______ _____ _____    ______ ____
ROOT
ATOM      1  O   UNL     1       1.087   0.720  24.320  0.00  0.00    -0.366 OA
ATOM     11  C   UNL     1       2.205  -0.162  22.434  0.00  0.00    +0.175 C 
ATOM     12  C   UNL     1       2.888   1.137  22.806  0.00  0.00    +0.176 C 
ATOM     13  C   UNL     1       1.496  -0.526  23.733  0.00  0.00    +0.158 C 
ATOM     14  C   UNL     1       1.920   1.777  23.802  0.00  0.00    +0.167 C 
ENDROOT
BRANCH  11   2
ATOM      2  O   UNL     1       1.266   0.066  21.392  0.00  0.00    -0.387 OA
ATOM     30  H   UNL     1       1.342   0.999  21.130  0.00  0.00    +0.210 HD
ENDBRANCH  11   2
BRANCH  12   3
ATOM      3  O   UNL     1       4.107   0.849  23.487  0.00  0.00    -0.387 OA
ATOM     31  H   UNL     1       3.943   0.967  24.439  0.00  0.00    +0.210 HD
ENDBRANCH  12   3
BRANCH  13  15
ATOM     15  C   UNL     1       0.288  -1.432  23.584  0.00  0.00    +0.130 C 
BRANCH  15  17
ATOM      4  O   UNL     1      -0.374  -2.378  25.709  0.00  0.00    -0.276 OA
ATOM      9  N   UNL     1      -1.488  -0.502  24.910  0.00  0.00    -0.314 N 
ATOM     17  C   UNL     1      -0.540  -1.514  24.854  0.00  0.00    +0.216 C 
ATOM     33  H   UNL     1      -1.552   0.167  24.149  0.00  0.00    +0.149 HD
BRANCH   9  19
ATOM     19  C   UNL     1      -2.412  -0.347  26.010  0.00  0.00    +0.119 C 
BRANCH  19  20
ATOM     20  C   UNL     1      -3.687  -1.142  25.773  0.00  0.00    +0.102 C 
BRANCH  20  10
ATOM     10  N   UNL     1      -3.571  -1.935  24.556  0.00  0.00    -0.307 NA
ATOM     27  C   UNL     1      -4.639  -1.595  23.613  0.00  0.00    +0.104 C 
ATOM     28  C   UNL     1      -3.607  -3.366  24.867  0.00  0.00    +0.104 C 
ENDBRANCH  20  10
ENDBRANCH  19  20
ENDBRANCH   9  19
ENDBRANCH  15  17
ENDBRANCH  13  15
BRANCH  14  16
ATOM     16  C   UNL     1       1.008   2.819  23.170  0.00  0.00    +0.138 C 
BRANCH  16   8
ATOM      5  O   UNL     1      -0.350   4.883  24.631  0.00  0.00    -0.270 OA
ATOM      8  N   UNL     1      -0.314   2.751  23.718  0.00  0.00    -0.309 N 
ATOM     18  C   UNL     1      -0.897   3.805  24.416  0.00  0.00    +0.244 C 
ATOM     32  H   UNL     1      -0.798   1.864  23.626  0.00  0.00    +0.149 HD
BRANCH  18  21
ATOM      6  O   UNL     1      -5.334   1.653  24.319  0.00  0.00    -0.453 OA
ATOM      7  O   UNL     1      -6.065   2.814  26.301  0.00  0.00    -0.453 OA
ATOM     21  C   UNL     1      -2.265   3.566  24.944  0.00  0.00    +0.040 A 
ATOM     22  C   UNL     1      -3.114   2.670  24.290  0.00  0.00    +0.062 A 
ATOM     23  C   UNL     1      -2.693   4.243  26.100  0.00  0.00    +0.017 A 
ATOM     24  C   UNL     1      -4.374   2.480  24.819  0.00  0.00    +0.167 A 
ATOM     25  C   UNL     1      -4.793   3.143  25.949  0.00  0.00    +0.166 A 
ATOM     26  C   UNL     1      -3.974   4.033  26.615  0.00  0.00    +0.050 A 
ATOM     29  C   UNL     1      -6.402   1.869  25.264  0.00  0.00    +0.466 C 
ENDBRANCH  18  21
ENDBRANCH  16   8
ENDBRANCH  14  16
TORSDOF 10
ENDMDL
MODEL 7
REMARK VINA RESULT:       0.8     14.997     17.029
REMARK  Name = 44716532
REMARK  12 active torsions:
REMARK  status: ('A' for Active; 'I' for Inactive)
REMARK    1  A    between atoms: O_2  and  C_11
REMARK    2  A    between atoms: O_3  and  C_12
REMARK    3  A    between atoms: N_8  and  C_16
REMARK    4  A    between atoms: N_9  and  C_19
REMARK    5  A    between atoms: N_10  and  C_20
REMARK    6  A    between atoms: N_10  and  C_27
REMARK    7  A    between atoms: N_10  and  C_28
REMARK    8  A    between atoms: C_13  and  C_15
REMARK    9  A    between atoms: C_14  and  C_16
REMARK   10  A    between atoms: C_15  and  C_17
REMARK   11  A    between atoms: C_18  and  C_21
REMARK   12  A    between atoms: C_19  and  C_20
REMARK                            x       y       z     vdW  Elec       q    Type
REMARK                         _______ _______ _______ _____ _____    ______ ____
ROOT
ATOM      1  O   UNL     1      -5.471  -8.226  10.456  0.00  0.00    -0.366 OA
ATOM     11  C   UNL     1      -6.781 -10.172  10.742  0.00  0.00    +0.175 C 
ATOM     12  C   UNL     1      -5.482 -10.378  11.493  0.00  0.00    +0.176 C 
ATOM     13  C   UNL     1      -6.833  -8.654  10.619  0.00  0.00    +0.158 C 
ATOM     14  C   UNL     1      -4.595  -9.238  10.993  0.00  0.00    +0.167 C 
ENDROOT
BRANCH  11   2
ATOM      2  O   UNL     1      -6.701 -10.781   9.460  0.00  0.00    -0.387 OA
ATOM     30  H   UNL     1      -7.291 -10.288   8.866  0.00  0.00    +0.210 HD
ENDBRANCH  11   2
BRANCH  12   3
ATOM      3  O   UNL     1      -5.710 -10.191  12.888  0.00  0.00    -0.387 OA
ATOM     31  H   UNL     1      -5.027  -9.580  13.214  0.00  0.00    +0.210 HD
ENDBRANCH  12   3
BRANCH  13  15
ATOM     15  C   UNL     1      -7.668  -8.121   9.469  0.00  0.00    +0.130 C 
BRANCH  15  17
ATOM      4  O   UNL     1      -9.990  -8.126   8.792  0.00  0.00    -0.276 OA
ATOM      9  N   UNL     1      -9.373  -9.254  10.727  0.00  0.00    -0.314 N 
ATOM     17  C   UNL     1      -9.136  -8.484   9.598  0.00  0.00    +0.216 C 
ATOM     33  H   UNL     1      -8.600  -9.497  11.340  0.00  0.00    +0.149 HD
BRANCH   9  19
ATOM     19  C   UNL     1     -10.686  -9.735  11.093  0.00  0.00    +0.119 C 
BRANCH  19  20
ATOM     20  C   UNL     1     -10.719 -10.195  12.543  0.00  0.00    +0.102 C 
BRANCH  20  10
ATOM     10  N   UNL     1      -9.855  -9.354  13.362  0.00  0.00    -0.307 NA
ATOM     27  C   UNL     1      -8.764 -10.141  13.938  0.00  0.00    +0.104 C 
ATOM     28  C   UNL     1     -10.626  -8.703  14.423  0.00  0.00    +0.104 C 
ENDBRANCH  20  10
ENDBRANCH  19  20
ENDBRANCH   9  19
ENDBRANCH  15  17
ENDBRANCH  13  15
BRANCH  14  16
ATOM     16  C   UNL     1      -3.640  -9.660   9.885  0.00  0.00    +0.138 C 
BRANCH  16   8
ATOM      5  O   UNL     1      -1.946 -10.112  12.159  0.00  0.00    -0.270 OA
ATOM      8  N   UNL     1      -2.330  -9.120  10.097  0.00  0.00    -0.309 N 
ATOM     18  C   UNL     1      -1.575  -9.393  11.234  0.00  0.00    +0.244 C 
ATOM     32  H   UNL     1      -1.989  -8.471   9.396  0.00  0.00    +0.149 HD
BRANCH  18  21
ATOM      6  O   UNL     1       1.482  -5.835  12.755  0.00  0.00    -0.453 OA
ATOM      7  O   UNL     1       3.369  -6.816  11.622  0.00  0.00    -0.453 OA
ATOM     21  C   UNL     1      -0.246  -8.735  11.315  0.00  0.00    +0.040 A 
ATOM     22  C   UNL     1      -0.102  -7.554  12.048  0.00  0.00    +0.062 A 
ATOM     23  C   UNL     1       0.855  -9.306  10.654  0.00  0.00    +0.017 A 
ATOM     24  C   UNL     1       1.152  -6.980  12.096  0.00  0.00    +0.167 A 
ATOM     25  C   UNL     1       2.229  -7.539  11.449  0.00  0.00    +0.166 A 
ATOM     26  C   UNL     1       2.114  -8.704  10.718  0.00  0.00    +0.050 A 
ATOM     29  C   UNL     1       2.888  -5.738  12.451  0.00  0.00    +0.466 C 
ENDBRANCH  18  21
ENDBRANCH  16   8
ENDBRANCH  14  16
TORSDOF 10
ENDMDL
MODEL 8
REMARK VINA RESULT:       0.8      2.073      4.557
REMARK  Name = 44716532
REMARK  12 active torsions:
REMARK  status: ('A' for Active; 'I' for Inactive)
REMARK    1  A    between atoms: O_2  and  C_11
REMARK    2  A    between atoms: O_3  and  C_12
REMARK    3  A    between atoms: N_8  and  C_16
REMARK    4  A    between atoms: N_9  and  C_19
REMARK    5  A    between atoms: N_10  and  C_20
REMARK    6  A    between atoms: N_10  and  C_27
REMARK    7  A    between atoms: N_10  and  C_28
REMARK    8  A    between atoms: C_13  and  C_15
REMARK    9  A    between atoms: C_14  and  C_16
REMARK   10  A    between atoms: C_15  and  C_17
REMARK   11  A    between atoms: C_18  and  C_21
REMARK   12  A    between atoms: C_19  and  C_20
REMARK                            x       y       z     vdW  Elec       q    Type
REMARK                         _______ _______ _______ _____ _____    ______ ____
ROOT
ATOM      1  O   UNL     1      -4.637  -0.269  25.871  0.00  0.00    -0.366 OA
ATOM     11  C   UNL     1      -4.090  -0.277  23.573  0.00  0.00    +0.175 C 
ATOM     12  C   UNL     1      -3.542  -1.552  24.180  0.00  0.00    +0.176 C 
ATOM     13  C   UNL     1      -5.154   0.121  24.588  0.00  0.00    +0.158 C 
ATOM     14  C   UNL     1      -3.655  -1.308  25.685  0.00  0.00    +0.167 C 
ENDROOT
BRANCH  11   2
ATOM      2  O   UNL     1      -3.065   0.705  23.502  0.00  0.00    -0.387 OA
ATOM     30  H   UNL     1      -3.475   1.533  23.202  0.00  0.00    +0.210 HD
ENDBRANCH  11   2
BRANCH  12   3
ATOM      3  O   UNL     1      -4.395  -2.641  23.836  0.00  0.00    -0.387 OA
ATOM     31  H   UNL     1      -5.229  -2.264  23.507  0.00  0.00    +0.210 HD
ENDBRANCH  12   3
BRANCH  13  15
ATOM     15  C   UNL     1      -5.509   1.596  24.616  0.00  0.00    +0.130 C 
BRANCH  15  17
ATOM      4  O   UNL     1      -3.882   3.113  23.667  0.00  0.00    -0.276 OA
ATOM      9  N   UNL     1      -3.690   2.500  25.900  0.00  0.00    -0.314 N 
ATOM     17  C   UNL     1      -4.282   2.490  24.646  0.00  0.00    +0.216 C 
ATOM     33  H   UNL     1      -4.093   1.945  26.650  0.00  0.00    +0.149 HD
BRANCH   9  19
ATOM     19  C   UNL     1      -2.503   3.266  26.206  0.00  0.00    +0.119 C 
BRANCH  19  20
ATOM     20  C   UNL     1      -2.687   4.732  25.845  0.00  0.00    +0.102 C 
BRANCH  20  10
ATOM     10  N   UNL     1      -1.447   5.283  25.312  0.00  0.00    -0.307 NA
ATOM     27  C   UNL     1      -1.725   6.373  24.376  0.00  0.00    +0.104 C 
ATOM     28  C   UNL     1      -0.659   4.238  24.654  0.00  0.00    +0.104 C 
ENDBRANCH  20  10
ENDBRANCH  19  20
ENDBRANCH   9  19
ENDBRANCH  15  17
ENDBRANCH  13  15
BRANCH  14  16
ATOM     16  C   UNL     1      -2.354  -0.836  26.317  0.00  0.00    +0.138 C 
BRANCH  16   8
ATOM      5  O   UNL     1      -0.873   1.492  25.524  0.00  0.00    -0.270 OA
ATOM      8  N   UNL     1      -1.298  -0.782  25.351  0.00  0.00    -0.309 N 
ATOM     18  C   UNL     1      -0.631   0.396  25.026  0.00  0.00    +0.244 C 
ATOM     32  H   UNL     1      -1.088  -1.645  24.859  0.00  0.00    +0.149 HD
BRANCH  18  21
ATOM      6  O   UNL     1       3.851   1.332  23.193  0.00  0.00    -0.453 OA
ATOM      7  O   UNL     1       3.418   0.069  21.186  0.00  0.00    -0.453 OA
ATOM     21  C   UNL     1       0.423   0.289  23.984  0.00  0.00    +0.040 A 
ATOM     22  C   UNL     1       1.655   0.919  24.176  0.00  0.00    +0.062 A 
ATOM     23  C   UNL     1       0.171  -0.447  22.813  0.00  0.00    +0.017 A 
ATOM     24  C   UNL     1       2.602   0.790  23.182  0.00  0.00    +0.167 A 
ATOM     25  C   UNL     1       2.355   0.070  22.036  0.00  0.00    +0.166 A 
ATOM     26  C   UNL     1       1.147  -0.562  21.821  0.00  0.00    +0.050 A 
ATOM     29  C   UNL     1       4.363   0.870  21.926  0.00  0.00    +0.466 C 
ENDBRANCH  18  21
ENDBRANCH  16   8
ENDBRANCH  14  16
TORSDOF 10
ENDMDL
