MODEL 1
REMARK VINA RESULT:      -3.3      0.000      0.000
REMARK  Name = 56774103
REMARK  8 active torsions:
REMARK  status: ('A' for Active; 'I' for Inactive)
REMARK    1  A    between atoms: S_1  and  N_5
REMARK    2  A    between atoms: S_1  and  C_16
REMARK    3  A    between atoms: N_5  and  C_9
REMARK    4  A    between atoms: C_7  and  C_12
REMARK    5  A    between atoms: C_7  and  C_13
REMARK    6  A    between atoms: C_8  and  C_11
REMARK    7  A    between atoms: C_11  and  C_14
REMARK    8  A    between atoms: C_17  and  C_18
REMARK                            x       y       z     vdW  Elec       q    Type
REMARK                         _______ _______ _______ _____ _____    ______ ____
ROOT
ATOM      7  C   UNL     1      14.082  -6.303  31.110  0.00  0.00    -0.015 C 
ATOM      8  C   UNL     1      13.693  -7.528  30.257  0.00  0.00    +0.004 C 
ATOM      9  C   UNL     1      14.882  -5.802  29.889  0.00  0.00    +0.082 C 
ATOM     10  C   UNL     1      14.983  -7.277  29.448  0.00  0.00    +0.025 C 
ATOM     12  C   UNL     1      14.959  -6.586  32.317  0.00  0.00    +0.013 C 
ATOM     13  C   UNL     1      12.899  -5.452  31.516  0.00  0.00    +0.013 C 
ENDROOT
BRANCH   9   5
ATOM      5  N   UNL     1      16.184  -5.112  30.150  0.00  0.00    -0.191 NA
ATOM     24  H   UNL     1      16.964  -5.771  30.283  0.00  0.00    +0.148 HD
BRANCH   5   1
ATOM      1  S   UNL     1      16.359  -3.646  31.021  0.00  0.00    +0.027 S 
ATOM      2  O   UNL     1      17.405  -3.797  32.014  0.00  0.00    -0.158 OA
ATOM      3  O   UNL     1      15.042  -3.163  31.389  0.00  0.00    -0.158 OA
ATOM     16  C   UNL     1      16.977  -2.594  29.731  0.00  0.00    +0.214 C 
ENDBRANCH   5   1
ENDBRANCH   9   5
BRANCH   8  11
ATOM     11  C   UNL     1      13.634  -8.867  30.954  0.00  0.00    +0.063 C 
BRANCH  11  14
ATOM      4  O   UNL     1      10.672 -10.086  32.618  0.00  0.00    -0.354 OA
ATOM      6  N   UNL     1      12.023 -10.159  32.302  0.00  0.00    -0.083 NA
ATOM     14  C   UNL     1      12.249  -9.112  31.503  0.00  0.00    +0.084 A 
ATOM     15  C   UNL     1      11.088  -8.350  31.282  0.00  0.00    +0.076 A 
ATOM     17  C   UNL     1      10.126  -9.005  32.005  0.00  0.00    +0.167 A 
BRANCH  17  18
ATOM     18  C   UNL     1       8.728  -8.796  32.242  0.00  0.00    +0.020 A 
ATOM     19  C   UNL     1       7.827  -9.847  32.072  0.00  0.00    +0.011 A 
ATOM     20  C   UNL     1       8.268  -7.542  32.642  0.00  0.00    +0.011 A 
ATOM     21  C   UNL     1       6.466  -9.644  32.301  0.00  0.00    +0.001 A 
ATOM     22  C   UNL     1       6.907  -7.338  32.873  0.00  0.00    +0.001 A 
ATOM     23  C   UNL     1       6.006  -8.390  32.702  0.00  0.00    +0.000 A 
ENDBRANCH  17  18
ENDBRANCH  11  14
ENDBRANCH   8  11
TORSDOF 5
ENDMDL
MODEL 2
REMARK VINA RESULT:      -3.1     16.902     19.011
REMARK  Name = 56774103
REMARK  8 active torsions:
REMARK  status: ('A' for Active; 'I' for Inactive)
REMARK    1  A    between atoms: S_1  and  N_5
REMARK    2  A    between atoms: S_1  and  C_16
REMARK    3  A    between atoms: N_5  and  C_9
REMARK    4  A    between atoms: C_7  and  C_12
REMARK    5  A    between atoms: C_7  and  C_13
REMARK    6  A    between atoms: C_8  and  C_11
REMARK    7  A    between atoms: C_11  and  C_14
REMARK    8  A    between atoms: C_17  and  C_18
REMARK                            x       y       z     vdW  Elec       q    Type
REMARK                         _______ _______ _______ _____ _____    ______ ____
ROOT
ATOM      7  C   UNL     1      -1.315   4.408  24.915  0.00  0.00    -0.015 C 
ATOM      8  C   UNL     1      -0.614   3.722  26.106  0.00  0.00    +0.004 C 
ATOM      9  C   UNL     1      -2.620   4.327  25.734  0.00  0.00    +0.082 C 
ATOM     10  C   UNL     1      -1.990   3.129  26.474  0.00  0.00    +0.025 C 
ATOM     12  C   UNL     1      -1.372   3.604  23.628  0.00  0.00    +0.013 C 
ATOM     13  C   UNL     1      -0.799   5.802  24.634  0.00  0.00    +0.013 C 
ENDROOT
BRANCH   9   5
ATOM      5  N   UNL     1      -3.887   4.038  24.992  0.00  0.00    -0.191 NA
ATOM     24  H   UNL     1      -4.014   4.645  24.170  0.00  0.00    +0.148 HD
BRANCH   5   1
ATOM      1  S   UNL     1      -5.357   3.540  25.720  0.00  0.00    +0.027 S 
ATOM      2  O   UNL     1      -6.366   4.562  25.516  0.00  0.00    -0.158 OA
ATOM      3  O   UNL     1      -5.070   3.026  27.044  0.00  0.00    -0.158 OA
ATOM     16  C   UNL     1      -5.761   2.157  24.681  0.00  0.00    +0.214 C 
ENDBRANCH   5   1
ENDBRANCH   9   5
BRANCH   8  11
ATOM     11  C   UNL     1       0.453   2.700  25.788  0.00  0.00    +0.063 C 
BRANCH  11  14
ATOM      4  O   UNL     1      -0.366  -0.191  23.789  0.00  0.00    -0.354 OA
ATOM      6  N   UNL     1       0.459   0.874  24.132  0.00  0.00    -0.083 NA
ATOM     14  C   UNL     1      -0.163   1.480  25.147  0.00  0.00    +0.084 A 
ATOM     15  C   UNL     1      -1.374   0.849  25.485  0.00  0.00    +0.076 A 
ATOM     17  C   UNL     1      -1.453  -0.195  24.601  0.00  0.00    +0.167 A 
BRANCH  17  18
ATOM     18  C   UNL     1      -2.401  -1.245  24.366  0.00  0.00    +0.020 A 
ATOM     19  C   UNL     1      -3.708  -0.935  23.991  0.00  0.00    +0.011 A 
ATOM     20  C   UNL     1      -2.016  -2.578  24.513  0.00  0.00    +0.011 A 
ATOM     21  C   UNL     1      -4.630  -1.956  23.763  0.00  0.00    +0.001 A 
ATOM     22  C   UNL     1      -2.937  -3.600  24.284  0.00  0.00    +0.001 A 
ATOM     23  C   UNL     1      -4.245  -3.289  23.910  0.00  0.00    +0.000 A 
ENDBRANCH  17  18
ENDBRANCH  11  14
ENDBRANCH   8  11
TORSDOF 5
ENDMDL
MODEL 3
REMARK VINA RESULT:      -2.7     16.794     19.019
REMARK  Name = 56774103
REMARK  8 active torsions:
REMARK  status: ('A' for Active; 'I' for Inactive)
REMARK    1  A    between atoms: S_1  and  N_5
REMARK    2  A    between atoms: S_1  and  C_16
REMARK    3  A    between atoms: N_5  and  C_9
REMARK    4  A    between atoms: C_7  and  C_12
REMARK    5  A    between atoms: C_7  and  C_13
REMARK    6  A    between atoms: C_8  and  C_11
REMARK    7  A    between atoms: C_11  and  C_14
REMARK    8  A    between atoms: C_17  and  C_18
REMARK                            x       y       z     vdW  Elec       q    Type
REMARK                         _______ _______ _______ _____ _____    ______ ____
ROOT
ATOM      7  C   UNL     1      -2.095   4.692  24.973  0.00  0.00    -0.015 C 
ATOM      8  C   UNL     1      -3.253   4.483  23.975  0.00  0.00    +0.004 C 
ATOM      9  C   UNL     1      -1.185   3.981  23.949  0.00  0.00    +0.082 C 
ATOM     10  C   UNL     1      -2.455   3.285  23.420  0.00  0.00    +0.025 C 
ATOM     12  C   UNL     1      -2.209   3.939  26.287  0.00  0.00    +0.013 C 
ATOM     13  C   UNL     1      -1.780   6.148  25.235  0.00  0.00    +0.013 C 
ENDROOT
BRANCH   9   5
ATOM      5  N   UNL     1      -0.120   3.073  24.481  0.00  0.00    -0.191 NA
ATOM     24  H   UNL     1       0.764   3.566  24.671  0.00  0.00    +0.148 HD
BRANCH   5   1
ATOM      1  S   UNL     1       0.084   1.433  24.028  0.00  0.00    +0.027 S 
ATOM      2  O   UNL     1       1.499   1.124  23.956  0.00  0.00    -0.158 OA
ATOM      3  O   UNL     1      -0.803   1.142  22.919  0.00  0.00    -0.158 OA
ATOM     16  C   UNL     1      -0.577   0.633  25.470  0.00  0.00    +0.214 C 
ENDBRANCH   5   1
ENDBRANCH   9   5
BRANCH   8  11
ATOM     11  C   UNL     1      -4.607   4.134  24.547  0.00  0.00    +0.063 C 
BRANCH  11  14
ATOM      4  O   UNL     1      -5.373   0.828  25.775  0.00  0.00    -0.354 OA
ATOM      6  N   UNL     1      -5.567   2.204  25.743  0.00  0.00    -0.083 NA
ATOM     14  C   UNL     1      -4.684   2.657  24.849  0.00  0.00    +0.084 A 
ATOM     15  C   UNL     1      -3.912   1.623  24.289  0.00  0.00    +0.076 A 
ATOM     17  C   UNL     1      -4.386   0.494  24.906  0.00  0.00    +0.167 A 
BRANCH  17  18
ATOM     18  C   UNL     1      -4.072  -0.903  24.827  0.00  0.00    +0.020 A 
ATOM     19  C   UNL     1      -4.444  -1.639  23.702  0.00  0.00    +0.011 A 
ATOM     20  C   UNL     1      -3.395  -1.526  25.876  0.00  0.00    +0.011 A 
ATOM     21  C   UNL     1      -4.139  -2.998  23.625  0.00  0.00    +0.001 A 
ATOM     22  C   UNL     1      -3.090  -2.885  25.799  0.00  0.00    +0.001 A 
ATOM     23  C   UNL     1      -3.462  -3.621  24.674  0.00  0.00    +0.000 A 
ENDBRANCH  17  18
ENDBRANCH  11  14
ENDBRANCH   8  11
TORSDOF 5
ENDMDL
MODEL 4
REMARK VINA RESULT:      -2.7     16.520     19.185
REMARK  Name = 56774103
REMARK  8 active torsions:
REMARK  status: ('A' for Active; 'I' for Inactive)
REMARK    1  A    between atoms: S_1  and  N_5
REMARK    2  A    between atoms: S_1  and  C_16
REMARK    3  A    between atoms: N_5  and  C_9
REMARK    4  A    between atoms: C_7  and  C_12
REMARK    5  A    between atoms: C_7  and  C_13
REMARK    6  A    between atoms: C_8  and  C_11
REMARK    7  A    between atoms: C_11  and  C_14
REMARK    8  A    between atoms: C_17  and  C_18
REMARK                            x       y       z     vdW  Elec       q    Type
REMARK                         _______ _______ _______ _____ _____    ______ ____
ROOT
ATOM      7  C   UNL     1      -4.503   3.147  24.960  0.00  0.00    -0.015 C 
ATOM      8  C   UNL     1      -3.399   3.424  26.002  0.00  0.00    +0.004 C 
ATOM      9  C   UNL     1      -4.609   1.730  25.561  0.00  0.00    +0.082 C 
ATOM     10  C   UNL     1      -3.148   1.901  26.026  0.00  0.00    +0.025 C 
ATOM     12  C   UNL     1      -4.058   3.143  23.508  0.00  0.00    +0.013 C 
ATOM     13  C   UNL     1      -5.722   4.026  25.127  0.00  0.00    +0.013 C 
ENDROOT
BRANCH   9   5
ATOM      5  N   UNL     1      -4.862   0.594  24.619  0.00  0.00    -0.191 NA
ATOM     24  H   UNL     1      -5.856   0.331  24.572  0.00  0.00    +0.148 HD
BRANCH   5   1
ATOM      1  S   UNL     1      -3.784  -0.710  24.346  0.00  0.00    +0.027 S 
ATOM      2  O   UNL     1      -2.509  -0.195  23.886  0.00  0.00    -0.158 OA
ATOM      3  O   UNL     1      -4.483  -1.746  23.611  0.00  0.00    -0.158 OA
ATOM     16  C   UNL     1      -3.571  -1.285  26.014  0.00  0.00    +0.214 C 
ENDBRANCH   5   1
ENDBRANCH   9   5
BRANCH   8  11
ATOM     11  C   UNL     1      -2.217   4.253  25.556  0.00  0.00    +0.063 C 
BRANCH  11  14
ATOM      4  O   UNL     1       0.744   2.191  25.575  0.00  0.00    -0.354 OA
ATOM      6  N   UNL     1      -0.202   2.989  26.205  0.00  0.00    -0.083 NA
ATOM     14  C   UNL     1      -1.041   3.363  25.235  0.00  0.00    +0.084 A 
ATOM     15  C   UNL     1      -0.678   2.836  23.983  0.00  0.00    +0.076 A 
ATOM     17  C   UNL     1       0.451   2.107  24.253  0.00  0.00    +0.167 A 
BRANCH  17  18
ATOM     18  C   UNL     1       1.345   1.308  23.466  0.00  0.00    +0.020 A 
ATOM     19  C   UNL     1       2.704   1.616  23.427  0.00  0.00    +0.011 A 
ATOM     20  C   UNL     1       0.855   0.222  22.740  0.00  0.00    +0.011 A 
ATOM     21  C   UNL     1       3.575   0.840  22.662  0.00  0.00    +0.001 A 
ATOM     22  C   UNL     1       1.725  -0.555  21.976  0.00  0.00    +0.001 A 
ATOM     23  C   UNL     1       3.085  -0.246  21.936  0.00  0.00    +0.000 A 
ENDBRANCH  17  18
ENDBRANCH  11  14
ENDBRANCH   8  11
TORSDOF 5
ENDMDL
MODEL 5
REMARK VINA RESULT:      -2.4      2.740      3.507
REMARK  Name = 56774103
REMARK  8 active torsions:
REMARK  status: ('A' for Active; 'I' for Inactive)
REMARK    1  A    between atoms: S_1  and  N_5
REMARK    2  A    between atoms: S_1  and  C_16
REMARK    3  A    between atoms: N_5  and  C_9
REMARK    4  A    between atoms: C_7  and  C_12
REMARK    5  A    between atoms: C_7  and  C_13
REMARK    6  A    between atoms: C_8  and  C_11
REMARK    7  A    between atoms: C_11  and  C_14
REMARK    8  A    between atoms: C_17  and  C_18
REMARK                            x       y       z     vdW  Elec       q    Type
REMARK                         _______ _______ _______ _____ _____    ______ ____
ROOT
ATOM      7  C   UNL     1      15.006  -6.890  30.327  0.00  0.00    -0.015 C 
ATOM      8  C   UNL     1      15.552  -6.980  31.767  0.00  0.00    +0.004 C 
ATOM      9  C   UNL     1      16.475  -6.888  29.852  0.00  0.00    +0.082 C 
ATOM     10  C   UNL     1      16.841  -6.317  31.237  0.00  0.00    +0.025 C 
ATOM     12  C   UNL     1      14.269  -5.610  29.976  0.00  0.00    +0.013 C 
ATOM     13  C   UNL     1      14.184  -8.092  29.918  0.00  0.00    +0.013 C 
ENDROOT
BRANCH   9   5
ATOM      5  N   UNL     1      16.823  -6.022  28.681  0.00  0.00    -0.191 NA
ATOM     24  H   UNL     1      16.680  -5.021  28.871  0.00  0.00    +0.148 HD
BRANCH   5   1
ATOM      1  S   UNL     1      16.592  -6.457  27.039  0.00  0.00    +0.027 S 
ATOM      2  O   UNL     1      17.349  -5.557  26.190  0.00  0.00    -0.158 OA
ATOM      3  O   UNL     1      15.179  -6.688  26.812  0.00  0.00    -0.158 OA
ATOM     16  C   UNL     1      17.405  -8.036  27.023  0.00  0.00    +0.214 C 
ENDBRANCH   5   1
ENDBRANCH   9   5
BRANCH   8  11
ATOM     11  C   UNL     1      14.827  -6.193  32.834  0.00  0.00    +0.063 C 
BRANCH  11  14
ATOM      4  O   UNL     1      11.220  -6.129  32.767  0.00  0.00    -0.354 OA
ATOM      6  N   UNL     1      12.460  -5.504  32.801  0.00  0.00    -0.083 NA
ATOM     14  C   UNL     1      13.350  -6.501  32.801  0.00  0.00    +0.084 A 
ATOM     15  C   UNL     1      12.735  -7.765  32.767  0.00  0.00    +0.076 A 
ATOM     17  C   UNL     1      11.396  -7.475  32.747  0.00  0.00    +0.167 A 
BRANCH  17  18
ATOM     18  C   UNL     1      10.196  -8.259  32.708  0.00  0.00    +0.020 A 
ATOM     19  C   UNL     1       8.955  -7.644  32.873  0.00  0.00    +0.011 A 
ATOM     20  C   UNL     1      10.270  -9.637  32.505  0.00  0.00    +0.011 A 
ATOM     21  C   UNL     1       7.788  -8.407  32.836  0.00  0.00    +0.001 A 
ATOM     22  C   UNL     1       9.103 -10.401  32.467  0.00  0.00    +0.001 A 
ATOM     23  C   UNL     1       7.862  -9.785  32.633  0.00  0.00    +0.000 A 
ENDBRANCH  17  18
ENDBRANCH  11  14
ENDBRANCH   8  11
TORSDOF 5
ENDMDL
MODEL 6
REMARK VINA RESULT:      -0.7     16.089     18.409
REMARK  Name = 56774103
REMARK  8 active torsions:
REMARK  status: ('A' for Active; 'I' for Inactive)
REMARK    1  A    between atoms: S_1  and  N_5
REMARK    2  A    between atoms: S_1  and  C_16
REMARK    3  A    between atoms: N_5  and  C_9
REMARK    4  A    between atoms: C_7  and  C_12
REMARK    5  A    between atoms: C_7  and  C_13
REMARK    6  A    between atoms: C_8  and  C_11
REMARK    7  A    between atoms: C_11  and  C_14
REMARK    8  A    between atoms: C_17  and  C_18
REMARK                            x       y       z     vdW  Elec       q    Type
REMARK                         _______ _______ _______ _____ _____    ______ ____
ROOT
ATOM      7  C   UNL     1      -1.970   1.575  24.681  0.00  0.00    -0.015 C 
ATOM      8  C   UNL     1      -2.069   0.053  24.914  0.00  0.00    +0.004 C 
ATOM      9  C   UNL     1      -3.238   1.713  25.550  0.00  0.00    +0.082 C 
ATOM     10  C   UNL     1      -3.580   0.265  25.145  0.00  0.00    +0.025 C 
ATOM     12  C   UNL     1      -2.178   2.042  23.251  0.00  0.00    +0.013 C 
ATOM     13  C   UNL     1      -0.711   2.191  25.251  0.00  0.00    +0.013 C 
ENDROOT
BRANCH   9   5
ATOM      5  N   UNL     1      -4.240   2.753  25.153  0.00  0.00    -0.191 NA
ATOM     24  H   UNL     1      -3.824   3.689  25.057  0.00  0.00    +0.148 HD
BRANCH   5   1
ATOM      1  S   UNL     1      -5.881   2.769  25.646  0.00  0.00    +0.027 S 
ATOM      2  O   UNL     1      -5.967   2.410  27.049  0.00  0.00    -0.158 OA
ATOM      3  O   UNL     1      -6.675   2.081  24.647  0.00  0.00    -0.158 OA
ATOM     16  C   UNL     1      -6.226   4.506  25.505  0.00  0.00    +0.214 C 
ENDBRANCH   5   1
ENDBRANCH   9   5
BRANCH   8  11
ATOM     11  C   UNL     1      -1.726  -0.850  23.752  0.00  0.00    +0.063 C 
BRANCH  11  14
ATOM      4  O   UNL     1       1.370  -0.208  22.014  0.00  0.00    -0.354 OA
ATOM      6  N   UNL     1      -0.013  -0.333  22.057  0.00  0.00    -0.083 NA
ATOM     14  C   UNL     1      -0.293  -0.637  23.327  0.00  0.00    +0.084 A 
ATOM     15  C   UNL     1       0.862  -0.718  24.124  0.00  0.00    +0.076 A 
ATOM     17  C   UNL     1       1.880  -0.440  23.250  0.00  0.00    +0.167 A 
BRANCH  17  18
ATOM     18  C   UNL     1       3.306  -0.344  23.364  0.00  0.00    +0.020 A 
ATOM     19  C   UNL     1       3.959   0.828  22.983  0.00  0.00    +0.011 A 
ATOM     20  C   UNL     1       4.041  -1.423  23.855  0.00  0.00    +0.011 A 
ATOM     21  C   UNL     1       5.347   0.922  23.093  0.00  0.00    +0.001 A 
ATOM     22  C   UNL     1       5.428  -1.330  23.966  0.00  0.00    +0.001 A 
ATOM     23  C   UNL     1       6.081  -0.157  23.585  0.00  0.00    +0.000 A 
ENDBRANCH  17  18
ENDBRANCH  11  14
ENDBRANCH   8  11
TORSDOF 5
ENDMDL
MODEL 7
REMARK VINA RESULT:       0.4     15.953     17.602
REMARK  Name = 56774103
REMARK  8 active torsions:
REMARK  status: ('A' for Active; 'I' for Inactive)
REMARK    1  A    between atoms: S_1  and  N_5
REMARK    2  A    between atoms: S_1  and  C_16
REMARK    3  A    between atoms: N_5  and  C_9
REMARK    4  A    between atoms: C_7  and  C_12
REMARK    5  A    between atoms: C_7  and  C_13
REMARK    6  A    between atoms: C_8  and  C_11
REMARK    7  A    between atoms: C_11  and  C_14
REMARK    8  A    between atoms: C_17  and  C_18
REMARK                            x       y       z     vdW  Elec       q    Type
REMARK                         _______ _______ _______ _____ _____    ______ ____
ROOT
ATOM      7  C   UNL     1       0.140   2.526  25.689  0.00  0.00    -0.015 C 
ATOM      8  C   UNL     1      -0.677   3.632  24.990  0.00  0.00    +0.004 C 
ATOM      9  C   UNL     1       0.791   2.246  24.318  0.00  0.00    +0.082 C 
ATOM     10  C   UNL     1      -0.481   2.842  23.680  0.00  0.00    +0.025 C 
ATOM     12  C   UNL     1      -0.658   1.347  26.218  0.00  0.00    +0.013 C 
ATOM     13  C   UNL     1       1.067   3.049  26.764  0.00  0.00    +0.013 C 
ENDROOT
BRANCH   9   5
ATOM      5  N   UNL     1       1.086   0.821  23.969  0.00  0.00    -0.191 NA
ATOM     24  H   UNL     1       0.820   0.165  24.717  0.00  0.00    +0.148 HD
BRANCH   5   1
ATOM      1  S   UNL     1       2.423   0.298  23.033  0.00  0.00    +0.027 S 
ATOM      2  O   UNL     1       3.016  -0.873  23.650  0.00  0.00    -0.158 OA
ATOM      3  O   UNL     1       3.230   1.452  22.689  0.00  0.00    -0.158 OA
ATOM     16  C   UNL     1       1.580  -0.227  21.561  0.00  0.00    +0.214 C 
ENDBRANCH   5   1
ENDBRANCH   9   5
BRANCH   8  11
ATOM     11  C   UNL     1      -2.116   3.806  25.416  0.00  0.00    +0.063 C 
BRANCH  11  14
ATOM      4  O   UNL     1      -4.607   1.242  24.918  0.00  0.00    -0.354 OA
ATOM      6  N   UNL     1      -4.226   2.558  25.148  0.00  0.00    -0.083 NA
ATOM     14  C   UNL     1      -2.891   2.531  25.182  0.00  0.00    +0.084 A 
ATOM     15  C   UNL     1      -2.377   1.237  24.982  0.00  0.00    +0.076 A 
ATOM     17  C   UNL     1      -3.498   0.465  24.821  0.00  0.00    +0.167 A 
BRANCH  17  18
ATOM     18  C   UNL     1      -3.734  -0.929  24.580  0.00  0.00    +0.020 A 
ATOM     19  C   UNL     1      -3.123  -1.889  25.386  0.00  0.00    +0.011 A 
ATOM     20  C   UNL     1      -4.575  -1.324  23.540  0.00  0.00    +0.011 A 
ATOM     21  C   UNL     1      -3.352  -3.245  25.152  0.00  0.00    +0.001 A 
ATOM     22  C   UNL     1      -4.806  -2.680  23.306  0.00  0.00    +0.001 A 
ATOM     23  C   UNL     1      -4.193  -3.641  24.112  0.00  0.00    +0.000 A 
ENDBRANCH  17  18
ENDBRANCH  11  14
ENDBRANCH   8  11
TORSDOF 5
ENDMDL
