MODEL 1
REMARK VINA RESULT:      -5.1      0.000      0.000
REMARK  Name = 40781599
REMARK  10 active torsions:
REMARK  status: ('A' for Active; 'I' for Inactive)
REMARK    1  A    between atoms: O_2  and  C_8
REMARK    2  A    between atoms: O_3  and  C_9
REMARK    3  A    between atoms: N_6  and  C_12
REMARK    4  A    between atoms: N_7  and  C_17
REMARK    5  A    between atoms: C_10  and  C_12
REMARK    6  A    between atoms: C_11  and  C_13
REMARK    7  A    between atoms: C_13  and  C_14
REMARK    8  A    between atoms: C_15  and  C_16
REMARK    9  A    between atoms: C_17  and  C_23
REMARK   10  A    between atoms: C_22  and  C_24
REMARK                            x       y       z     vdW  Elec       q    Type
REMARK                         _______ _______ _______ _____ _____    ______ ____
ROOT
ATOM      1  O   UNL     1      -2.697   2.657  23.923  0.00  0.00    -0.366 OA
ATOM      8  C   UNL     1      -1.027   2.889  25.572  0.00  0.00    +0.176 C 
ATOM      9  C   UNL     1      -1.988   4.050  25.717  0.00  0.00    +0.175 C 
ATOM     10  C   UNL     1      -1.289   2.453  24.140  0.00  0.00    +0.167 C 
ATOM     11  C   UNL     1      -3.202   3.557  24.937  0.00  0.00    +0.158 C 
ENDROOT
BRANCH   8   2
ATOM      2  O   UNL     1       0.322   3.251  25.775  0.00  0.00    -0.387 OA
ATOM     26  H   UNL     1       0.788   3.126  24.931  0.00  0.00    +0.210 HD
ENDBRANCH   8   2
BRANCH   9   3
ATOM      3  O   UNL     1      -1.475   5.205  25.051  0.00  0.00    -0.387 OA
ATOM     27  H   UNL     1      -2.209   5.837  24.959  0.00  0.00    +0.210 HD
ENDBRANCH   9   3
BRANCH  10  12
ATOM     12  C   UNL     1      -0.938   0.999  23.880  0.00  0.00    +0.138 C 
BRANCH  12   6
ATOM      5  O   UNL     1       0.639  -0.369  21.908  0.00  0.00    -0.270 OA
ATOM      6  N   UNL     1       0.480   0.795  23.909  0.00  0.00    -0.309 N 
ATOM     15  C   UNL     1       1.167   0.117  22.905  0.00  0.00    +0.244 C 
ATOM     28  H   UNL     1       0.986   1.218  24.680  0.00  0.00    +0.149 HD
BRANCH  15  16
ATOM     16  C   UNL     1       2.632  -0.034  23.098  0.00  0.00    +0.037 A 
ATOM     18  C   UNL     1       3.151  -1.228  23.600  0.00  0.00    +0.013 A 
ATOM     19  C   UNL     1       3.489   1.018  22.777  0.00  0.00    +0.013 A 
ATOM     20  C   UNL     1       4.526  -1.368  23.782  0.00  0.00    +0.004 A 
ATOM     21  C   UNL     1       4.865   0.877  22.958  0.00  0.00    +0.004 A 
ATOM     22  C   UNL     1       5.383  -0.315  23.461  0.00  0.00    -0.050 A 
ATOM     24  C   UNL     1       6.855  -0.467  23.655  0.00  0.00    +0.044 C 
ENDBRANCH  15  16
ENDBRANCH  12   6
ENDBRANCH  10  12
BRANCH  11  13
ATOM     13  C   UNL     1      -4.189   2.780  25.799  0.00  0.00    +0.130 C 
BRANCH  13  14
ATOM      4  O   UNL     1      -6.016   1.855  24.511  0.00  0.00    -0.276 OA
ATOM      7  N   UNL     1      -4.168   0.524  24.974  0.00  0.00    -0.304 N 
ATOM     14  C   UNL     1      -4.911   1.694  25.023  0.00  0.00    +0.216 C 
ATOM     29  H   UNL     1      -3.261   0.505  25.431  0.00  0.00    +0.150 HD
BRANCH   7  17
ATOM     17  C   UNL     1      -4.622  -0.671  24.298  0.00  0.00    +0.193 C 
BRANCH  17  23
ATOM     23  C   UNL     1      -3.710  -1.789  24.536  0.00  0.00    -0.087 C 
ATOM     25  C   UNL     1      -2.961  -2.708  24.729  0.00  0.00    +0.005 C 
ENDBRANCH  17  23
ENDBRANCH   7  17
ENDBRANCH  13  14
ENDBRANCH  11  13
TORSDOF 9
ENDMDL
MODEL 2
REMARK VINA RESULT:      -4.0      1.644      3.569
REMARK  Name = 40781599
REMARK  10 active torsions:
REMARK  status: ('A' for Active; 'I' for Inactive)
REMARK    1  A    between atoms: O_2  and  C_8
REMARK    2  A    between atoms: O_3  and  C_9
REMARK    3  A    between atoms: N_6  and  C_12
REMARK    4  A    between atoms: N_7  and  C_17
REMARK    5  A    between atoms: C_10  and  C_12
REMARK    6  A    between atoms: C_11  and  C_13
REMARK    7  A    between atoms: C_13  and  C_14
REMARK    8  A    between atoms: C_15  and  C_16
REMARK    9  A    between atoms: C_17  and  C_23
REMARK   10  A    between atoms: C_22  and  C_24
REMARK                            x       y       z     vdW  Elec       q    Type
REMARK                         _______ _______ _______ _____ _____    ______ ____
ROOT
ATOM      1  O   UNL     1      -2.708   0.412  25.545  0.00  0.00    -0.366 OA
ATOM      8  C   UNL     1      -2.284  -1.286  23.965  0.00  0.00    +0.176 C 
ATOM      9  C   UNL     1      -3.361  -1.785  24.907  0.00  0.00    +0.175 C 
ATOM     10  C   UNL     1      -1.638  -0.190  24.794  0.00  0.00    +0.167 C 
ATOM     11  C   UNL     1      -3.838  -0.491  25.557  0.00  0.00    +0.158 C 
ENDROOT
BRANCH   8   2
ATOM      2  O   UNL     1      -1.358  -2.286  23.596  0.00  0.00    -0.387 OA
ATOM     26  H   UNL     1      -0.836  -1.939  22.852  0.00  0.00    +0.210 HD
ENDBRANCH   8   2
BRANCH   9   3
ATOM      3  O   UNL     1      -2.788  -2.605  25.925  0.00  0.00    -0.387 OA
ATOM     27  H   UNL     1      -3.227  -2.378  26.763  0.00  0.00    +0.210 HD
ENDBRANCH   9   3
BRANCH  10  12
ATOM     12  C   UNL     1      -0.944   0.869  23.956  0.00  0.00    +0.138 C 
BRANCH  12   6
ATOM      5  O   UNL     1       0.652  -0.397  21.932  0.00  0.00    -0.270 OA
ATOM      6  N   UNL     1       0.478   0.694  23.973  0.00  0.00    -0.309 N 
ATOM     15  C   UNL     1       1.174   0.065  22.943  0.00  0.00    +0.244 C 
ATOM     28  H   UNL     1       0.979   1.102  24.755  0.00  0.00    +0.149 HD
BRANCH  15  16
ATOM     16  C   UNL     1       2.643  -0.061  23.125  0.00  0.00    +0.037 A 
ATOM     18  C   UNL     1       3.186  -1.250  23.611  0.00  0.00    +0.013 A 
ATOM     19  C   UNL     1       3.479   1.010  22.808  0.00  0.00    +0.013 A 
ATOM     20  C   UNL     1       4.565  -1.368  23.782  0.00  0.00    +0.004 A 
ATOM     21  C   UNL     1       4.858   0.891  22.980  0.00  0.00    +0.004 A 
ATOM     22  C   UNL     1       5.402  -0.297  23.467  0.00  0.00    -0.050 A 
ATOM     24  C   UNL     1       6.877  -0.424  23.650  0.00  0.00    +0.044 C 
ENDBRANCH  15  16
ENDBRANCH  12   6
ENDBRANCH  10  12
BRANCH  11  13
ATOM     13  C   UNL     1      -4.974   0.177  24.793  0.00  0.00    +0.130 C 
BRANCH  13  14
ATOM      4  O   UNL     1      -5.825   2.167  25.871  0.00  0.00    -0.276 OA
ATOM      7  N   UNL     1      -4.160   2.373  24.263  0.00  0.00    -0.304 N 
ATOM     14  C   UNL     1      -5.055   1.669  25.055  0.00  0.00    +0.216 C 
ATOM     29  H   UNL     1      -3.565   1.855  23.623  0.00  0.00    +0.150 HD
BRANCH   7  17
ATOM     17  C   UNL     1      -4.029   3.812  24.309  0.00  0.00    +0.193 C 
BRANCH  17  23
ATOM     23  C   UNL     1      -2.738   4.205  24.873  0.00  0.00    -0.087 C 
ATOM     25  C   UNL     1      -1.678   4.531  25.334  0.00  0.00    +0.005 C 
ENDBRANCH  17  23
ENDBRANCH   7  17
ENDBRANCH  13  14
ENDBRANCH  11  13
TORSDOF 9
ENDMDL
MODEL 3
REMARK VINA RESULT:      -3.8      2.265      7.756
REMARK  Name = 40781599
REMARK  10 active torsions:
REMARK  status: ('A' for Active; 'I' for Inactive)
REMARK    1  A    between atoms: O_2  and  C_8
REMARK    2  A    between atoms: O_3  and  C_9
REMARK    3  A    between atoms: N_6  and  C_12
REMARK    4  A    between atoms: N_7  and  C_17
REMARK    5  A    between atoms: C_10  and  C_12
REMARK    6  A    between atoms: C_11  and  C_13
REMARK    7  A    between atoms: C_13  and  C_14
REMARK    8  A    between atoms: C_15  and  C_16
REMARK    9  A    between atoms: C_17  and  C_23
REMARK   10  A    between atoms: C_22  and  C_24
REMARK                            x       y       z     vdW  Elec       q    Type
REMARK                         _______ _______ _______ _____ _____    ______ ____
ROOT
ATOM      1  O   UNL     1      -1.090  -1.992  23.580  0.00  0.00    -0.366 OA
ATOM      8  C   UNL     1      -1.741  -1.071  25.650  0.00  0.00    +0.176 C 
ATOM      9  C   UNL     1      -0.227  -1.103  25.611  0.00  0.00    +0.175 C 
ATOM     10  C   UNL     1      -2.095  -2.111  24.602  0.00  0.00    +0.167 C 
ATOM     11  C   UNL     1       0.048  -1.281  24.122  0.00  0.00    +0.158 C 
ENDROOT
BRANCH   8   2
ATOM      2  O   UNL     1      -2.274  -1.393  26.917  0.00  0.00    -0.387 OA
ATOM     26  H   UNL     1      -2.748  -2.238  26.827  0.00  0.00    +0.210 HD
ENDBRANCH   8   2
BRANCH   9   3
ATOM      3  O   UNL     1       0.262  -2.258  26.292  0.00  0.00    -0.387 OA
ATOM     27  H   UNL     1      -0.509  -2.742  26.633  0.00  0.00    +0.210 HD
ENDBRANCH   9   3
BRANCH  10  12
ATOM     12  C   UNL     1      -3.471  -1.907  23.991  0.00  0.00    +0.138 C 
BRANCH  12   6
ATOM      5  O   UNL     1      -2.884   0.651  22.825  0.00  0.00    -0.270 OA
ATOM      6  N   UNL     1      -4.026  -0.643  24.376  0.00  0.00    -0.309 N 
ATOM     15  C   UNL     1      -3.683   0.554  23.752  0.00  0.00    +0.244 C 
ATOM     28  H   UNL     1      -4.734  -0.657  25.101  0.00  0.00    +0.149 HD
BRANCH  15  16
ATOM     16  C   UNL     1      -4.326   1.782  24.287  0.00  0.00    +0.037 A 
ATOM     18  C   UNL     1      -5.428   1.678  25.137  0.00  0.00    +0.013 A 
ATOM     19  C   UNL     1      -3.829   3.037  23.940  0.00  0.00    +0.013 A 
ATOM     20  C   UNL     1      -6.033   2.830  25.638  0.00  0.00    +0.004 A 
ATOM     21  C   UNL     1      -4.435   4.190  24.441  0.00  0.00    +0.004 A 
ATOM     22  C   UNL     1      -5.536   4.087  25.290  0.00  0.00    -0.050 A 
ATOM     24  C   UNL     1      -6.183   5.319  25.827  0.00  0.00    +0.044 C 
ENDBRANCH  15  16
ENDBRANCH  12   6
ENDBRANCH  10  12
BRANCH  11  13
ATOM     13  C   UNL     1       0.169   0.041  23.375  0.00  0.00    +0.130 C 
BRANCH  13  14
ATOM      4  O   UNL     1       1.531  -0.381  21.421  0.00  0.00    -0.276 OA
ATOM      7  N   UNL     1       2.431   0.828  23.190  0.00  0.00    -0.304 N 
ATOM     14  C   UNL     1       1.431   0.123  22.536  0.00  0.00    +0.216 C 
ATOM     29  H   UNL     1       2.235   1.206  24.112  0.00  0.00    +0.150 HD
BRANCH   7  17
ATOM     17  C   UNL     1       3.738   1.056  22.617  0.00  0.00    +0.193 C 
BRANCH  17  23
ATOM     23  C   UNL     1       4.765   0.300  23.333  0.00  0.00    -0.087 C 
ATOM     25  C   UNL     1       5.608  -0.324  23.919  0.00  0.00    +0.005 C 
ENDBRANCH  17  23
ENDBRANCH   7  17
ENDBRANCH  13  14
ENDBRANCH  11  13
TORSDOF 9
ENDMDL
MODEL 4
REMARK VINA RESULT:      -3.6      3.019      7.380
REMARK  Name = 40781599
REMARK  10 active torsions:
REMARK  status: ('A' for Active; 'I' for Inactive)
REMARK    1  A    between atoms: O_2  and  C_8
REMARK    2  A    between atoms: O_3  and  C_9
REMARK    3  A    between atoms: N_6  and  C_12
REMARK    4  A    between atoms: N_7  and  C_17
REMARK    5  A    between atoms: C_10  and  C_12
REMARK    6  A    between atoms: C_11  and  C_13
REMARK    7  A    between atoms: C_13  and  C_14
REMARK    8  A    between atoms: C_15  and  C_16
REMARK    9  A    between atoms: C_17  and  C_23
REMARK   10  A    between atoms: C_22  and  C_24
REMARK                            x       y       z     vdW  Elec       q    Type
REMARK                         _______ _______ _______ _____ _____    ______ ____
ROOT
ATOM      1  O   UNL     1      -1.315  -2.014  23.551  0.00  0.00    -0.366 OA
ATOM      8  C   UNL     1      -1.740  -1.155  25.705  0.00  0.00    +0.176 C 
ATOM      9  C   UNL     1      -0.245  -1.104  25.470  0.00  0.00    +0.175 C 
ATOM     10  C   UNL     1      -2.173  -2.200  24.691  0.00  0.00    +0.167 C 
ATOM     11  C   UNL     1      -0.156  -1.250  23.955  0.00  0.00    +0.158 C 
ENDROOT
BRANCH   8   2
ATOM      2  O   UNL     1      -2.087  -1.520  27.023  0.00  0.00    -0.387 OA
ATOM     26  H   UNL     1      -1.728  -2.410  27.183  0.00  0.00    +0.210 HD
ENDBRANCH   8   2
BRANCH   9   3
ATOM      3  O   UNL     1       0.388  -2.239  26.061  0.00  0.00    -0.387 OA
ATOM     27  H   UNL     1       0.849  -2.717  25.350  0.00  0.00    +0.210 HD
ENDBRANCH   9   3
BRANCH  10  12
ATOM     12  C   UNL     1      -3.624  -2.063  24.267  0.00  0.00    +0.138 C 
BRANCH  12   6
ATOM      5  O   UNL     1      -3.166   0.401  22.866  0.00  0.00    -0.270 OA
ATOM      6  N   UNL     1      -4.145  -0.773  24.611  0.00  0.00    -0.309 N 
ATOM     15  C   UNL     1      -3.870   0.374  23.872  0.00  0.00    +0.244 C 
ATOM     28  H   UNL     1      -4.780  -0.733  25.401  0.00  0.00    +0.149 HD
BRANCH  15  16
ATOM     16  C   UNL     1      -4.465   1.639  24.376  0.00  0.00    +0.037 A 
ATOM     18  C   UNL     1      -5.486   1.600  25.326  0.00  0.00    +0.013 A 
ATOM     19  C   UNL     1      -4.002   2.865  23.900  0.00  0.00    +0.013 A 
ATOM     20  C   UNL     1      -6.045   2.787  25.798  0.00  0.00    +0.004 A 
ATOM     21  C   UNL     1      -4.561   4.053  24.373  0.00  0.00    +0.004 A 
ATOM     22  C   UNL     1      -5.582   4.014  25.321  0.00  0.00    -0.050 A 
ATOM     24  C   UNL     1      -6.180   5.283  25.828  0.00  0.00    +0.044 C 
ENDBRANCH  15  16
ENDBRANCH  12   6
ENDBRANCH  10  12
BRANCH  11  13
ATOM     13  C   UNL     1      -0.202   0.086  23.224  0.00  0.00    +0.130 C 
BRANCH  13  14
ATOM      4  O   UNL     1       1.594   1.547  23.925  0.00  0.00    -0.276 OA
ATOM      7  N   UNL     1      -0.510   1.797  24.881  0.00  0.00    -0.304 N 
ATOM     14  C   UNL     1       0.417   1.212  24.030  0.00  0.00    +0.216 C 
ATOM     29  H   UNL     1      -1.461   1.440  24.881  0.00  0.00    +0.150 HD
BRANCH   7  17
ATOM     17  C   UNL     1      -0.186   2.894  25.765  0.00  0.00    +0.193 C 
BRANCH  17  23
ATOM     23  C   UNL     1      -0.791   4.141  25.298  0.00  0.00    -0.087 C 
ATOM     25  C   UNL     1      -1.289   5.166  24.918  0.00  0.00    +0.005 C 
ENDBRANCH  17  23
ENDBRANCH   7  17
ENDBRANCH  13  14
ENDBRANCH  11  13
TORSDOF 9
ENDMDL
MODEL 5
REMARK VINA RESULT:      -3.5     18.302     18.946
REMARK  Name = 40781599
REMARK  10 active torsions:
REMARK  status: ('A' for Active; 'I' for Inactive)
REMARK    1  A    between atoms: O_2  and  C_8
REMARK    2  A    between atoms: O_3  and  C_9
REMARK    3  A    between atoms: N_6  and  C_12
REMARK    4  A    between atoms: N_7  and  C_17
REMARK    5  A    between atoms: C_10  and  C_12
REMARK    6  A    between atoms: C_11  and  C_13
REMARK    7  A    between atoms: C_13  and  C_14
REMARK    8  A    between atoms: C_15  and  C_16
REMARK    9  A    between atoms: C_17  and  C_23
REMARK   10  A    between atoms: C_22  and  C_24
REMARK                            x       y       z     vdW  Elec       q    Type
REMARK                         _______ _______ _______ _____ _____    ______ ____
ROOT
ATOM      1  O   UNL     1      14.876  -7.075  29.467  0.00  0.00    -0.366 OA
ATOM      8  C   UNL     1      16.477  -6.197  30.958  0.00  0.00    +0.176 C 
ATOM      9  C   UNL     1      15.202  -6.446  31.738  0.00  0.00    +0.175 C 
ATOM     10  C   UNL     1      15.954  -6.126  29.533  0.00  0.00    +0.167 C 
ATOM     11  C   UNL     1      14.442  -7.389  30.811  0.00  0.00    +0.158 C 
ENDROOT
BRANCH   8   2
ATOM      2  O   UNL     1      17.143  -5.012  31.337  0.00  0.00    -0.387 OA
ATOM     26  H   UNL     1      17.830  -4.837  30.671  0.00  0.00    +0.210 HD
ENDBRANCH   8   2
BRANCH   9   3
ATOM      3  O   UNL     1      14.449  -5.238  31.854  0.00  0.00    -0.387 OA
ATOM     27  H   UNL     1      13.723  -5.408  32.478  0.00  0.00    +0.210 HD
ENDBRANCH   9   3
BRANCH  10  12
ATOM     12  C   UNL     1      17.002  -6.469  28.490  0.00  0.00    +0.138 C 
BRANCH  12   6
ATOM      5  O   UNL     1      16.906  -6.907  25.653  0.00  0.00    -0.270 OA
ATOM      6  N   UNL     1      17.062  -5.468  27.467  0.00  0.00    -0.309 N 
ATOM     15  C   UNL     1      17.008  -5.771  26.108  0.00  0.00    +0.244 C 
ATOM     28  H   UNL     1      17.092  -4.502  27.775  0.00  0.00    +0.149 HD
BRANCH  15  16
ATOM     16  C   UNL     1      17.110  -4.621  25.174  0.00  0.00    +0.037 A 
ATOM     18  C   UNL     1      17.231  -3.324  25.674  0.00  0.00    +0.013 A 
ATOM     19  C   UNL     1      17.084  -4.837  23.797  0.00  0.00    +0.013 A 
ATOM     20  C   UNL     1      17.325  -2.244  24.797  0.00  0.00    +0.004 A 
ATOM     21  C   UNL     1      17.178  -3.756  22.919  0.00  0.00    +0.004 A 
ATOM     22  C   UNL     1      17.298  -2.460  23.419  0.00  0.00    -0.050 A 
ATOM     24  C   UNL     1      17.400  -1.304  22.481  0.00  0.00    +0.044 C 
ENDBRANCH  15  16
ENDBRANCH  12   6
ENDBRANCH  10  12
BRANCH  11  13
ATOM     13  C   UNL     1      14.753  -8.857  31.070  0.00  0.00    +0.130 C 
BRANCH  13  14
ATOM      4  O   UNL     1      13.005 -10.293  30.213  0.00  0.00    -0.276 OA
ATOM      7  N   UNL     1      14.918  -9.951  28.937  0.00  0.00    -0.304 N 
ATOM     14  C   UNL     1      14.108  -9.777  30.050  0.00  0.00    +0.216 C 
ATOM     29  H   UNL     1      15.812  -9.469  28.908  0.00  0.00    +0.150 HD
BRANCH   7  17
ATOM     17  C   UNL     1      14.547 -10.780  27.813  0.00  0.00    +0.193 C 
BRANCH  17  23
ATOM     23  C   UNL     1      15.383 -10.493  26.649  0.00  0.00    -0.087 C 
ATOM     25  C   UNL     1      16.070 -10.261  25.691  0.00  0.00    +0.005 C 
ENDBRANCH  17  23
ENDBRANCH   7  17
ENDBRANCH  13  14
ENDBRANCH  11  13
TORSDOF 9
ENDMDL
MODEL 6
REMARK VINA RESULT:      -3.2     15.860     17.539
REMARK  Name = 40781599
REMARK  10 active torsions:
REMARK  status: ('A' for Active; 'I' for Inactive)
REMARK    1  A    between atoms: O_2  and  C_8
REMARK    2  A    between atoms: O_3  and  C_9
REMARK    3  A    between atoms: N_6  and  C_12
REMARK    4  A    between atoms: N_7  and  C_17
REMARK    5  A    between atoms: C_10  and  C_12
REMARK    6  A    between atoms: C_11  and  C_13
REMARK    7  A    between atoms: C_13  and  C_14
REMARK    8  A    between atoms: C_15  and  C_16
REMARK    9  A    between atoms: C_17  and  C_23
REMARK   10  A    between atoms: C_22  and  C_24
REMARK                            x       y       z     vdW  Elec       q    Type
REMARK                         _______ _______ _______ _____ _____    ______ ____
ROOT
ATOM      1  O   UNL     1      -6.161  -8.929  10.149  0.00  0.00    -0.366 OA
ATOM      8  C   UNL     1      -5.567 -10.470  11.832  0.00  0.00    +0.176 C 
ATOM      9  C   UNL     1      -6.963  -9.966  12.134  0.00  0.00    +0.175 C 
ATOM     10  C   UNL     1      -5.035  -9.370  10.928  0.00  0.00    +0.167 C 
ATOM     11  C   UNL     1      -7.379  -9.364  10.797  0.00  0.00    +0.158 C 
ENDROOT
BRANCH   8   2
ATOM      2  O   UNL     1      -4.771 -10.637  12.986  0.00  0.00    -0.387 OA
ATOM     26  H   UNL     1      -5.204 -11.306  13.544  0.00  0.00    +0.210 HD
ENDBRANCH   8   2
BRANCH   9   3
ATOM      3  O   UNL     1      -6.912  -8.913  13.097  0.00  0.00    -0.387 OA
ATOM     27  H   UNL     1      -6.945  -8.072  12.609  0.00  0.00    +0.210 HD
ENDBRANCH   9   3
BRANCH  10  12
ATOM     12  C   UNL     1      -3.924  -9.836  10.003  0.00  0.00    +0.138 C 
BRANCH  12   6
ATOM      5  O   UNL     1      -1.940 -10.721  11.880  0.00  0.00    -0.270 OA
ATOM      6  N   UNL     1      -2.686  -9.184  10.310  0.00  0.00    -0.309 N 
ATOM     15  C   UNL     1      -1.778  -9.686  11.239  0.00  0.00    +0.244 C 
ATOM     28  H   UNL     1      -2.464  -8.351   9.776  0.00  0.00    +0.149 HD
BRANCH  15  16
ATOM     16  C   UNL     1      -0.553  -8.877  11.463  0.00  0.00    +0.037 A 
ATOM     18  C   UNL     1       0.563  -9.059  10.645  0.00  0.00    +0.013 A 
ATOM     19  C   UNL     1      -0.517  -7.936  12.491  0.00  0.00    +0.013 A 
ATOM     20  C   UNL     1       1.714  -8.300  10.856  0.00  0.00    +0.004 A 
ATOM     21  C   UNL     1       0.634  -7.177  12.703  0.00  0.00    +0.004 A 
ATOM     22  C   UNL     1       1.749  -7.359  11.886  0.00  0.00    -0.050 A 
ATOM     24  C   UNL     1       2.981  -6.547  12.111  0.00  0.00    +0.044 C 
ENDBRANCH  15  16
ENDBRANCH  12   6
ENDBRANCH  10  12
BRANCH  11  13
ATOM     13  C   UNL     1      -8.062 -10.368   9.877  0.00  0.00    +0.130 C 
BRANCH  13  14
ATOM      4  O   UNL     1      -9.883 -10.377   8.285  0.00  0.00    -0.276 OA
ATOM      7  N   UNL     1      -9.162  -8.353   9.170  0.00  0.00    -0.304 N 
ATOM     14  C   UNL     1      -9.138  -9.732   9.017  0.00  0.00    +0.216 C 
ATOM     29  H   UNL     1      -8.500  -7.924   9.810  0.00  0.00    +0.150 HD
BRANCH   7  17
ATOM     17  C   UNL     1     -10.091  -7.497   8.465  0.00  0.00    +0.193 C 
BRANCH  17  23
ATOM     23  C   UNL     1      -9.674  -6.097   8.537  0.00  0.00    -0.087 C 
ATOM     25  C   UNL     1      -9.334  -4.947   8.598  0.00  0.00    +0.005 C 
ENDBRANCH  17  23
ENDBRANCH   7  17
ENDBRANCH  13  14
ENDBRANCH  11  13
TORSDOF 9
ENDMDL
MODEL 7
REMARK VINA RESULT:      -3.1     15.713     17.711
REMARK  Name = 40781599
REMARK  10 active torsions:
REMARK  status: ('A' for Active; 'I' for Inactive)
REMARK    1  A    between atoms: O_2  and  C_8
REMARK    2  A    between atoms: O_3  and  C_9
REMARK    3  A    between atoms: N_6  and  C_12
REMARK    4  A    between atoms: N_7  and  C_17
REMARK    5  A    between atoms: C_10  and  C_12
REMARK    6  A    between atoms: C_11  and  C_13
REMARK    7  A    between atoms: C_13  and  C_14
REMARK    8  A    between atoms: C_15  and  C_16
REMARK    9  A    between atoms: C_17  and  C_23
REMARK   10  A    between atoms: C_22  and  C_24
REMARK                            x       y       z     vdW  Elec       q    Type
REMARK                         _______ _______ _______ _____ _____    ______ ____
ROOT
ATOM      1  O   UNL     1      14.057  -6.313  29.582  0.00  0.00    -0.366 OA
ATOM      8  C   UNL     1      15.130  -5.941  31.648  0.00  0.00    +0.176 C 
ATOM      9  C   UNL     1      13.641  -6.035  31.907  0.00  0.00    +0.175 C 
ATOM     10  C   UNL     1      15.161  -5.600  30.167  0.00  0.00    +0.167 C 
ATOM     11  C   UNL     1      13.137  -6.697  30.629  0.00  0.00    +0.158 C 
ENDROOT
BRANCH   8   2
ATOM      2  O   UNL     1      15.773  -4.958  32.430  0.00  0.00    -0.387 OA
ATOM     26  H   UNL     1      15.080  -4.440  32.874  0.00  0.00    +0.210 HD
ENDBRANCH   8   2
BRANCH   9   3
ATOM      3  O   UNL     1      13.068  -4.729  31.983  0.00  0.00    -0.387 OA
ATOM     27  H   UNL     1      12.905  -4.538  32.923  0.00  0.00    +0.210 HD
ENDBRANCH   9   3
BRANCH  10  12
ATOM     12  C   UNL     1      16.454  -6.008  29.483  0.00  0.00    +0.138 C 
BRANCH  12   6
ATOM      5  O   UNL     1      16.555  -7.223  26.883  0.00  0.00    -0.270 OA
ATOM      6  N   UNL     1      16.611  -5.333  28.228  0.00  0.00    -0.309 N 
ATOM     15  C   UNL     1      16.650  -6.005  27.009  0.00  0.00    +0.244 C 
ATOM     28  H   UNL     1      16.640  -4.320  28.256  0.00  0.00    +0.149 HD
BRANCH  15  16
ATOM     16  C   UNL     1      16.845  -5.162  25.801  0.00  0.00    +0.037 A 
ATOM     18  C   UNL     1      16.818  -3.771  25.909  0.00  0.00    +0.013 A 
ATOM     19  C   UNL     1      17.055  -5.762  24.560  0.00  0.00    +0.013 A 
ATOM     20  C   UNL     1      17.000  -2.981  24.775  0.00  0.00    +0.004 A 
ATOM     21  C   UNL     1      17.238  -4.970  23.425  0.00  0.00    +0.004 A 
ATOM     22  C   UNL     1      17.210  -3.580  23.532  0.00  0.00    -0.050 A 
ATOM     24  C   UNL     1      17.405  -2.734  22.320  0.00  0.00    +0.044 C 
ENDBRANCH  15  16
ENDBRANCH  12   6
ENDBRANCH  10  12
BRANCH  11  13
ATOM     13  C   UNL     1      13.132  -8.218  30.709  0.00  0.00    +0.130 C 
BRANCH  13  14
ATOM      4  O   UNL     1      12.807  -9.366  32.813  0.00  0.00    -0.276 OA
ATOM      7  N   UNL     1      10.975  -8.413  31.746  0.00  0.00    -0.304 N 
ATOM     14  C   UNL     1      12.317  -8.738  31.878  0.00  0.00    +0.216 C 
ATOM     29  H   UNL     1      10.681  -7.884  30.930  0.00  0.00    +0.150 HD
BRANCH   7  17
ATOM     17  C   UNL     1       9.974  -8.787  32.720  0.00  0.00    +0.193 C 
BRANCH  17  23
ATOM     23  C   UNL     1       8.627  -8.668  32.162  0.00  0.00    -0.087 C 
ATOM     25  C   UNL     1       7.522  -8.567  31.703  0.00  0.00    +0.005 C 
ENDBRANCH  17  23
ENDBRANCH   7  17
ENDBRANCH  13  14
ENDBRANCH  11  13
TORSDOF 9
ENDMDL
MODEL 8
REMARK VINA RESULT:      -2.4     17.734     18.772
REMARK  Name = 40781599
REMARK  10 active torsions:
REMARK  status: ('A' for Active; 'I' for Inactive)
REMARK    1  A    between atoms: O_2  and  C_8
REMARK    2  A    between atoms: O_3  and  C_9
REMARK    3  A    between atoms: N_6  and  C_12
REMARK    4  A    between atoms: N_7  and  C_17
REMARK    5  A    between atoms: C_10  and  C_12
REMARK    6  A    between atoms: C_11  and  C_13
REMARK    7  A    between atoms: C_13  and  C_14
REMARK    8  A    between atoms: C_15  and  C_16
REMARK    9  A    between atoms: C_17  and  C_23
REMARK   10  A    between atoms: C_22  and  C_24
REMARK                            x       y       z     vdW  Elec       q    Type
REMARK                         _______ _______ _______ _____ _____    ______ ____
ROOT
ATOM      1  O   UNL     1      15.289  -4.790  29.722  0.00  0.00    -0.366 OA
ATOM      8  C   UNL     1      16.589  -5.151  31.655  0.00  0.00    +0.176 C 
ATOM      9  C   UNL     1      15.298  -5.928  31.811  0.00  0.00    +0.175 C 
ATOM     10  C   UNL     1      16.200  -4.119  30.610  0.00  0.00    +0.167 C 
ATOM     11  C   UNL     1      14.782  -5.976  30.377  0.00  0.00    +0.158 C 
ENDROOT
BRANCH   8   2
ATOM      2  O   UNL     1      17.028  -4.550  32.855  0.00  0.00    -0.387 OA
ATOM     26  H   UNL     1      16.267  -4.516  33.459  0.00  0.00    +0.210 HD
ENDBRANCH   8   2
BRANCH   9   3
ATOM      3  O   UNL     1      14.363  -5.184  32.593  0.00  0.00    -0.387 OA
ATOM     27  H   UNL     1      13.582  -5.025  32.036  0.00  0.00    +0.210 HD
ENDBRANCH   9   3
BRANCH  10  12
ATOM     12  C   UNL     1      17.383  -3.585  29.822  0.00  0.00    +0.138 C 
BRANCH  12   6
ATOM      5  O   UNL     1      17.386  -2.094  27.368  0.00  0.00    -0.270 OA
ATOM      6  N   UNL     1      17.405  -4.123  28.494  0.00  0.00    -0.309 N 
ATOM     15  C   UNL     1      17.405  -3.322  27.355  0.00  0.00    +0.244 C 
ATOM     28  H   UNL     1      17.477  -5.131  28.411  0.00  0.00    +0.149 HD
BRANCH  15  16
ATOM     16  C   UNL     1      17.403  -4.034  26.051  0.00  0.00    +0.037 A 
ATOM     18  C   UNL     1      17.404  -3.308  24.859  0.00  0.00    +0.013 A 
ATOM     19  C   UNL     1      17.401  -5.428  26.018  0.00  0.00    +0.013 A 
ATOM     20  C   UNL     1      17.401  -3.977  23.635  0.00  0.00    +0.004 A 
ATOM     21  C   UNL     1      17.398  -6.097  24.794  0.00  0.00    +0.004 A 
ATOM     22  C   UNL     1      17.397  -5.372  23.603  0.00  0.00    -0.050 A 
ATOM     24  C   UNL     1      17.395  -6.086  22.293  0.00  0.00    +0.044 C 
ENDBRANCH  15  16
ENDBRANCH  12   6
ENDBRANCH  10  12
BRANCH  11  13
ATOM     13  C   UNL     1      15.285  -7.187  29.602  0.00  0.00    +0.130 C 
BRANCH  13  14
ATOM      4  O   UNL     1      15.874  -9.195  30.814  0.00  0.00    -0.276 OA
ATOM      7  N   UNL     1      13.640  -8.782  30.323  0.00  0.00    -0.304 N 
ATOM     14  C   UNL     1      14.998  -8.495  30.315  0.00  0.00    +0.216 C 
ATOM     29  H   UNL     1      13.003  -8.126  29.882  0.00  0.00    +0.150 HD
BRANCH   7  17
ATOM     17  C   UNL     1      13.089  -9.970  30.936  0.00  0.00    +0.193 C 
BRANCH  17  23
ATOM     23  C   UNL     1      11.837  -9.671  31.630  0.00  0.00    -0.087 C 
ATOM     25  C   UNL     1      10.807  -9.425  32.197  0.00  0.00    +0.005 C 
ENDBRANCH  17  23
ENDBRANCH   7  17
ENDBRANCH  13  14
ENDBRANCH  11  13
TORSDOF 9
ENDMDL
MODEL 9
REMARK VINA RESULT:      -2.3      2.025      4.378
REMARK  Name = 40781599
REMARK  10 active torsions:
REMARK  status: ('A' for Active; 'I' for Inactive)
REMARK    1  A    between atoms: O_2  and  C_8
REMARK    2  A    between atoms: O_3  and  C_9
REMARK    3  A    between atoms: N_6  and  C_12
REMARK    4  A    between atoms: N_7  and  C_17
REMARK    5  A    between atoms: C_10  and  C_12
REMARK    6  A    between atoms: C_11  and  C_13
REMARK    7  A    between atoms: C_13  and  C_14
REMARK    8  A    between atoms: C_15  and  C_16
REMARK    9  A    between atoms: C_17  and  C_23
REMARK   10  A    between atoms: C_22  and  C_24
REMARK                            x       y       z     vdW  Elec       q    Type
REMARK                         _______ _______ _______ _____ _____    ______ ____
ROOT
ATOM      1  O   UNL     1      -4.106  -0.335  25.811  0.00  0.00    -0.366 OA
ATOM      8  C   UNL     1      -2.671  -1.430  24.294  0.00  0.00    +0.176 C 
ATOM      9  C   UNL     1      -4.081  -1.520  23.748  0.00  0.00    +0.175 C 
ATOM     10  C   UNL     1      -2.930  -1.163  25.767  0.00  0.00    +0.167 C 
ATOM     11  C   UNL     1      -4.800  -0.437  24.546  0.00  0.00    +0.158 C 
ENDROOT
BRANCH   8   2
ATOM      2  O   UNL     1      -1.918  -2.608  24.094  0.00  0.00    -0.387 OA
ATOM     26  H   UNL     1      -2.043  -2.880  23.169  0.00  0.00    +0.210 HD
ENDBRANCH   8   2
BRANCH   9   3
ATOM      3  O   UNL     1      -4.665  -2.778  24.087  0.00  0.00    -0.387 OA
ATOM     27  H   UNL     1      -5.367  -2.607  24.738  0.00  0.00    +0.210 HD
ENDBRANCH   9   3
BRANCH  10  12
ATOM     12  C   UNL     1      -1.780  -0.456  26.462  0.00  0.00    +0.138 C 
BRANCH  12   6
ATOM      5  O   UNL     1      -1.345   1.481  24.387  0.00  0.00    -0.270 OA
ATOM      6  N   UNL     1      -0.635  -0.363  25.605  0.00  0.00    -0.309 N 
ATOM     15  C   UNL     1      -0.507   0.614  24.620  0.00  0.00    +0.244 C 
ATOM     28  H   UNL     1       0.120  -1.016  25.780  0.00  0.00    +0.149 HD
BRANCH  15  16
ATOM     16  C   UNL     1       0.729   0.558  23.798  0.00  0.00    +0.037 A 
ATOM     18  C   UNL     1       1.756   1.477  24.019  0.00  0.00    +0.013 A 
ATOM     19  C   UNL     1       0.863  -0.412  22.805  0.00  0.00    +0.013 A 
ATOM     20  C   UNL     1       2.916   1.425  23.246  0.00  0.00    +0.004 A 
ATOM     21  C   UNL     1       2.023  -0.463  22.032  0.00  0.00    +0.004 A 
ATOM     22  C   UNL     1       3.049   0.455  22.252  0.00  0.00    -0.050 A 
ATOM     24  C   UNL     1       4.290   0.400  21.426  0.00  0.00    +0.044 C 
ENDBRANCH  15  16
ENDBRANCH  12   6
ENDBRANCH  10  12
BRANCH  11  13
ATOM     13  C   UNL     1      -4.748   0.930  23.875  0.00  0.00    +0.130 C 
BRANCH  13  14
ATOM      4  O   UNL     1      -5.861   2.358  25.480  0.00  0.00    -0.276 OA
ATOM      7  N   UNL     1      -3.618   2.729  24.996  0.00  0.00    -0.304 N 
ATOM     14  C   UNL     1      -4.833   2.071  24.872  0.00  0.00    +0.216 C 
ATOM     29  H   UNL     1      -2.830   2.401  24.445  0.00  0.00    +0.150 HD
BRANCH   7  17
ATOM     17  C   UNL     1      -3.418   3.857  25.878  0.00  0.00    +0.193 C 
BRANCH  17  23
ATOM     23  C   UNL     1      -2.264   4.652  25.461  0.00  0.00    -0.087 C 
ATOM     25  C   UNL     1      -1.314   5.303  25.119  0.00  0.00    +0.005 C 
ENDBRANCH  17  23
ENDBRANCH   7  17
ENDBRANCH  13  14
ENDBRANCH  11  13
TORSDOF 9
ENDMDL
MODEL 10
REMARK VINA RESULT:      -2.1      1.731      6.091
REMARK  Name = 40781599
REMARK  10 active torsions:
REMARK  status: ('A' for Active; 'I' for Inactive)
REMARK    1  A    between atoms: O_2  and  C_8
REMARK    2  A    between atoms: O_3  and  C_9
REMARK    3  A    between atoms: N_6  and  C_12
REMARK    4  A    between atoms: N_7  and  C_17
REMARK    5  A    between atoms: C_10  and  C_12
REMARK    6  A    between atoms: C_11  and  C_13
REMARK    7  A    between atoms: C_13  and  C_14
REMARK    8  A    between atoms: C_15  and  C_16
REMARK    9  A    between atoms: C_17  and  C_23
REMARK   10  A    between atoms: C_22  and  C_24
REMARK                            x       y       z     vdW  Elec       q    Type
REMARK                         _______ _______ _______ _____ _____    ______ ____
ROOT
ATOM      1  O   UNL     1      -2.363   3.633  26.745  0.00  0.00    -0.366 OA
ATOM      8  C   UNL     1      -2.732   4.090  24.462  0.00  0.00    +0.176 C 
ATOM      9  C   UNL     1      -1.270   4.349  24.758  0.00  0.00    +0.175 C 
ATOM     10  C   UNL     1      -3.345   4.183  25.849  0.00  0.00    +0.167 C 
ATOM     11  C   UNL     1      -1.079   3.614  26.080  0.00  0.00    +0.158 C 
ENDROOT
BRANCH   8   2
ATOM      2  O   UNL     1      -3.297   5.028  23.570  0.00  0.00    -0.387 OA
ATOM     26  H   UNL     1      -3.788   4.529  22.895  0.00  0.00    +0.210 HD
ENDBRANCH   8   2
BRANCH   9   3
ATOM      3  O   UNL     1      -1.049   5.740  24.989  0.00  0.00    -0.387 OA
ATOM     27  H   UNL     1      -1.446   6.224  24.244  0.00  0.00    +0.210 HD
ENDBRANCH   9   3
BRANCH  10  12
ATOM     12  C   UNL     1      -4.648   3.414  25.984  0.00  0.00    +0.138 C 
BRANCH  12   6
ATOM      5  O   UNL     1      -4.061   2.028  23.539  0.00  0.00    -0.270 OA
ATOM      6  N   UNL     1      -4.437   2.006  25.829  0.00  0.00    -0.309 N 
ATOM     15  C   UNL     1      -4.156   1.415  24.600  0.00  0.00    +0.244 C 
ATOM     28  H   UNL     1      -4.447   1.446  26.675  0.00  0.00    +0.149 HD
BRANCH  15  16
ATOM     16  C   UNL     1      -3.990  -0.061  24.602  0.00  0.00    +0.037 A 
ATOM     18  C   UNL     1      -4.470  -0.819  23.534  0.00  0.00    +0.013 A 
ATOM     19  C   UNL     1      -3.354  -0.689  25.673  0.00  0.00    +0.013 A 
ATOM     20  C   UNL     1      -4.315  -2.205  23.537  0.00  0.00    +0.004 A 
ATOM     21  C   UNL     1      -3.200  -2.076  25.676  0.00  0.00    +0.004 A 
ATOM     22  C   UNL     1      -3.680  -2.834  24.609  0.00  0.00    -0.050 A 
ATOM     24  C   UNL     1      -3.515  -4.316  24.611  0.00  0.00    +0.044 C 
ENDBRANCH  15  16
ENDBRANCH  12   6
ENDBRANCH  10  12
BRANCH  11  13
ATOM     13  C   UNL     1      -0.668   2.159  25.900  0.00  0.00    +0.130 C 
BRANCH  13  14
ATOM      4  O   UNL     1       0.499   2.803  23.882  0.00  0.00    -0.276 OA
ATOM      7  N   UNL     1       0.027   0.557  24.251  0.00  0.00    -0.304 N 
ATOM     14  C   UNL     1       0.019   1.907  24.571  0.00  0.00    +0.216 C 
ATOM     29  H   UNL     1      -0.397  -0.098  24.900  0.00  0.00    +0.150 HD
BRANCH   7  17
ATOM     17  C   UNL     1       0.618   0.039  23.038  0.00  0.00    +0.193 C 
BRANCH  17  23
ATOM     23  C   UNL     1       2.043   0.360  22.967  0.00  0.00    -0.087 C 
ATOM     25  C   UNL     1       3.212   0.628  22.908  0.00  0.00    +0.005 C 
ENDBRANCH  17  23
ENDBRANCH   7  17
ENDBRANCH  13  14
ENDBRANCH  11  13
TORSDOF 9
ENDMDL
