MODEL 1
REMARK VINA RESULT:      -0.5      0.000      0.000
REMARK  Name = 7134496
REMARK  12 active torsions:
REMARK  status: ('A' for Active; 'I' for Inactive)
REMARK    1  A    between atoms: S_1  and  C_22
REMARK    2  A    between atoms: S_1  and  C_26
REMARK    3  A    between atoms: O_2  and  C_13
REMARK    4  A    between atoms: O_3  and  C_16
REMARK    5  A    between atoms: O_4  and  C_18
REMARK    6  A    between atoms: N_10  and  C_14
REMARK    7  A    between atoms: N_11  and  C_21
REMARK    8  A    between atoms: C_13  and  C_19
REMARK    9  A    between atoms: C_20  and  C_22
REMARK   10  A    between atoms: C_21  and  C_23
REMARK   11  A    between atoms: C_21  and  C_24
REMARK   12  A    between atoms: C_23  and  C_25
REMARK                            x       y       z     vdW  Elec       q    Type
REMARK                         _______ _______ _______ _____ _____    ______ ____
ROOT
ATOM     13  C   UNL     1      -3.983  -0.148  25.113  0.00  0.00    +0.146 C 
ATOM     14  C   UNL     1      -1.537  -0.816  24.939  0.00  0.00    +0.107 C 
ATOM     15  C   UNL     1      -2.562   0.310  24.773  0.00  0.00    +0.069 C 
ATOM     16  C   UNL     1      -1.934  -2.072  24.152  0.00  0.00    +0.163 C 
ATOM     17  C   UNL     1      -4.373  -1.385  24.307  0.00  0.00    +0.078 C 
ATOM     18  C   UNL     1      -3.362  -2.521  24.472  0.00  0.00    +0.148 C 
ENDROOT
BRANCH  13  19
ATOM      5  O   UNL     1      -6.150   0.732  24.628  0.00  0.00    -0.273 OA
ATOM     11  N   UNL     1      -4.377   2.209  24.933  0.00  0.00    -0.301 N 
ATOM     19  C   UNL     1      -4.967   0.958  24.870  0.00  0.00    +0.246 C 
ATOM     41  H   UNL     1      -3.379   2.290  25.102  0.00  0.00    +0.150 HD
BRANCH  11  21
ATOM     21  C   UNL     1      -5.103   3.438  24.714  0.00  0.00    +0.163 C 
BRANCH  21  24
ATOM      9  O   UNL     1      -6.185   2.799  26.794  0.00  0.00    -0.274 OA
ATOM     12  N   UNL     1      -6.567   4.905  25.959  0.00  0.00    -0.328 N 
ATOM     24  C   UNL     1      -6.007   3.645  25.921  0.00  0.00    +0.231 C 
ATOM     42  H   UNL     1      -6.393   5.602  25.243  0.00  0.00    +0.145 HD
ATOM     43  H   UNL     1      -7.181   5.178  26.720  0.00  0.00    +0.145 HD
ENDBRANCH  21  24
BRANCH  21  23
ATOM     23  C   UNL     1      -4.171   4.642  24.532  0.00  0.00    +0.067 C 
BRANCH  23  25
ATOM     25  C   UNL     1      -2.747   4.330  24.931  0.00  0.00    -0.045 A 
ATOM     27  C   UNL     1      -2.511   3.518  26.028  0.00  0.00    +0.004 A 
ATOM     28  C   UNL     1      -1.703   4.861  24.190  0.00  0.00    +0.004 A 
ATOM     31  C   UNL     1      -1.197   3.230  26.396  0.00  0.00    +0.000 A 
ATOM     32  C   UNL     1      -0.389   4.573  24.558  0.00  0.00    +0.000 A 
ATOM     33  C   UNL     1      -0.136   3.758  25.661  0.00  0.00    +0.000 A 
ENDBRANCH  23  25
ENDBRANCH  21  23
ENDBRANCH  11  21
ENDBRANCH  13  19
BRANCH  14  10
ATOM      6  O   UNL     1      -0.949   1.456  23.264  0.00  0.00    -0.274 OA
ATOM     10  N   UNL     1      -0.230  -0.351  24.530  0.00  0.00    -0.308 N 
ATOM     20  C   UNL     1      -0.048   0.757  23.718  0.00  0.00    +0.235 C 
ATOM     37  H   UNL     1       0.575  -0.909  24.803  0.00  0.00    +0.149 HD
BRANCH  20  22
ATOM     22  C   UNL     1       1.417   1.010  23.458  0.00  0.00    +0.267 C 
BRANCH  22   1
ATOM      1  S   UNL     1       2.179  -0.301  22.566  0.00  0.00    +0.005 S 
ATOM      7  O   UNL     1       1.517  -1.542  22.938  0.00  0.00    -0.169 OA
ATOM      8  O   UNL     1       2.281   0.077  21.166  0.00  0.00    -0.169 OA
BRANCH   1  26
ATOM     26  C   UNL     1       3.829  -0.358  23.203  0.00  0.00    +0.089 A 
ATOM     29  C   UNL     1       4.293  -1.531  23.770  0.00  0.00    +0.027 A 
ATOM     30  C   UNL     1       4.621   0.774  23.123  0.00  0.00    +0.027 A 
ATOM     34  C   UNL     1       5.593  -1.574  24.274  0.00  0.00    +0.002 A 
ATOM     35  C   UNL     1       5.921   0.731  23.626  0.00  0.00    +0.002 A 
ATOM     36  C   UNL     1       6.407  -0.444  24.202  0.00  0.00    +0.000 A 
ENDBRANCH   1  26
ENDBRANCH  22   1
ENDBRANCH  20  22
ENDBRANCH  14  10
BRANCH  13   2
ATOM      2  O   UNL     1      -4.092  -0.442  26.500  0.00  0.00    -0.379 OA
ATOM     38  H   UNL     1      -4.840  -1.053  26.627  0.00  0.00    +0.211 HD
ENDBRANCH  13   2
BRANCH  16   3
ATOM      3  O   UNL     1      -1.055  -3.142  24.505  0.00  0.00    -0.387 OA
ATOM     39  H   UNL     1      -0.397  -2.790  25.128  0.00  0.00    +0.210 HD
ENDBRANCH  16   3
BRANCH  18   4
ATOM      4  O   UNL     1      -3.712  -3.582  23.581  0.00  0.00    -0.389 OA
ATOM     40  H   UNL     1      -3.380  -4.411  23.965  0.00  0.00    +0.210 HD
ENDBRANCH  18   4
TORSDOF 12
ENDMDL
MODEL 2
REMARK VINA RESULT:       1.7      2.535      8.013
REMARK  Name = 7134496
REMARK  12 active torsions:
REMARK  status: ('A' for Active; 'I' for Inactive)
REMARK    1  A    between atoms: S_1  and  C_22
REMARK    2  A    between atoms: S_1  and  C_26
REMARK    3  A    between atoms: O_2  and  C_13
REMARK    4  A    between atoms: O_3  and  C_16
REMARK    5  A    between atoms: O_4  and  C_18
REMARK    6  A    between atoms: N_10  and  C_14
REMARK    7  A    between atoms: N_11  and  C_21
REMARK    8  A    between atoms: C_13  and  C_19
REMARK    9  A    between atoms: C_20  and  C_22
REMARK   10  A    between atoms: C_21  and  C_23
REMARK   11  A    between atoms: C_21  and  C_24
REMARK   12  A    between atoms: C_23  and  C_25
REMARK                            x       y       z     vdW  Elec       q    Type
REMARK                         _______ _______ _______ _____ _____    ______ ____
ROOT
ATOM     13  C   UNL     1      -0.139   2.207  25.285  0.00  0.00    +0.146 C 
ATOM     14  C   UNL     1      -2.138   3.597  26.015  0.00  0.00    +0.107 C 
ATOM     15  C   UNL     1      -1.642   2.216  25.576  0.00  0.00    +0.069 C 
ATOM     16  C   UNL     1      -1.745   4.691  25.012  0.00  0.00    +0.163 C 
ATOM     17  C   UNL     1       0.234   3.286  24.270  0.00  0.00    +0.078 C 
ATOM     18  C   UNL     1      -0.246   4.673  24.701  0.00  0.00    +0.148 C 
ENDROOT
BRANCH  13  19
ATOM      5  O   UNL     1      -0.006  -0.175  25.378  0.00  0.00    -0.273 OA
ATOM     11  N   UNL     1       1.070   0.946  23.645  0.00  0.00    -0.301 N 
ATOM     19  C   UNL     1       0.296   0.859  24.790  0.00  0.00    +0.246 C 
ATOM     41  H   UNL     1       1.298   1.855  23.255  0.00  0.00    +0.150 HD
BRANCH  11  21
ATOM     21  C   UNL     1       1.633  -0.208  22.982  0.00  0.00    +0.163 C 
BRANCH  21  24
ATOM      9  O   UNL     1      -0.501  -1.230  22.427  0.00  0.00    -0.274 OA
ATOM     12  N   UNL     1       0.894  -0.598  20.714  0.00  0.00    -0.328 N 
ATOM     24  C   UNL     1       0.564  -0.750  22.045  0.00  0.00    +0.231 C 
ATOM     42  H   UNL     1       1.767  -0.178  20.413  0.00  0.00    +0.145 HD
ATOM     43  H   UNL     1       0.262  -0.907  19.983  0.00  0.00    +0.145 HD
ENDBRANCH  21  24
BRANCH  21  23
ATOM     23  C   UNL     1       2.906   0.133  22.200  0.00  0.00    +0.067 C 
BRANCH  23  25
ATOM     25  C   UNL     1       4.159  -0.116  23.006  0.00  0.00    -0.045 A 
ATOM     27  C   UNL     1       5.064   0.916  23.192  0.00  0.00    +0.004 A 
ATOM     28  C   UNL     1       4.380  -1.373  23.546  0.00  0.00    +0.004 A 
ATOM     31  C   UNL     1       6.221   0.686  23.936  0.00  0.00    +0.000 A 
ATOM     32  C   UNL     1       5.537  -1.604  24.291  0.00  0.00    +0.000 A 
ATOM     33  C   UNL     1       6.458  -0.574  24.485  0.00  0.00    +0.000 A 
ENDBRANCH  23  25
ENDBRANCH  21  23
ENDBRANCH  11  21
ENDBRANCH  13  19
BRANCH  14  10
ATOM      6  O   UNL     1      -4.153   3.651  23.953  0.00  0.00    -0.274 OA
ATOM     10  N   UNL     1      -3.572   3.567  26.199  0.00  0.00    -0.308 N 
ATOM     20  C   UNL     1      -4.465   3.597  25.139  0.00  0.00    +0.235 C 
ATOM     37  H   UNL     1      -3.925   3.591  27.151  0.00  0.00    +0.149 HD
BRANCH  20  22
ATOM     22  C   UNL     1      -5.893   3.550  25.625  0.00  0.00    +0.267 C 
BRANCH  22   1
ATOM      1  S   UNL     1      -6.570   1.927  25.565  0.00  0.00    +0.005 S 
ATOM      7  O   UNL     1      -7.007   1.573  26.907  0.00  0.00    -0.169 OA
ATOM      8  O   UNL     1      -7.501   1.844  24.452  0.00  0.00    -0.169 OA
BRANCH   1  26
ATOM     26  C   UNL     1      -5.191   0.896  25.158  0.00  0.00    +0.089 A 
ATOM     29  C   UNL     1      -4.678   0.932  23.874  0.00  0.00    +0.027 A 
ATOM     30  C   UNL     1      -4.654   0.073  26.132  0.00  0.00    +0.027 A 
ATOM     34  C   UNL     1      -3.592   0.118  23.553  0.00  0.00    +0.002 A 
ATOM     35  C   UNL     1      -3.568  -0.742  25.811  0.00  0.00    +0.002 A 
ATOM     36  C   UNL     1      -3.037  -0.719  24.520  0.00  0.00    +0.000 A 
ENDBRANCH   1  26
ENDBRANCH  22   1
ENDBRANCH  20  22
ENDBRANCH  14  10
BRANCH  13   2
ATOM      2  O   UNL     1       0.601   2.418  26.481  0.00  0.00    -0.379 OA
ATOM     38  H   UNL     1       1.433   2.867  26.253  0.00  0.00    +0.211 HD
ENDBRANCH  13   2
BRANCH  16   3
ATOM      3  O   UNL     1      -2.055   5.970  25.571  0.00  0.00    -0.387 OA
ATOM     39  H   UNL     1      -1.788   5.957  26.505  0.00  0.00    +0.210 HD
ENDBRANCH  16   3
BRANCH  18   4
ATOM      4  O   UNL     1       0.007   5.598  23.642  0.00  0.00    -0.389 OA
ATOM     40  H   UNL     1      -0.419   5.252  22.841  0.00  0.00    +0.210 HD
ENDBRANCH  18   4
TORSDOF 12
ENDMDL
MODEL 3
REMARK VINA RESULT:       2.7      2.787      7.734
REMARK  Name = 7134496
REMARK  12 active torsions:
REMARK  status: ('A' for Active; 'I' for Inactive)
REMARK    1  A    between atoms: S_1  and  C_22
REMARK    2  A    between atoms: S_1  and  C_26
REMARK    3  A    between atoms: O_2  and  C_13
REMARK    4  A    between atoms: O_3  and  C_16
REMARK    5  A    between atoms: O_4  and  C_18
REMARK    6  A    between atoms: N_10  and  C_14
REMARK    7  A    between atoms: N_11  and  C_21
REMARK    8  A    between atoms: C_13  and  C_19
REMARK    9  A    between atoms: C_20  and  C_22
REMARK   10  A    between atoms: C_21  and  C_23
REMARK   11  A    between atoms: C_21  and  C_24
REMARK   12  A    between atoms: C_23  and  C_25
REMARK                            x       y       z     vdW  Elec       q    Type
REMARK                         _______ _______ _______ _____ _____    ______ ____
ROOT
ATOM     13  C   UNL     1       0.161   2.629  25.009  0.00  0.00    +0.146 C 
ATOM     14  C   UNL     1      -2.048   3.358  26.034  0.00  0.00    +0.107 C 
ATOM     15  C   UNL     1      -1.300   2.257  25.274  0.00  0.00    +0.069 C 
ATOM     16  C   UNL     1      -1.923   4.719  25.336  0.00  0.00    +0.163 C 
ATOM     17  C   UNL     1       0.269   3.975  24.296  0.00  0.00    +0.078 C 
ATOM     18  C   UNL     1      -0.465   5.086  25.050  0.00  0.00    +0.148 C 
ENDROOT
BRANCH  13  19
ATOM      5  O   UNL     1       2.011   1.664  23.846  0.00  0.00    -0.273 OA
ATOM     11  N   UNL     1      -0.006   0.504  23.914  0.00  0.00    -0.301 N 
ATOM     19  C   UNL     1       0.841   1.561  24.203  0.00  0.00    +0.246 C 
ATOM     41  H   UNL     1      -0.973   0.530  24.222  0.00  0.00    +0.150 HD
BRANCH  11  21
ATOM     21  C   UNL     1       0.399  -0.641  23.131  0.00  0.00    +0.163 C 
BRANCH  21  24
ATOM      9  O   UNL     1       2.789  -0.804  23.540  0.00  0.00    -0.274 OA
ATOM     12  N   UNL     1       2.073   0.096  21.551  0.00  0.00    -0.328 N 
ATOM     24  C   UNL     1       1.872  -0.457  22.799  0.00  0.00    +0.231 C 
ATOM     42  H   UNL     1       1.307   0.356  20.939  0.00  0.00    +0.145 HD
ATOM     43  H   UNL     1       3.011   0.261  21.200  0.00  0.00    +0.145 HD
ENDBRANCH  21  24
BRANCH  21  23
ATOM     23  C   UNL     1       0.180  -1.963  23.876  0.00  0.00    +0.067 C 
BRANCH  23  25
ATOM     25  C   UNL     1      -1.150  -2.005  24.591  0.00  0.00    -0.045 A 
ATOM     27  C   UNL     1      -1.332  -1.243  25.733  0.00  0.00    +0.004 A 
ATOM     28  C   UNL     1      -2.164  -2.807  24.091  0.00  0.00    +0.004 A 
ATOM     31  C   UNL     1      -2.560  -1.282  26.393  0.00  0.00    +0.000 A 
ATOM     32  C   UNL     1      -3.392  -2.846  24.751  0.00  0.00    +0.000 A 
ATOM     33  C   UNL     1      -3.590  -2.084  25.903  0.00  0.00    +0.000 A 
ENDBRANCH  23  25
ENDBRANCH  21  23
ENDBRANCH  11  21
ENDBRANCH  13  19
BRANCH  14  10
ATOM      6  O   UNL     1      -4.351   4.957  25.360  0.00  0.00    -0.274 OA
ATOM     10  N   UNL     1      -3.438   2.989  26.186  0.00  0.00    -0.308 N 
ATOM     20  C   UNL     1      -4.481   3.831  25.832  0.00  0.00    +0.235 C 
ATOM     37  H   UNL     1      -3.643   2.100  26.633  0.00  0.00    +0.149 HD
BRANCH  20  22
ATOM     22  C   UNL     1      -5.819   3.185  26.096  0.00  0.00    +0.267 C 
BRANCH  22   1
ATOM      1  S   UNL     1      -6.028   1.682  25.205  0.00  0.00    +0.005 S 
ATOM      7  O   UNL     1      -5.760   0.580  26.115  0.00  0.00    -0.169 OA
ATOM      8  O   UNL     1      -7.285   1.736  24.476  0.00  0.00    -0.169 OA
BRANCH   1  26
ATOM     26  C   UNL     1      -4.735   1.711  23.997  0.00  0.00    +0.089 A 
ATOM     29  C   UNL     1      -4.001   0.561  23.768  0.00  0.00    +0.027 A 
ATOM     30  C   UNL     1      -4.483   2.884  23.308  0.00  0.00    +0.027 A 
ATOM     34  C   UNL     1      -2.980   0.585  22.817  0.00  0.00    +0.002 A 
ATOM     35  C   UNL     1      -3.462   2.908  22.357  0.00  0.00    +0.002 A 
ATOM     36  C   UNL     1      -2.711   1.758  22.111  0.00  0.00    +0.000 A 
ENDBRANCH   1  26
ENDBRANCH  22   1
ENDBRANCH  20  22
ENDBRANCH  14  10
BRANCH  13   2
ATOM      2  O   UNL     1       0.888   2.689  26.230  0.00  0.00    -0.379 OA
ATOM     38  H   UNL     1       1.572   3.376  26.147  0.00  0.00    +0.211 HD
ENDBRANCH  13   2
BRANCH  16   3
ATOM      3  O   UNL     1      -2.464   5.731  26.189  0.00  0.00    -0.387 OA
ATOM     39  H   UNL     1      -2.679   6.500  25.635  0.00  0.00    +0.210 HD
ENDBRANCH  16   3
BRANCH  18   4
ATOM      4  O   UNL     1      -0.445   6.273  24.255  0.00  0.00    -0.389 OA
ATOM     40  H   UNL     1      -0.081   6.988  24.802  0.00  0.00    +0.210 HD
ENDBRANCH  18   4
TORSDOF 12
ENDMDL
MODEL 4
REMARK VINA RESULT:       2.8      1.936      4.514
REMARK  Name = 7134496
REMARK  12 active torsions:
REMARK  status: ('A' for Active; 'I' for Inactive)
REMARK    1  A    between atoms: S_1  and  C_22
REMARK    2  A    between atoms: S_1  and  C_26
REMARK    3  A    between atoms: O_2  and  C_13
REMARK    4  A    between atoms: O_3  and  C_16
REMARK    5  A    between atoms: O_4  and  C_18
REMARK    6  A    between atoms: N_10  and  C_14
REMARK    7  A    between atoms: N_11  and  C_21
REMARK    8  A    between atoms: C_13  and  C_19
REMARK    9  A    between atoms: C_20  and  C_22
REMARK   10  A    between atoms: C_21  and  C_23
REMARK   11  A    between atoms: C_21  and  C_24
REMARK   12  A    between atoms: C_23  and  C_25
REMARK                            x       y       z     vdW  Elec       q    Type
REMARK                         _______ _______ _______ _____ _____    ______ ____
ROOT
ATOM     13  C   UNL     1      -3.036   3.493  24.387  0.00  0.00    +0.146 C 
ATOM     14  C   UNL     1      -0.866   2.891  23.209  0.00  0.00    +0.107 C 
ATOM     15  C   UNL     1      -2.080   2.368  23.983  0.00  0.00    +0.069 C 
ATOM     16  C   UNL     1      -0.141   4.008  23.970  0.00  0.00    +0.163 C 
ATOM     17  C   UNL     1      -2.305   4.588  25.162  0.00  0.00    +0.078 C 
ATOM     18  C   UNL     1      -1.096   5.127  24.395  0.00  0.00    +0.148 C 
ENDROOT
BRANCH  13  19
ATOM      5  O   UNL     1      -4.880   3.683  25.892  0.00  0.00    -0.273 OA
ATOM     11  N   UNL     1      -4.293   1.579  25.091  0.00  0.00    -0.301 N 
ATOM     19  C   UNL     1      -4.174   2.954  25.203  0.00  0.00    +0.246 C 
ATOM     41  H   UNL     1      -3.632   1.057  24.524  0.00  0.00    +0.150 HD
BRANCH  11  21
ATOM     21  C   UNL     1      -5.295   0.812  25.796  0.00  0.00    +0.163 C 
BRANCH  21  24
ATOM      9  O   UNL     1      -7.195   1.774  24.624  0.00  0.00    -0.274 OA
ATOM     12  N   UNL     1      -7.087   1.993  26.909  0.00  0.00    -0.328 N 
ATOM     24  C   UNL     1      -6.604   1.580  25.684  0.00  0.00    +0.231 C 
ATOM     42  H   UNL     1      -6.600   1.805  27.779  0.00  0.00    +0.145 HD
ATOM     43  H   UNL     1      -7.960   2.506  26.978  0.00  0.00    +0.145 HD
ENDBRANCH  21  24
BRANCH  21  23
ATOM     23  C   UNL     1      -5.455  -0.602  25.224  0.00  0.00    +0.067 C 
BRANCH  23  25
ATOM     25  C   UNL     1      -4.127  -1.296  25.032  0.00  0.00    -0.045 A 
ATOM     27  C   UNL     1      -3.999  -2.252  24.037  0.00  0.00    +0.004 A 
ATOM     28  C   UNL     1      -3.062  -0.964  25.854  0.00  0.00    +0.004 A 
ATOM     31  C   UNL     1      -2.773  -2.893  23.860  0.00  0.00    +0.000 A 
ATOM     32  C   UNL     1      -1.836  -1.605  25.676  0.00  0.00    +0.000 A 
ATOM     33  C   UNL     1      -1.692  -2.570  24.678  0.00  0.00    +0.000 A 
ENDBRANCH  23  25
ENDBRANCH  21  23
ENDBRANCH  11  21
ENDBRANCH  13  19
BRANCH  14  10
ATOM      6  O   UNL     1      -0.110   0.752  24.989  0.00  0.00    -0.274 OA
ATOM     10  N   UNL     1       0.039   1.800  22.923  0.00  0.00    -0.308 N 
ATOM     20  C   UNL     1       0.342   0.814  23.850  0.00  0.00    +0.235 C 
ATOM     37  H   UNL     1       0.515   1.806  22.026  0.00  0.00    +0.149 HD
BRANCH  20  22
ATOM     22  C   UNL     1       1.307  -0.195  23.279  0.00  0.00    +0.267 C 
BRANCH  22   1
ATOM      1  S   UNL     1       2.665   0.563  22.455  0.00  0.00    +0.005 S 
ATOM      7  O   UNL     1       2.650   0.127  21.067  0.00  0.00    -0.169 OA
ATOM      8  O   UNL     1       2.678   1.981  22.773  0.00  0.00    -0.169 OA
BRANCH   1  26
ATOM     26  C   UNL     1       4.091  -0.148  23.227  0.00  0.00    +0.089 A 
ATOM     29  C   UNL     1       4.052  -1.471  23.628  0.00  0.00    +0.027 A 
ATOM     30  C   UNL     1       5.216   0.636  23.416  0.00  0.00    +0.027 A 
ATOM     34  C   UNL     1       5.175  -2.030  24.238  0.00  0.00    +0.002 A 
ATOM     35  C   UNL     1       6.339   0.077  24.025  0.00  0.00    +0.002 A 
ATOM     36  C   UNL     1       6.319  -1.256  24.436  0.00  0.00    +0.000 A 
ENDBRANCH   1  26
ENDBRANCH  22   1
ENDBRANCH  20  22
ENDBRANCH  14  10
BRANCH  13   2
ATOM      2  O   UNL     1      -3.646   4.065  23.236  0.00  0.00    -0.379 OA
ATOM     38  H   UNL     1      -4.467   4.508  23.512  0.00  0.00    +0.211 HD
ENDBRANCH  13   2
BRANCH  16   3
ATOM      3  O   UNL     1       0.850   4.588  23.118  0.00  0.00    -0.387 OA
ATOM     39  H   UNL     1       0.489   5.420  22.769  0.00  0.00    +0.210 HD
ENDBRANCH  16   3
BRANCH  18   4
ATOM      4  O   UNL     1      -0.384   6.034  25.238  0.00  0.00    -0.389 OA
ATOM     40  H   UNL     1       0.510   5.676  25.367  0.00  0.00    +0.210 HD
ENDBRANCH  18   4
TORSDOF 12
ENDMDL
MODEL 5
REMARK VINA RESULT:       2.9      2.458      7.796
REMARK  Name = 7134496
REMARK  12 active torsions:
REMARK  status: ('A' for Active; 'I' for Inactive)
REMARK    1  A    between atoms: S_1  and  C_22
REMARK    2  A    between atoms: S_1  and  C_26
REMARK    3  A    between atoms: O_2  and  C_13
REMARK    4  A    between atoms: O_3  and  C_16
REMARK    5  A    between atoms: O_4  and  C_18
REMARK    6  A    between atoms: N_10  and  C_14
REMARK    7  A    between atoms: N_11  and  C_21
REMARK    8  A    between atoms: C_13  and  C_19
REMARK    9  A    between atoms: C_20  and  C_22
REMARK   10  A    between atoms: C_21  and  C_23
REMARK   11  A    between atoms: C_21  and  C_24
REMARK   12  A    between atoms: C_23  and  C_25
REMARK                            x       y       z     vdW  Elec       q    Type
REMARK                         _______ _______ _______ _____ _____    ______ ____
ROOT
ATOM     13  C   UNL     1      -0.239   2.314  24.789  0.00  0.00    +0.146 C 
ATOM     14  C   UNL     1      -2.151   3.579  25.886  0.00  0.00    +0.107 C 
ATOM     15  C   UNL     1      -1.718   2.288  25.183  0.00  0.00    +0.069 C 
ATOM     16  C   UNL     1      -1.803   4.824  25.060  0.00  0.00    +0.163 C 
ATOM     17  C   UNL     1       0.089   3.547  23.950  0.00  0.00    +0.078 C 
ATOM     18  C   UNL     1      -0.330   4.844  24.645  0.00  0.00    +0.148 C 
ENDROOT
BRANCH  13  19
ATOM      5  O   UNL     1       0.056   0.998  22.819  0.00  0.00    -0.273 OA
ATOM     11  N   UNL     1       0.530   0.047  24.890  0.00  0.00    -0.301 N 
ATOM     19  C   UNL     1       0.132   1.067  24.042  0.00  0.00    +0.246 C 
ATOM     41  H   UNL     1       0.521   0.190  25.895  0.00  0.00    +0.150 HD
BRANCH  11  21
ATOM     21  C   UNL     1       0.916  -1.265  24.421  0.00  0.00    +0.163 C 
BRANCH  21  24
ATOM      9  O   UNL     1      -0.989  -2.209  23.244  0.00  0.00    -0.274 OA
ATOM     12  N   UNL     1      -0.706  -2.722  25.465  0.00  0.00    -0.328 N 
ATOM     24  C   UNL     1      -0.359  -2.086  24.292  0.00  0.00    +0.231 C 
ATOM     42  H   UNL     1      -0.163  -2.629  26.318  0.00  0.00    +0.145 HD
ATOM     43  H   UNL     1      -1.530  -3.313  25.513  0.00  0.00    +0.145 HD
ENDBRANCH  21  24
BRANCH  21  23
ATOM     23  C   UNL     1       1.654  -1.210  23.079  0.00  0.00    +0.067 C 
BRANCH  23  25
ATOM     25  C   UNL     1       3.065  -0.688  23.222  0.00  0.00    -0.045 A 
ATOM     27  C   UNL     1       4.016  -1.466  23.861  0.00  0.00    +0.004 A 
ATOM     28  C   UNL     1       3.382   0.560  22.709  0.00  0.00    +0.004 A 
ATOM     31  C   UNL     1       5.318  -0.985  23.993  0.00  0.00    +0.000 A 
ATOM     32  C   UNL     1       4.685   1.042  22.841  0.00  0.00    +0.000 A 
ATOM     33  C   UNL     1       5.653   0.269  23.484  0.00  0.00    +0.000 A 
ENDBRANCH  23  25
ENDBRANCH  21  23
ENDBRANCH  11  21
ENDBRANCH  13  19
BRANCH  14  10
ATOM      6  O   UNL     1      -4.300   3.778  23.973  0.00  0.00    -0.274 OA
ATOM     10  N   UNL     1      -3.570   3.532  26.163  0.00  0.00    -0.308 N 
ATOM     20  C   UNL     1      -4.532   3.638  25.170  0.00  0.00    +0.235 C 
ATOM     37  H   UNL     1      -3.858   3.486  27.136  0.00  0.00    +0.149 HD
BRANCH  20  22
ATOM     22  C   UNL     1      -5.924   3.552  25.747  0.00  0.00    +0.267 C 
BRANCH  22   1
ATOM      1  S   UNL     1      -6.613   1.939  25.607  0.00  0.00    +0.005 S 
ATOM      7  O   UNL     1      -7.073   1.531  26.926  0.00  0.00    -0.169 OA
ATOM      8  O   UNL     1      -7.526   1.911  24.477  0.00  0.00    -0.169 OA
BRANCH   1  26
ATOM     26  C   UNL     1      -5.234   0.915  25.177  0.00  0.00    +0.089 A 
ATOM     29  C   UNL     1      -4.653   0.123  26.151  0.00  0.00    +0.027 A 
ATOM     30  C   UNL     1      -4.765   0.930  23.876  0.00  0.00    +0.027 A 
ATOM     34  C   UNL     1      -3.566  -0.682  25.812  0.00  0.00    +0.002 A 
ATOM     35  C   UNL     1      -3.677   0.125  23.537  0.00  0.00    +0.002 A 
ATOM     36  C   UNL     1      -3.078  -0.682  24.505  0.00  0.00    +0.000 A 
ENDBRANCH   1  26
ENDBRANCH  22   1
ENDBRANCH  20  22
ENDBRANCH  14  10
BRANCH  13   2
ATOM      2  O   UNL     1       0.585   2.308  25.949  0.00  0.00    -0.379 OA
ATOM     38  H   UNL     1       1.065   1.462  25.981  0.00  0.00    +0.211 HD
ENDBRANCH  13   2
BRANCH  16   3
ATOM      3  O   UNL     1      -2.046   5.991  25.849  0.00  0.00    -0.387 OA
ATOM     39  H   UNL     1      -1.343   6.047  26.517  0.00  0.00    +0.210 HD
ENDBRANCH  16   3
BRANCH  18   4
ATOM      4  O   UNL     1      -0.128   5.935  23.744  0.00  0.00    -0.389 OA
ATOM     40  H   UNL     1       0.745   6.316  23.933  0.00  0.00    +0.210 HD
ENDBRANCH  18   4
TORSDOF 12
ENDMDL
MODEL 6
REMARK VINA RESULT:       2.9      1.854      4.716
REMARK  Name = 7134496
REMARK  12 active torsions:
REMARK  status: ('A' for Active; 'I' for Inactive)
REMARK    1  A    between atoms: S_1  and  C_22
REMARK    2  A    between atoms: S_1  and  C_26
REMARK    3  A    between atoms: O_2  and  C_13
REMARK    4  A    between atoms: O_3  and  C_16
REMARK    5  A    between atoms: O_4  and  C_18
REMARK    6  A    between atoms: N_10  and  C_14
REMARK    7  A    between atoms: N_11  and  C_21
REMARK    8  A    between atoms: C_13  and  C_19
REMARK    9  A    between atoms: C_20  and  C_22
REMARK   10  A    between atoms: C_21  and  C_23
REMARK   11  A    between atoms: C_21  and  C_24
REMARK   12  A    between atoms: C_23  and  C_25
REMARK                            x       y       z     vdW  Elec       q    Type
REMARK                         _______ _______ _______ _____ _____    ______ ____
ROOT
ATOM     13  C   UNL     1      -3.954   2.767  24.523  0.00  0.00    +0.146 C 
ATOM     14  C   UNL     1      -1.587   3.557  24.039  0.00  0.00    +0.107 C 
ATOM     15  C   UNL     1      -2.519   2.350  24.187  0.00  0.00    +0.069 C 
ATOM     16  C   UNL     1      -1.641   4.476  25.267  0.00  0.00    +0.163 C 
ATOM     17  C   UNL     1      -3.994   3.663  25.759  0.00  0.00    +0.078 C 
ATOM     18  C   UNL     1      -3.075   4.878  25.620  0.00  0.00    +0.148 C 
ENDROOT
BRANCH  13  19
ATOM      5  O   UNL     1      -6.029   1.655  24.919  0.00  0.00    -0.273 OA
ATOM     11  N   UNL     1      -4.093   0.382  24.705  0.00  0.00    -0.301 N 
ATOM     19  C   UNL     1      -4.820   1.560  24.731  0.00  0.00    +0.246 C 
ATOM     41  H   UNL     1      -3.085   0.411  24.581  0.00  0.00    +0.150 HD
BRANCH  11  21
ATOM     21  C   UNL     1      -4.688  -0.920  24.903  0.00  0.00    +0.163 C 
BRANCH  21  24
ATOM      9  O   UNL     1      -5.057  -2.777  23.379  0.00  0.00    -0.274 OA
ATOM     12  N   UNL     1      -3.834  -0.978  22.642  0.00  0.00    -0.328 N 
ATOM     24  C   UNL     1      -4.549  -1.678  23.591  0.00  0.00    +0.231 C 
ATOM     42  H   UNL     1      -3.440  -0.060  22.823  0.00  0.00    +0.145 HD
ATOM     43  H   UNL     1      -3.678  -1.365  21.717  0.00  0.00    +0.145 HD
ENDBRANCH  21  24
BRANCH  21  23
ATOM     23  C   UNL     1      -4.022  -1.698  26.043  0.00  0.00    +0.067 C 
BRANCH  23  25
ATOM     25  C   UNL     1      -2.525  -1.806  25.867  0.00  0.00    -0.045 A 
ATOM     27  C   UNL     1      -2.005  -2.825  25.086  0.00  0.00    +0.004 A 
ATOM     28  C   UNL     1      -1.701  -0.882  26.489  0.00  0.00    +0.004 A 
ATOM     31  C   UNL     1      -0.623  -2.924  24.924  0.00  0.00    +0.000 A 
ATOM     32  C   UNL     1      -0.319  -0.981  26.327  0.00  0.00    +0.000 A 
ATOM     33  C   UNL     1       0.220  -2.003  25.544  0.00  0.00    +0.000 A 
ENDBRANCH  23  25
ENDBRANCH  21  23
ENDBRANCH  11  21
ENDBRANCH  13  19
BRANCH  14  10
ATOM      6  O   UNL     1      -0.739   0.868  23.436  0.00  0.00    -0.274 OA
ATOM     10  N   UNL     1      -0.234   3.104  23.801  0.00  0.00    -0.308 N 
ATOM     20  C   UNL     1       0.075   1.782  23.518  0.00  0.00    +0.235 C 
ATOM     37  H   UNL     1       0.516   3.780  23.916  0.00  0.00    +0.149 HD
BRANCH  20  22
ATOM     22  C   UNL     1       1.559   1.600  23.313  0.00  0.00    +0.267 C 
BRANCH  22   1
ATOM      1  S   UNL     1       1.959   0.015  22.661  0.00  0.00    +0.005 S 
ATOM      7  O   UNL     1       1.101  -0.966  23.307  0.00  0.00    -0.169 OA
ATOM      8  O   UNL     1       2.007   0.099  21.211  0.00  0.00    -0.169 OA
BRANCH   1  26
ATOM     26  C   UNL     1       3.617  -0.274  23.212  0.00  0.00    +0.089 A 
ATOM     29  C   UNL     1       3.943  -1.506  23.749  0.00  0.00    +0.027 A 
ATOM     30  C   UNL     1       4.551   0.740  23.096  0.00  0.00    +0.027 A 
ATOM     34  C   UNL     1       5.249  -1.732  24.185  0.00  0.00    +0.002 A 
ATOM     35  C   UNL     1       5.857   0.513  23.532  0.00  0.00    +0.002 A 
ATOM     36  C   UNL     1       6.206  -0.724  24.076  0.00  0.00    +0.000 A 
ENDBRANCH   1  26
ENDBRANCH  22   1
ENDBRANCH  20  22
ENDBRANCH  14  10
BRANCH  13   2
ATOM      2  O   UNL     1      -4.540   3.458  23.427  0.00  0.00    -0.379 OA
ATOM     38  H   UNL     1      -4.303   2.992  22.607  0.00  0.00    +0.211 HD
ENDBRANCH  13   2
BRANCH  16   3
ATOM      3  O   UNL     1      -0.913   5.674  24.986  0.00  0.00    -0.387 OA
ATOM     39  H   UNL     1      -0.330   5.495  24.229  0.00  0.00    +0.210 HD
ENDBRANCH  16   3
BRANCH  18   4
ATOM      4  O   UNL     1      -3.054   5.584  26.861  0.00  0.00    -0.389 OA
ATOM     40  H   UNL     1      -3.839   5.316  27.367  0.00  0.00    +0.210 HD
ENDBRANCH  18   4
TORSDOF 12
ENDMDL
