MODEL 1
REMARK VINA RESULT:      15.8      0.000      0.000
REMARK  Name = 11943112
REMARK  6 active torsions:
REMARK  status: ('A' for Active; 'I' for Inactive)
REMARK    1  A    between atoms: O_5  and  C_26
REMARK    2  A    between atoms: O_5  and  C_33
REMARK    3  A    between atoms: N_7  and  C_11
REMARK    4  A    between atoms: N_9  and  C_25
REMARK    5  A    between atoms: C_22  and  C_24
REMARK    6  A    between atoms: C_25  and  C_29
REMARK                            x       y       z     vdW  Elec       q    Type
REMARK                         _______ _______ _______ _____ _____    ______ ____
ROOT
ATOM      2  O   UNL     1       1.676  -0.766  20.891  0.00  0.00    -0.273 OA
ATOM      3  O   UNL     1      -1.023  -1.317  25.318  0.00  0.00    -0.270 OA
ATOM      6  N   UNL     1       0.853  -0.813  24.048  0.00  0.00    -0.286 N 
ATOM      8  N   UNL     1      -0.335   0.130  21.508  0.00  0.00    -0.283 N 
ATOM     10  C   UNL     1       1.508   0.112  23.132  0.00  0.00    +0.164 C 
ATOM     11  C   UNL     1       3.666  -1.253  23.402  0.00  0.00    +0.078 C 
ATOM     12  C   UNL     1       3.038   0.130  23.225  0.00  0.00    +0.054 C 
ATOM     13  C   UNL     1       3.003  -1.964  24.576  0.00  0.00    +0.041 C 
ATOM     14  C   UNL     1       1.506  -2.091  24.342  0.00  0.00    +0.111 C 
ATOM     15  C   UNL     1       0.974  -0.241  21.755  0.00  0.00    +0.238 C 
ATOM     16  C   UNL     1      -0.464  -0.622  24.470  0.00  0.00    +0.249 C 
ATOM     17  C   UNL     1      -1.277   0.434  23.810  0.00  0.00    +0.059 A 
ATOM     18  C   UNL     1      -1.268   0.669  22.424  0.00  0.00    +0.046 A 
ATOM     20  C   UNL     1      -2.239   1.067  24.617  0.00  0.00    +0.023 A 
ATOM     21  C   UNL     1      -2.268   1.484  21.868  0.00  0.00    +0.024 A 
ATOM     22  C   UNL     1      -3.192   1.913  24.053  0.00  0.00    -0.014 A 
ATOM     23  C   UNL     1      -3.216   2.111  22.678  0.00  0.00    +0.010 A 
ATOM     35  H   UNL     1      -0.625   0.104  20.534  0.00  0.00    +0.155 HD
ENDROOT
BRANCH  22  24
ATOM      1 CL   UNL     1      -7.277   1.437  27.157  0.00  0.00    -0.084 Cl
ATOM     24  C   UNL     1      -4.173   2.563  24.895  0.00  0.00    +0.025 A 
ATOM     26  C   UNL     1      -4.166   3.948  25.067  0.00  0.00    +0.128 A 
ATOM     27  C   UNL     1      -5.137   1.787  25.542  0.00  0.00    +0.032 A 
ATOM     28  C   UNL     1      -5.120   4.556  25.884  0.00  0.00    +0.047 A 
ATOM     30  C   UNL     1      -6.090   2.395  26.359  0.00  0.00    +0.042 A 
ATOM     31  C   UNL     1      -6.082   3.779  26.530  0.00  0.00    +0.023 A 
BRANCH  26   5
ATOM      5  O   UNL     1      -3.237   4.731  24.449  0.00  0.00    -0.495 OA
ATOM     33  C   UNL     1      -1.975   4.869  25.097  0.00  0.00    +0.277 C 
ENDBRANCH  26   5
ENDBRANCH  22  24
BRANCH  11   7
ATOM      4  O   UNL     1       5.242   1.165  23.420  0.00  0.00    -0.253 OA
ATOM      7  N   UNL     1       5.091  -1.145  23.606  0.00  0.00    -0.296 N 
ATOM      9  N   UNL     1       7.137  -0.114  23.821  0.00  0.00    -0.296 N 
ATOM     19  C   UNL     1       5.774   0.069  23.599  0.00  0.00    +0.300 C 
ATOM     34  H   UNL     1       5.612  -1.987  23.836  0.00  0.00    +0.151 HD
ATOM     36  H   UNL     1       7.483  -1.057  23.977  0.00  0.00    +0.151 HD
BRANCH   9  25
ATOM     25  C   UNL     1       8.078   0.980  23.862  0.00  0.00    +0.132 C 
BRANCH  25  29
ATOM     29  C   UNL     1       9.463   0.437  23.736  0.00  0.00    -0.016 C 
ATOM     32  C   UNL     1       9.881  -0.306  22.705  0.00  0.00    +0.005 C 
ENDBRANCH  25  29
ENDBRANCH   9  25
ENDBRANCH  11   7
TORSDOF 5
ENDMDL
MODEL 2
REMARK VINA RESULT:      16.3      1.730      2.284
REMARK  Name = 11943112
REMARK  6 active torsions:
REMARK  status: ('A' for Active; 'I' for Inactive)
REMARK    1  A    between atoms: O_5  and  C_26
REMARK    2  A    between atoms: O_5  and  C_33
REMARK    3  A    between atoms: N_7  and  C_11
REMARK    4  A    between atoms: N_9  and  C_25
REMARK    5  A    between atoms: C_22  and  C_24
REMARK    6  A    between atoms: C_25  and  C_29
REMARK                            x       y       z     vdW  Elec       q    Type
REMARK                         _______ _______ _______ _____ _____    ______ ____
ROOT
ATOM      2  O   UNL     1       2.696  -0.188  20.825  0.00  0.00    -0.273 OA
ATOM      3  O   UNL     1      -0.064  -1.625  25.009  0.00  0.00    -0.270 OA
ATOM      6  N   UNL     1       1.731  -0.650  23.908  0.00  0.00    -0.286 N 
ATOM      8  N   UNL     1       0.512   0.226  21.359  0.00  0.00    -0.283 N 
ATOM     10  C   UNL     1       2.227   0.458  23.102  0.00  0.00    +0.164 C 
ATOM     11  C   UNL     1       4.605  -0.452  23.431  0.00  0.00    +0.078 C 
ATOM     12  C   UNL     1       3.712   0.782  23.302  0.00  0.00    +0.054 C 
ATOM     13  C   UNL     1       4.042  -1.374  24.507  0.00  0.00    +0.041 C 
ATOM     14  C   UNL     1       2.620  -1.786  24.162  0.00  0.00    +0.111 C 
ATOM     15  C   UNL     1       1.854   0.112  21.671  0.00  0.00    +0.238 C 
ATOM     16  C   UNL     1       0.383  -0.766  24.249  0.00  0.00    +0.249 C 
ATOM     17  C   UNL     1      -0.596   0.149  23.604  0.00  0.00    +0.059 A 
ATOM     18  C   UNL     1      -0.562   0.490  22.240  0.00  0.00    +0.046 A 
ATOM     20  C   UNL     1      -1.712   0.507  24.382  0.00  0.00    +0.023 A 
ATOM     21  C   UNL     1      -1.678   1.124  21.671  0.00  0.00    +0.024 A 
ATOM     22  C   UNL     1      -2.789   1.182  23.810  0.00  0.00    -0.014 A 
ATOM     23  C   UNL     1      -2.779   1.478  22.452  0.00  0.00    +0.010 A 
ATOM     35  H   UNL     1       0.287   0.218  20.367  0.00  0.00    +0.155 HD
ENDROOT
BRANCH  22  24
ATOM      1 CL   UNL     1      -5.905   4.911  25.524  0.00  0.00    -0.084 Cl
ATOM     24  C   UNL     1      -3.928   1.549  24.623  0.00  0.00    +0.025 A 
ATOM     26  C   UNL     1      -4.633   0.586  25.347  0.00  0.00    +0.128 A 
ATOM     27  C   UNL     1      -4.323   2.887  24.679  0.00  0.00    +0.032 A 
ATOM     28  C   UNL     1      -5.729   0.959  26.125  0.00  0.00    +0.047 A 
ATOM     30  C   UNL     1      -5.419   3.261  25.457  0.00  0.00    +0.042 A 
ATOM     31  C   UNL     1      -6.122   2.297  26.180  0.00  0.00    +0.023 A 
BRANCH  26   5
ATOM      5  O   UNL     1      -4.272  -0.729  25.311  0.00  0.00    -0.495 OA
ATOM     33  C   UNL     1      -4.496  -1.426  24.088  0.00  0.00    +0.277 C 
ENDBRANCH  26   5
ENDBRANCH  22  24
BRANCH  11   7
ATOM      4  O   UNL     1       6.967  -1.021  21.874  0.00  0.00    -0.253 OA
ATOM      7  N   UNL     1       5.963  -0.072  23.740  0.00  0.00    -0.296 N 
ATOM      9  N   UNL     1       8.240   0.097  23.460  0.00  0.00    -0.296 N 
ATOM     19  C   UNL     1       7.049  -0.390  22.927  0.00  0.00    +0.300 C 
ATOM     34  H   UNL     1       6.127   0.516  24.552  0.00  0.00    +0.151 HD
ATOM     36  H   UNL     1       8.207   0.624  24.328  0.00  0.00    +0.151 HD
BRANCH   9  25
ATOM     25  C   UNL     1       9.520  -0.093  22.819  0.00  0.00    +0.132 C 
BRANCH  25  29
ATOM     29  C   UNL     1      10.190   1.233  22.667  0.00  0.00    -0.016 C 
ATOM     32  C   UNL     1      10.633   1.715  21.500  0.00  0.00    +0.005 C 
ENDBRANCH  25  29
ENDBRANCH   9  25
ENDBRANCH  11   7
TORSDOF 5
ENDMDL
