MODEL 1
REMARK VINA RESULT:       3.9      0.000      0.000
REMARK  Name = 11866028
REMARK  7 active torsions:
REMARK  status: ('A' for Active; 'I' for Inactive)
REMARK    1  A    between atoms: O_5  and  C_23
REMARK    2  A    between atoms: O_5  and  C_28
REMARK    3  A    between atoms: O_6  and  C_32
REMARK    4  A    between atoms: N_9  and  C_11
REMARK    5  A    between atoms: C_19  and  C_23
REMARK    6  A    between atoms: C_22  and  C_25
REMARK    7  A    between atoms: C_28  and  C_32
REMARK                            x       y       z     vdW  Elec       q    Type
REMARK                         _______ _______ _______ _____ _____    ______ ____
ROOT
ATOM      2  O   UNL     1      -4.678  -1.141  25.055  0.00  0.00    -0.273 OA
ATOM      3  O   UNL     1      -1.288   1.453  21.968  0.00  0.00    -0.270 OA
ATOM      8  N   UNL     1      -2.843   1.202  23.643  0.00  0.00    -0.284 N 
ATOM     10  N   UNL     1      -2.474  -1.539  24.643  0.00  0.00    -0.283 N 
ATOM     11  C   UNL     1      -4.439   1.653  25.330  0.00  0.00    +0.104 C 
ATOM     12  C   UNL     1      -3.225   0.781  24.978  0.00  0.00    +0.183 C 
ATOM     13  C   UNL     1      -5.040   1.994  23.964  0.00  0.00    +0.043 C 
ATOM     14  C   UNL     1      -3.821   2.111  23.063  0.00  0.00    +0.111 C 
ATOM     15  C   UNL     1      -3.544  -0.698  24.863  0.00  0.00    +0.240 C 
ATOM     16  C   UNL     1      -1.635   0.941  23.032  0.00  0.00    +0.249 C 
ATOM     17  C   UNL     1      -0.718  -0.031  23.683  0.00  0.00    +0.059 A 
ATOM     18  C   UNL     1      -1.138  -1.201  24.337  0.00  0.00    +0.046 A 
ATOM     20  C   UNL     1       0.655   0.184  23.464  0.00  0.00    +0.023 A 
ATOM     21  C   UNL     1      -0.174  -2.160  24.695  0.00  0.00    +0.024 A 
ATOM     22  C   UNL     1       1.600  -0.757  23.870  0.00  0.00    -0.014 A 
ATOM     24  C   UNL     1       1.185  -1.935  24.475  0.00  0.00    +0.010 A 
ATOM     34  H   UNL     1      -2.655  -2.527  24.805  0.00  0.00    +0.155 HD
ENDROOT
BRANCH  22  25
ATOM      1  F   UNL     1       2.562   1.702  22.907  0.00  0.00    -0.205 F 
ATOM     25  C   UNL     1       3.009  -0.517  23.641  0.00  0.00    +0.017 A 
ATOM     26  C   UNL     1       3.440   0.719  23.159  0.00  0.00    +0.131 A 
ATOM     27  C   UNL     1       3.935  -1.528  23.898  0.00  0.00    +0.011 A 
ATOM     29  C   UNL     1       4.798   0.945  22.936  0.00  0.00    +0.039 A 
ATOM     30  C   UNL     1       5.293  -1.301  23.675  0.00  0.00    +0.001 A 
ATOM     31  C   UNL     1       5.726  -0.065  23.194  0.00  0.00    +0.003 A 
ENDBRANCH  22  25
BRANCH  11   9
ATOM      4  O   UNL     1      -5.707   4.257  25.254  0.00  0.00    -0.273 OA
ATOM      9  N   UNL     1      -4.030   2.846  26.033  0.00  0.00    -0.308 N 
ATOM     19  C   UNL     1      -4.705   4.053  25.934  0.00  0.00    +0.239 C 
ATOM     33  H   UNL     1      -3.239   2.781  26.668  0.00  0.00    +0.149 HD
BRANCH  19  23
ATOM     23  C   UNL     1      -4.055   5.129  26.778  0.00  0.00    +0.256 C 
BRANCH  23   5
ATOM      5  O   UNL     1      -2.647   5.052  26.687  0.00  0.00    -0.359 OA
BRANCH   5  28
ATOM     28  C   UNL     1      -2.203   5.036  25.333  0.00  0.00    +0.280 C 
BRANCH  28  32
ATOM      7  O   UNL     1      -0.268   4.022  24.267  0.00  0.00    -0.248 OA
ATOM     32  C   UNL     1      -1.083   4.044  25.178  0.00  0.00    +0.331 C 
BRANCH  32   6
ATOM      6  O   UNL     1      -1.098   3.157  26.204  0.00  0.00    -0.479 OA
ATOM     35  H   UNL     1      -1.043   2.230  25.887  0.00  0.00    +0.295 HD
ENDBRANCH  32   6
ENDBRANCH  28  32
ENDBRANCH   5  28
ENDBRANCH  23   5
ENDBRANCH  19  23
ENDBRANCH  11   9
TORSDOF 7
ENDMDL
