MODEL 1
REMARK VINA RESULT:      -8.0      0.000      0.000
REMARK  Name = 75367676
REMARK  4 active torsions:
REMARK  status: ('A' for Active; 'I' for Inactive)
REMARK    1  A    between atoms: O_2  and  C_6
REMARK    2  A    between atoms: O_2  and  C_12
REMARK    3  A    between atoms: N_5  and  C_13
REMARK    4  A    between atoms: C_13  and  C_16
REMARK                            x       y       z     vdW  Elec       q    Type
REMARK                         _______ _______ _______ _____ _____    ______ ____
ROOT
ATOM      1  O   UNL     1      -2.188   4.159  24.547  0.00  0.00    -0.375 OA
ATOM      3  O   UNL     1       0.009  -0.545  24.044  0.00  0.00    -0.253 OA
ATOM      4  N   UNL     1      -0.410   1.662  24.666  0.00  0.00    -0.280 N 
ATOM      5  N   UNL     1       1.465   1.091  23.338  0.00  0.00    -0.300 N 
ATOM      6  C   UNL     1      -2.893   1.804  24.683  0.00  0.00    +0.216 C 
ATOM      7  C   UNL     1      -1.635   1.286  25.378  0.00  0.00    +0.156 C 
ATOM      8  C   UNL     1      -0.019   3.080  24.630  0.00  0.00    +0.137 C 
ATOM      9  C   UNL     1      -3.195   3.265  25.002  0.00  0.00    +0.206 C 
ATOM     10  C   UNL     1      -0.972   4.072  25.283  0.00  0.00    +0.179 C 
ATOM     11  C   UNL     1       0.332   0.646  24.017  0.00  0.00    +0.302 C 
ATOM     20  H   UNL     1       1.713   2.073  23.344  0.00  0.00    +0.150 HD
ENDROOT
BRANCH   5  13
ATOM     13  C   UNL     1       2.354   0.208  22.613  0.00  0.00    +0.102 C 
ATOM     16  C   UNL     1       3.781   0.710  22.645  0.00  0.00    +0.024 C 
ENDBRANCH   5  13
BRANCH   6   2
ATOM      2  O   UNL     1      -3.994   1.008  25.121  0.00  0.00    -0.485 OA
BRANCH   2  12
ATOM     12  C   UNL     1      -3.882  -0.343  24.944  0.00  0.00    +0.121 A 
ATOM     14  C   UNL     1      -3.321  -1.135  25.946  0.00  0.00    +0.045 A 
ATOM     15  C   UNL     1      -4.328  -0.931  23.760  0.00  0.00    +0.045 A 
ATOM     17  C   UNL     1      -3.207  -2.513  25.765  0.00  0.00    +0.004 A 
ATOM     18  C   UNL     1      -4.215  -2.309  23.579  0.00  0.00    +0.004 A 
ATOM     19  C   UNL     1      -3.654  -3.099  24.582  0.00  0.00    +0.000 A 
ENDBRANCH   2  12
ENDBRANCH   6   2
TORSDOF 3
ENDMDL
MODEL 2
REMARK VINA RESULT:      -5.4      2.223      4.558
REMARK  Name = 75367676
REMARK  4 active torsions:
REMARK  status: ('A' for Active; 'I' for Inactive)
REMARK    1  A    between atoms: O_2  and  C_6
REMARK    2  A    between atoms: O_2  and  C_12
REMARK    3  A    between atoms: N_5  and  C_13
REMARK    4  A    between atoms: C_13  and  C_16
REMARK                            x       y       z     vdW  Elec       q    Type
REMARK                         _______ _______ _______ _____ _____    ______ ____
ROOT
ATOM      1  O   UNL     1       0.132   3.465  25.791  0.00  0.00    -0.375 OA
ATOM      3  O   UNL     1      -4.564   1.545  24.577  0.00  0.00    -0.253 OA
ATOM      4  N   UNL     1      -2.660   2.888  24.658  0.00  0.00    -0.280 N 
ATOM      5  N   UNL     1      -4.766   3.692  25.378  0.00  0.00    -0.300 N 
ATOM      6  C   UNL     1      -0.834   1.283  25.185  0.00  0.00    +0.216 C 
ATOM      7  C   UNL     1      -1.812   1.811  24.137  0.00  0.00    +0.156 C 
ATOM      8  C   UNL     1      -2.040   4.181  24.986  0.00  0.00    +0.137 C 
ATOM      9  C   UNL     1       0.413   2.150  25.331  0.00  0.00    +0.206 C 
ATOM     10  C   UNL     1      -0.528   4.278  24.827  0.00  0.00    +0.179 C 
ATOM     11  C   UNL     1      -4.038   2.627  24.851  0.00  0.00    +0.302 C 
ATOM     20  H   UNL     1      -4.311   4.574  25.581  0.00  0.00    +0.150 HD
ENDROOT
BRANCH   5  13
ATOM     13  C   UNL     1      -6.187   3.626  25.648  0.00  0.00    +0.102 C 
ATOM     16  C   UNL     1      -6.557   2.341  26.358  0.00  0.00    +0.024 C 
ENDBRANCH   5  13
BRANCH   6   2
ATOM      2  O   UNL     1      -0.430  -0.027  24.787  0.00  0.00    -0.485 OA
BRANCH   2  12
ATOM     12  C   UNL     1      -1.392  -0.999  24.811  0.00  0.00    +0.121 A 
ATOM     14  C   UNL     1      -2.501  -0.863  25.647  0.00  0.00    +0.045 A 
ATOM     15  C   UNL     1      -1.265  -2.127  24.002  0.00  0.00    +0.045 A 
ATOM     17  C   UNL     1      -3.481  -1.854  25.673  0.00  0.00    +0.004 A 
ATOM     18  C   UNL     1      -2.246  -3.118  24.026  0.00  0.00    +0.004 A 
ATOM     19  C   UNL     1      -3.353  -2.982  24.862  0.00  0.00    +0.000 A 
ENDBRANCH   2  12
ENDBRANCH   6   2
TORSDOF 3
ENDMDL
MODEL 3
REMARK VINA RESULT:      -5.2      2.046      2.787
REMARK  Name = 75367676
REMARK  4 active torsions:
REMARK  status: ('A' for Active; 'I' for Inactive)
REMARK    1  A    between atoms: O_2  and  C_6
REMARK    2  A    between atoms: O_2  and  C_12
REMARK    3  A    between atoms: N_5  and  C_13
REMARK    4  A    between atoms: C_13  and  C_16
REMARK                            x       y       z     vdW  Elec       q    Type
REMARK                         _______ _______ _______ _____ _____    ______ ____
ROOT
ATOM      1  O   UNL     1      -0.849   3.951  25.362  0.00  0.00    -0.375 OA
ATOM      3  O   UNL     1       0.647  -0.075  22.400  0.00  0.00    -0.253 OA
ATOM      4  N   UNL     1       0.321   1.359  24.209  0.00  0.00    -0.280 N 
ATOM      5  N   UNL     1       2.482   0.949  23.336  0.00  0.00    -0.300 N 
ATOM      6  C   UNL     1      -1.874   2.424  23.723  0.00  0.00    +0.216 C 
ATOM      7  C   UNL     1      -1.132   1.166  24.171  0.00  0.00    +0.156 C 
ATOM      8  C   UNL     1       0.889   2.266  25.219  0.00  0.00    +0.137 C 
ATOM      9  C   UNL     1      -2.071   3.435  24.850  0.00  0.00    +0.206 C 
ATOM     10  C   UNL     1      -0.100   3.002  26.114  0.00  0.00    +0.179 C 
ATOM     11  C   UNL     1       1.117   0.687  23.250  0.00  0.00    +0.302 C 
ATOM     20  H   UNL     1       2.842   1.568  24.052  0.00  0.00    +0.150 HD
ENDROOT
BRANCH   5  13
ATOM     13  C   UNL     1       3.461   0.359  22.447  0.00  0.00    +0.102 C 
ATOM     16  C   UNL     1       4.837   0.329  23.078  0.00  0.00    +0.024 C 
ENDBRANCH   5  13
BRANCH   6   2
ATOM      2  O   UNL     1      -3.157   2.027  23.243  0.00  0.00    -0.485 OA
BRANCH   2  12
ATOM     12  C   UNL     1      -4.178   2.023  24.153  0.00  0.00    +0.121 A 
ATOM     14  C   UNL     1      -4.662   0.815  24.653  0.00  0.00    +0.045 A 
ATOM     15  C   UNL     1      -4.737   3.228  24.579  0.00  0.00    +0.045 A 
ATOM     17  C   UNL     1      -5.704   0.811  25.581  0.00  0.00    +0.004 A 
ATOM     18  C   UNL     1      -5.778   3.225  25.508  0.00  0.00    +0.004 A 
ATOM     19  C   UNL     1      -6.261   2.016  26.007  0.00  0.00    +0.000 A 
ENDBRANCH   2  12
ENDBRANCH   6   2
TORSDOF 3
ENDMDL
MODEL 4
REMARK VINA RESULT:      -4.7      1.820      5.090
REMARK  Name = 75367676
REMARK  4 active torsions:
REMARK  status: ('A' for Active; 'I' for Inactive)
REMARK    1  A    between atoms: O_2  and  C_6
REMARK    2  A    between atoms: O_2  and  C_12
REMARK    3  A    between atoms: N_5  and  C_13
REMARK    4  A    between atoms: C_13  and  C_16
REMARK                            x       y       z     vdW  Elec       q    Type
REMARK                         _______ _______ _______ _____ _____    ______ ____
ROOT
ATOM      1  O   UNL     1       1.178   0.653  22.965  0.00  0.00    -0.375 OA
ATOM      3  O   UNL     1      -3.164  -0.597  25.573  0.00  0.00    -0.253 OA
ATOM      4  N   UNL     1      -0.962  -0.545  24.808  0.00  0.00    -0.280 N 
ATOM      5  N   UNL     1      -2.338  -2.441  24.473  0.00  0.00    -0.300 N 
ATOM      6  C   UNL     1      -0.624   1.832  24.159  0.00  0.00    +0.216 C 
ATOM      7  C   UNL     1      -0.767   0.823  25.298  0.00  0.00    +0.156 C 
ATOM      8  C   UNL     1       0.151  -1.216  24.118  0.00  0.00    +0.137 C 
ATOM      9  C   UNL     1       0.785   1.877  23.572  0.00  0.00    +0.206 C 
ATOM     10  C   UNL     1       1.416  -0.396  23.897  0.00  0.00    +0.179 C 
ATOM     11  C   UNL     1      -2.226  -1.154  24.994  0.00  0.00    +0.302 C 
ATOM     20  H   UNL     1      -1.548  -2.879  24.015  0.00  0.00    +0.150 HD
ENDROOT
BRANCH   5  13
ATOM     13  C   UNL     1      -3.548  -3.231  24.561  0.00  0.00    +0.102 C 
ATOM     16  C   UNL     1      -4.612  -2.725  23.610  0.00  0.00    +0.024 C 
ENDBRANCH   5  13
BRANCH   6   2
ATOM      2  O   UNL     1      -0.937   3.124  24.678  0.00  0.00    -0.485 OA
BRANCH   2  12
ATOM     12  C   UNL     1      -2.253   3.366  24.967  0.00  0.00    +0.121 A 
ATOM     14  C   UNL     1      -2.595   4.077  26.116  0.00  0.00    +0.045 A 
ATOM     15  C   UNL     1      -3.251   2.899  24.112  0.00  0.00    +0.045 A 
ATOM     17  C   UNL     1      -3.936   4.323  26.411  0.00  0.00    +0.004 A 
ATOM     18  C   UNL     1      -4.592   3.146  24.406  0.00  0.00    +0.004 A 
ATOM     19  C   UNL     1      -4.934   3.857  25.555  0.00  0.00    +0.000 A 
ENDBRANCH   2  12
ENDBRANCH   6   2
TORSDOF 3
ENDMDL
MODEL 5
REMARK VINA RESULT:      -4.4      2.318      4.133
REMARK  Name = 75367676
REMARK  4 active torsions:
REMARK  status: ('A' for Active; 'I' for Inactive)
REMARK    1  A    between atoms: O_2  and  C_6
REMARK    2  A    between atoms: O_2  and  C_12
REMARK    3  A    between atoms: N_5  and  C_13
REMARK    4  A    between atoms: C_13  and  C_16
REMARK                            x       y       z     vdW  Elec       q    Type
REMARK                         _______ _______ _______ _____ _____    ______ ____
ROOT
ATOM      1  O   UNL     1      -0.890  -0.586  25.548  0.00  0.00    -0.375 OA
ATOM      3  O   UNL     1       2.866   2.012  23.025  0.00  0.00    -0.253 OA
ATOM      4  N   UNL     1       1.162   0.508  23.546  0.00  0.00    -0.280 N 
ATOM      5  N   UNL     1       3.365  -0.233  23.101  0.00  0.00    -0.300 N 
ATOM      6  C   UNL     1      -0.247   1.761  25.168  0.00  0.00    +0.216 C 
ATOM      7  C   UNL     1       0.186   1.590  23.713  0.00  0.00    +0.156 C 
ATOM      8  C   UNL     1       0.726  -0.880  23.764  0.00  0.00    +0.137 C 
ATOM      9  C   UNL     1      -1.324   0.767  25.593  0.00  0.00    +0.206 C 
ATOM     10  C   UNL     1      -0.711  -1.084  24.226  0.00  0.00    +0.179 C 
ATOM     11  C   UNL     1       2.495   0.849  23.210  0.00  0.00    +0.302 C 
ATOM     20  H   UNL     1       3.030  -1.177  23.244  0.00  0.00    +0.150 HD
ENDROOT
BRANCH   5  13
ATOM     13  C   UNL     1       4.767  -0.093  22.765  0.00  0.00    +0.102 C 
ATOM     16  C   UNL     1       5.639  -0.126  24.002  0.00  0.00    +0.024 C 
ENDBRANCH   5  13
BRANCH   6   2
ATOM      2  O   UNL     1      -0.767   3.081  25.317  0.00  0.00    -0.485 OA
BRANCH   2  12
ATOM     12  C   UNL     1      -2.123   3.223  25.201  0.00  0.00    +0.121 A 
ATOM     14  C   UNL     1      -2.850   3.840  26.219  0.00  0.00    +0.045 A 
ATOM     15  C   UNL     1      -2.780   2.748  24.066  0.00  0.00    +0.045 A 
ATOM     17  C   UNL     1      -4.232   3.984  26.102  0.00  0.00    +0.004 A 
ATOM     18  C   UNL     1      -4.162   2.893  23.948  0.00  0.00    +0.004 A 
ATOM     19  C   UNL     1      -4.887   3.510  24.966  0.00  0.00    +0.000 A 
ENDBRANCH   2  12
ENDBRANCH   6   2
TORSDOF 3
ENDMDL
MODEL 6
REMARK VINA RESULT:      -4.4     14.901     18.314
REMARK  Name = 75367676
REMARK  4 active torsions:
REMARK  status: ('A' for Active; 'I' for Inactive)
REMARK    1  A    between atoms: O_2  and  C_6
REMARK    2  A    between atoms: O_2  and  C_12
REMARK    3  A    between atoms: N_5  and  C_13
REMARK    4  A    between atoms: C_13  and  C_16
REMARK                            x       y       z     vdW  Elec       q    Type
REMARK                         _______ _______ _______ _____ _____    ______ ____
ROOT
ATOM      1  O   UNL     1      16.283   6.220  20.896  0.00  0.00    -0.375 OA
ATOM      3  O   UNL     1      11.973   9.093  20.275  0.00  0.00    -0.253 OA
ATOM      4  N   UNL     1      14.088   8.363  20.931  0.00  0.00    -0.280 N 
ATOM      5  N   UNL     1      12.361   8.715  22.511  0.00  0.00    -0.300 N 
ATOM      6  C   UNL     1      14.820   6.919  19.042  0.00  0.00    +0.216 C 
ATOM      7  C   UNL     1      14.569   8.340  19.546  0.00  0.00    +0.156 C 
ATOM      8  C   UNL     1      15.005   7.956  22.006  0.00  0.00    +0.137 C 
ATOM      9  C   UNL     1      16.168   6.356  19.486  0.00  0.00    +0.206 C 
ATOM     10  C   UNL     1      16.383   7.462  21.583  0.00  0.00    +0.179 C 
ATOM     11  C   UNL     1      12.747   8.749  21.173  0.00  0.00    +0.302 C 
ATOM     20  H   UNL     1      13.021   8.443  23.228  0.00  0.00    +0.150 HD
ENDROOT
BRANCH   5  13
ATOM     13  C   UNL     1      11.033   9.074  22.963  0.00  0.00    +0.102 C 
ATOM     16  C   UNL     1      10.013   8.025  22.576  0.00  0.00    +0.024 C 
ENDBRANCH   5  13
BRANCH   6   2
ATOM      2  O   UNL     1      14.789   6.949  17.616  0.00  0.00    -0.485 OA
BRANCH   2  12
ATOM     12  C   UNL     1      13.768   7.653  17.039  0.00  0.00    +0.121 A 
ATOM     14  C   UNL     1      12.501   7.647  17.622  0.00  0.00    +0.045 A 
ATOM     15  C   UNL     1      13.993   8.375  15.868  0.00  0.00    +0.045 A 
ATOM     17  C   UNL     1      11.459   8.364  17.033  0.00  0.00    +0.004 A 
ATOM     18  C   UNL     1      12.952   9.094  15.280  0.00  0.00    +0.004 A 
ATOM     19  C   UNL     1      11.686   9.087  15.862  0.00  0.00    +0.000 A 
ENDBRANCH   2  12
ENDBRANCH   6   2
TORSDOF 3
ENDMDL
MODEL 7
REMARK VINA RESULT:      -4.0      1.929      4.326
REMARK  Name = 75367676
REMARK  4 active torsions:
REMARK  status: ('A' for Active; 'I' for Inactive)
REMARK    1  A    between atoms: O_2  and  C_6
REMARK    2  A    between atoms: O_2  and  C_12
REMARK    3  A    between atoms: N_5  and  C_13
REMARK    4  A    between atoms: C_13  and  C_16
REMARK                            x       y       z     vdW  Elec       q    Type
REMARK                         _______ _______ _______ _____ _____    ______ ____
ROOT
ATOM      1  O   UNL     1      -2.663  -2.508  25.736  0.00  0.00    -0.375 OA
ATOM      3  O   UNL     1      -0.858   1.645  23.146  0.00  0.00    -0.253 OA
ATOM      4  N   UNL     1      -1.348  -0.545  23.780  0.00  0.00    -0.280 N 
ATOM      5  N   UNL     1       0.880   0.254  23.728  0.00  0.00    -0.300 N 
ATOM      6  C   UNL     1      -3.529  -0.339  24.956  0.00  0.00    +0.216 C 
ATOM      7  C   UNL     1      -2.789  -0.326  23.620  0.00  0.00    +0.156 C 
ATOM      8  C   UNL     1      -0.877  -1.864  24.228  0.00  0.00    +0.137 C 
ATOM      9  C   UNL     1      -3.832  -1.747  25.459  0.00  0.00    +0.206 C 
ATOM     10  C   UNL     1      -1.945  -2.895  24.569  0.00  0.00    +0.179 C 
ATOM     11  C   UNL     1      -0.469   0.536  23.523  0.00  0.00    +0.302 C 
ATOM     20  H   UNL     1       1.171  -0.670  24.024  0.00  0.00    +0.150 HD
ENDROOT
BRANCH   5  13
ATOM     13  C   UNL     1       1.934   1.224  23.520  0.00  0.00    +0.102 C 
ATOM     16  C   UNL     1       3.091   0.629  22.746  0.00  0.00    +0.024 C 
ENDBRANCH   5  13
BRANCH   6   2
ATOM      2  O   UNL     1      -4.765   0.353  24.778  0.00  0.00    -0.485 OA
BRANCH   2  12
ATOM     12  C   UNL     1      -4.727   1.715  24.893  0.00  0.00    +0.121 A 
ATOM     14  C   UNL     1      -5.673   2.376  25.677  0.00  0.00    +0.045 A 
ATOM     15  C   UNL     1      -3.743   2.445  24.226  0.00  0.00    +0.045 A 
ATOM     17  C   UNL     1      -5.635   3.765  25.794  0.00  0.00    +0.004 A 
ATOM     18  C   UNL     1      -3.704   3.834  24.344  0.00  0.00    +0.004 A 
ATOM     19  C   UNL     1      -4.650   4.493  25.127  0.00  0.00    +0.000 A 
ENDBRANCH   2  12
ENDBRANCH   6   2
TORSDOF 3
ENDMDL
