MODEL 1
REMARK VINA RESULT:      -3.3      0.000      0.000
REMARK  Name = 45360572
REMARK  6 active torsions:
REMARK  status: ('A' for Active; 'I' for Inactive)
REMARK    1  A    between atoms: O_3  and  C_10
REMARK    2  A    between atoms: N_5  and  C_9
REMARK    3  A    between atoms: N_6  and  C_11
REMARK    4  A    between atoms: N_7  and  C_20
REMARK    5  A    between atoms: N_8  and  C_21
REMARK    6  A    between atoms: C_21  and  C_22
REMARK                            x       y       z     vdW  Elec       q    Type
REMARK                         _______ _______ _______ _____ _____    ______ ____
ROOT
ATOM      1  O   UNL     1      -5.121  -7.735  10.733  0.00  0.00    -0.342 OA
ATOM      2  O   UNL     1      -4.072  -8.899   9.024  0.00  0.00    -0.347 OA
ATOM      9  C   UNL     1      -6.425  -8.384   8.812  0.00  0.00    +0.144 C 
ATOM     10  C   UNL     1      -6.801  -9.719   9.493  0.00  0.00    +0.159 C 
ATOM     11  C   UNL     1      -6.287  -9.836  10.944  0.00  0.00    +0.136 C 
ATOM     12  C   UNL     1      -5.055  -7.890   9.310  0.00  0.00    +0.270 C 
ATOM     13  C   UNL     1      -4.960  -9.085  11.180  0.00  0.00    +0.170 C 
ATOM     14  C   UNL     1      -3.823  -9.539  10.285  0.00  0.00    +0.196 C 
ENDROOT
BRANCH   9   5
ATOM      5  N   UNL     1      -7.445  -7.374   9.088  0.00  0.00    -0.290 NA
ATOM      7  N   UNL     1      -9.700  -5.721   8.349  0.00  0.00    -0.303 NA
ATOM     15  C   UNL     1      -8.792  -7.940   8.946  0.00  0.00    +0.100 C 
ATOM     16  C   UNL     1      -7.282  -6.212   8.205  0.00  0.00    +0.100 C 
ATOM     17  C   UNL     1      -9.862  -6.881   9.233  0.00  0.00    +0.099 C 
ATOM     18  C   UNL     1      -8.353  -5.154   8.491  0.00  0.00    +0.099 C 
ATOM     20  C   UNL     1     -10.719  -4.711   8.623  0.00  0.00    +0.105 C 
ENDBRANCH   9   5
BRANCH  11   6
ATOM      4  O   UNL     1      -6.660 -10.657  13.685  0.00  0.00    -0.253 OA
ATOM      6  N   UNL     1      -7.292  -9.356  11.869  0.00  0.00    -0.291 N 
ATOM      8  N   UNL     1      -8.449  -9.187  13.845  0.00  0.00    -0.300 N 
ATOM     19  C   UNL     1      -7.397  -9.812  13.178  0.00  0.00    +0.300 C 
ATOM     23  H   UNL     1      -8.000  -8.715  11.522  0.00  0.00    +0.151 HD
ATOM     25  H   UNL     1      -9.010  -8.507  13.342  0.00  0.00    +0.150 HD
BRANCH   8  21
ATOM     21  C   UNL     1      -8.783  -9.472  15.221  0.00  0.00    +0.102 C 
ATOM     22  C   UNL     1      -9.642  -8.378  15.820  0.00  0.00    +0.024 C 
ENDBRANCH   8  21
ENDBRANCH  11   6
BRANCH  10   3
ATOM      3  O   UNL     1      -6.231 -10.781   8.716  0.00  0.00    -0.388 OA
ATOM     24  H   UNL     1      -5.503 -11.166   9.233  0.00  0.00    +0.210 HD
ENDBRANCH  10   3
TORSDOF 4
ENDMDL
MODEL 2
REMARK VINA RESULT:      -2.6     16.459     18.558
REMARK  Name = 45360572
REMARK  6 active torsions:
REMARK  status: ('A' for Active; 'I' for Inactive)
REMARK    1  A    between atoms: O_3  and  C_10
REMARK    2  A    between atoms: N_5  and  C_9
REMARK    3  A    between atoms: N_6  and  C_11
REMARK    4  A    between atoms: N_7  and  C_20
REMARK    5  A    between atoms: N_8  and  C_21
REMARK    6  A    between atoms: C_21  and  C_22
REMARK                            x       y       z     vdW  Elec       q    Type
REMARK                         _______ _______ _______ _____ _____    ______ ____
ROOT
ATOM      1  O   UNL     1      -2.486  -0.412  23.462  0.00  0.00    -0.342 OA
ATOM      2  O   UNL     1      -3.324  -1.582  25.280  0.00  0.00    -0.347 OA
ATOM      9  C   UNL     1      -2.216   0.533  25.663  0.00  0.00    +0.144 C 
ATOM     10  C   UNL     1      -0.857  -0.184  25.827  0.00  0.00    +0.159 C 
ATOM     11  C   UNL     1      -0.403  -0.938  24.558  0.00  0.00    +0.136 C 
ATOM     12  C   UNL     1      -3.141  -0.267  24.728  0.00  0.00    +0.270 C 
ATOM     13  C   UNL     1      -1.578  -1.488  23.725  0.00  0.00    +0.170 C 
ATOM     14  C   UNL     1      -2.487  -2.435  24.485  0.00  0.00    +0.196 C 
ENDROOT
BRANCH   9   5
ATOM      5  N   UNL     1      -2.014   1.878  25.126  0.00  0.00    -0.290 NA
ATOM      7  N   UNL     1      -1.918   4.758  25.364  0.00  0.00    -0.303 NA
ATOM     15  C   UNL     1      -0.902   2.550  25.808  0.00  0.00    +0.100 C 
ATOM     16  C   UNL     1      -3.242   2.675  25.239  0.00  0.00    +0.100 C 
ATOM     17  C   UNL     1      -0.691   3.961  25.248  0.00  0.00    +0.099 C 
ATOM     18  C   UNL     1      -3.031   4.086  24.680  0.00  0.00    +0.099 C 
ATOM     20  C   UNL     1      -1.718   6.103  24.828  0.00  0.00    +0.105 C 
ENDBRANCH   9   5
BRANCH  11   6
ATOM      4  O   UNL     1       2.328  -1.399  23.749  0.00  0.00    -0.253 OA
ATOM      6  N   UNL     1       0.420  -0.077  23.735  0.00  0.00    -0.291 N 
ATOM      8  N   UNL     1       2.291   0.615  22.597  0.00  0.00    -0.300 N 
ATOM     19  C   UNL     1       1.733  -0.383  23.394  0.00  0.00    +0.300 C 
ATOM     23  H   UNL     1       0.046   0.826  23.457  0.00  0.00    +0.151 HD
ATOM     25  H   UNL     1       1.726   1.424  22.363  0.00  0.00    +0.150 HD
BRANCH   8  21
ATOM     21  C   UNL     1       3.645   0.553  22.099  0.00  0.00    +0.102 C 
ATOM     22  C   UNL     1       4.654   0.667  23.223  0.00  0.00    +0.024 C 
ENDBRANCH   8  21
ENDBRANCH  11   6
BRANCH  10   3
ATOM      3  O   UNL     1      -0.986  -1.125  26.900  0.00  0.00    -0.388 OA
ATOM     24  H   UNL     1      -1.024  -2.014  26.508  0.00  0.00    +0.210 HD
ENDBRANCH  10   3
TORSDOF 4
ENDMDL
MODEL 3
REMARK VINA RESULT:      -1.8     16.347     18.460
REMARK  Name = 45360572
REMARK  6 active torsions:
REMARK  status: ('A' for Active; 'I' for Inactive)
REMARK    1  A    between atoms: O_3  and  C_10
REMARK    2  A    between atoms: N_5  and  C_9
REMARK    3  A    between atoms: N_6  and  C_11
REMARK    4  A    between atoms: N_7  and  C_20
REMARK    5  A    between atoms: N_8  and  C_21
REMARK    6  A    between atoms: C_21  and  C_22
REMARK                            x       y       z     vdW  Elec       q    Type
REMARK                         _______ _______ _______ _____ _____    ______ ____
ROOT
ATOM      1  O   UNL     1      -1.770   2.472  26.017  0.00  0.00    -0.342 OA
ATOM      2  O   UNL     1      -3.157   4.325  25.883  0.00  0.00    -0.347 OA
ATOM      9  C   UNL     1      -3.902   2.237  24.916  0.00  0.00    +0.144 C 
ATOM     10  C   UNL     1      -3.266   2.613  23.559  0.00  0.00    +0.159 C 
ATOM     11  C   UNL     1      -1.734   2.791  23.626  0.00  0.00    +0.136 C 
ATOM     12  C   UNL     1      -3.136   2.900  26.076  0.00  0.00    +0.270 C 
ATOM     13  C   UNL     1      -1.243   3.319  24.990  0.00  0.00    +0.170 C 
ATOM     14  C   UNL     1      -1.847   4.650  25.394  0.00  0.00    +0.196 C 
ENDROOT
BRANCH   9   5
ATOM      5  N   UNL     1      -3.898   0.785  25.089  0.00  0.00    -0.290 NA
ATOM      7  N   UNL     1      -2.928  -1.874  24.499  0.00  0.00    -0.303 NA
ATOM     15  C   UNL     1      -2.593   0.323  25.579  0.00  0.00    +0.100 C 
ATOM     16  C   UNL     1      -4.241   0.109  23.831  0.00  0.00    +0.100 C 
ATOM     17  C   UNL     1      -2.586  -1.199  25.758  0.00  0.00    +0.099 C 
ATOM     18  C   UNL     1      -4.233  -1.413  24.009  0.00  0.00    +0.099 C 
ATOM     20  C   UNL     1      -2.922  -3.326  24.670  0.00  0.00    +0.105 C 
ENDBRANCH   9   5
BRANCH  11   6
ATOM      4  O   UNL     1       1.041   2.137  24.071  0.00  0.00    -0.253 OA
ATOM      6  N   UNL     1      -1.073   1.541  23.319  0.00  0.00    -0.291 N 
ATOM      8  N   UNL     1       0.651   0.031  23.176  0.00  0.00    -0.300 N 
ATOM     19  C   UNL     1       0.276   1.314  23.569  0.00  0.00    +0.300 C 
ATOM     23  H   UNL     1      -1.601   0.825  22.828  0.00  0.00    +0.151 HD
ATOM     25  H   UNL     1      -0.048  -0.576  22.762  0.00  0.00    +0.150 HD
BRANCH   8  21
ATOM     21  C   UNL     1       1.998  -0.470  23.322  0.00  0.00    +0.102 C 
ATOM     22  C   UNL     1       2.941   0.180  22.331  0.00  0.00    +0.024 C 
ENDBRANCH   8  21
ENDBRANCH  11   6
BRANCH  10   3
ATOM      3  O   UNL     1      -3.855   3.848  23.129  0.00  0.00    -0.388 OA
ATOM     24  H   UNL     1      -3.338   4.171  22.371  0.00  0.00    +0.210 HD
ENDBRANCH  10   3
TORSDOF 4
ENDMDL
MODEL 4
REMARK VINA RESULT:      -1.7     16.338     18.333
REMARK  Name = 45360572
REMARK  6 active torsions:
REMARK  status: ('A' for Active; 'I' for Inactive)
REMARK    1  A    between atoms: O_3  and  C_10
REMARK    2  A    between atoms: N_5  and  C_9
REMARK    3  A    between atoms: N_6  and  C_11
REMARK    4  A    between atoms: N_7  and  C_20
REMARK    5  A    between atoms: N_8  and  C_21
REMARK    6  A    between atoms: C_21  and  C_22
REMARK                            x       y       z     vdW  Elec       q    Type
REMARK                         _______ _______ _______ _____ _____    ______ ____
ROOT
ATOM      1  O   UNL     1      -2.870  -0.944  23.343  0.00  0.00    -0.342 OA
ATOM      2  O   UNL     1      -2.874  -2.619  24.946  0.00  0.00    -0.347 OA
ATOM      9  C   UNL     1      -3.363  -0.351  25.627  0.00  0.00    +0.144 C 
ATOM     10  C   UNL     1      -1.865  -0.087  25.902  0.00  0.00    +0.159 C 
ATOM     11  C   UNL     1      -0.977  -0.214  24.646  0.00  0.00    +0.136 C 
ATOM     12  C   UNL     1      -3.532  -1.413  24.525  0.00  0.00    +0.270 C 
ATOM     13  C   UNL     1      -1.502  -1.252  23.633  0.00  0.00    +0.170 C 
ATOM     14  C   UNL     1      -1.649  -2.652  24.198  0.00  0.00    +0.196 C 
ENDROOT
BRANCH   9   5
ATOM      5  N   UNL     1      -4.026   0.888  25.224  0.00  0.00    -0.290 NA
ATOM      7  N   UNL     1      -5.489   3.321  25.773  0.00  0.00    -0.303 NA
ATOM     15  C   UNL     1      -3.370   2.052  25.833  0.00  0.00    +0.100 C 
ATOM     16  C   UNL     1      -5.450   0.858  25.580  0.00  0.00    +0.100 C 
ATOM     17  C   UNL     1      -4.065   3.352  25.414  0.00  0.00    +0.099 C 
ATOM     18  C   UNL     1      -6.145   2.158  25.163  0.00  0.00    +0.099 C 
ATOM     20  C   UNL     1      -6.152   4.560  25.372  0.00  0.00    +0.105 C 
ENDBRANCH   9   5
BRANCH  11   6
ATOM      4  O   UNL     1      -0.152   2.265  25.871  0.00  0.00    -0.253 OA
ATOM      6  N   UNL     1      -0.839   1.074  24.001  0.00  0.00    -0.291 N 
ATOM      8  N   UNL     1      -0.388   3.318  23.817  0.00  0.00    -0.300 N 
ATOM     19  C   UNL     1      -0.434   2.221  24.674  0.00  0.00    +0.300 C 
ATOM     23  H   UNL     1      -1.126   1.159  23.029  0.00  0.00    +0.151 HD
ATOM     25  H   UNL     1      -0.647   3.188  22.844  0.00  0.00    +0.150 HD
BRANCH   8  21
ATOM     21  C   UNL     1       0.002   4.638  24.254  0.00  0.00    +0.102 C 
ATOM     22  C   UNL     1      -1.140   5.351  24.946  0.00  0.00    +0.024 C 
ENDBRANCH   8  21
ENDBRANCH  11   6
BRANCH  10   3
ATOM      3  O   UNL     1      -1.426  -1.044  26.876  0.00  0.00    -0.388 OA
ATOM     24  H   UNL     1      -1.749  -1.918  26.596  0.00  0.00    +0.210 HD
ENDBRANCH  10   3
TORSDOF 4
ENDMDL
MODEL 5
REMARK VINA RESULT:      -1.4     16.375     18.084
REMARK  Name = 45360572
REMARK  6 active torsions:
REMARK  status: ('A' for Active; 'I' for Inactive)
REMARK    1  A    between atoms: O_3  and  C_10
REMARK    2  A    between atoms: N_5  and  C_9
REMARK    3  A    between atoms: N_6  and  C_11
REMARK    4  A    between atoms: N_7  and  C_20
REMARK    5  A    between atoms: N_8  and  C_21
REMARK    6  A    between atoms: C_21  and  C_22
REMARK                            x       y       z     vdW  Elec       q    Type
REMARK                         _______ _______ _______ _____ _____    ______ ____
ROOT
ATOM      1  O   UNL     1      -2.307  -0.937  26.272  0.00  0.00    -0.342 OA
ATOM      2  O   UNL     1      -1.935  -2.370  24.488  0.00  0.00    -0.347 OA
ATOM      9  C   UNL     1      -2.068   0.008  24.067  0.00  0.00    +0.144 C 
ATOM     10  C   UNL     1      -3.592  -0.096  23.835  0.00  0.00    +0.159 C 
ATOM     11  C   UNL     1      -4.371  -0.584  25.075  0.00  0.00    +0.136 C 
ATOM     12  C   UNL     1      -1.592  -1.087  25.039  0.00  0.00    +0.270 C 
ATOM     13  C   UNL     1      -3.561  -1.554  25.959  0.00  0.00    +0.170 C 
ATOM     14  C   UNL     1      -3.082  -2.799  25.237  0.00  0.00    +0.196 C 
ENDROOT
BRANCH   9   5
ATOM      5  N   UNL     1      -1.730   1.325  24.603  0.00  0.00    -0.290 NA
ATOM      7  N   UNL     1      -0.741   4.031  24.352  0.00  0.00    -0.303 NA
ATOM     15  C   UNL     1      -2.529   2.372  23.956  0.00  0.00    +0.100 C 
ATOM     16  C   UNL     1      -0.297   1.601  24.443  0.00  0.00    +0.100 C 
ATOM     17  C   UNL     1      -2.174   3.754  24.515  0.00  0.00    +0.099 C 
ATOM     18  C   UNL     1       0.059   2.984  25.001  0.00  0.00    +0.099 C 
ATOM     20  C   UNL     1      -0.402   5.348  24.887  0.00  0.00    +0.105 C 
ENDBRANCH   9   5
BRANCH  11   6
ATOM      4  O   UNL     1      -5.754   1.765  24.129  0.00  0.00    -0.253 OA
ATOM      6  N   UNL     1      -4.810   0.547  25.865  0.00  0.00    -0.291 N 
ATOM      8  N   UNL     1      -5.778   2.583  26.300  0.00  0.00    -0.300 N 
ATOM     19  C   UNL     1      -5.473   1.641  25.320  0.00  0.00    +0.300 C 
ATOM     23  H   UNL     1      -4.554   0.577  26.848  0.00  0.00    +0.151 HD
ATOM     25  H   UNL     1      -5.497   2.399  27.258  0.00  0.00    +0.150 HD
BRANCH   8  21
ATOM     21  C   UNL     1      -6.467   3.819  26.010  0.00  0.00    +0.102 C 
ATOM     22  C   UNL     1      -5.530   4.848  25.413  0.00  0.00    +0.024 C 
ENDBRANCH   8  21
ENDBRANCH  11   6
BRANCH  10   3
ATOM      3  O   UNL     1      -3.808  -1.023  22.762  0.00  0.00    -0.388 OA
ATOM     24  H   UNL     1      -4.276  -1.793  23.128  0.00  0.00    +0.210 HD
ENDBRANCH  10   3
TORSDOF 4
ENDMDL
MODEL 6
REMARK VINA RESULT:      -1.3     16.215     18.703
REMARK  Name = 45360572
REMARK  6 active torsions:
REMARK  status: ('A' for Active; 'I' for Inactive)
REMARK    1  A    between atoms: O_3  and  C_10
REMARK    2  A    between atoms: N_5  and  C_9
REMARK    3  A    between atoms: N_6  and  C_11
REMARK    4  A    between atoms: N_7  and  C_20
REMARK    5  A    between atoms: N_8  and  C_21
REMARK    6  A    between atoms: C_21  and  C_22
REMARK                            x       y       z     vdW  Elec       q    Type
REMARK                         _______ _______ _______ _____ _____    ______ ____
ROOT
ATOM      1  O   UNL     1      -1.579   2.637  23.730  0.00  0.00    -0.342 OA
ATOM      2  O   UNL     1       0.731   2.834  23.771  0.00  0.00    -0.347 OA
ATOM      9  C   UNL     1      -0.320   1.148  25.149  0.00  0.00    +0.144 C 
ATOM     10  C   UNL     1      -0.429   2.144  26.325  0.00  0.00    +0.159 C 
ATOM     11  C   UNL     1      -1.310   3.373  26.011  0.00  0.00    +0.136 C 
ATOM     12  C   UNL     1      -0.355   1.893  23.802  0.00  0.00    +0.270 C 
ATOM     13  C   UNL     1      -1.269   3.786  24.525  0.00  0.00    +0.170 C 
ATOM     14  C   UNL     1       0.120   4.111  24.010  0.00  0.00    +0.196 C 
ENDROOT
BRANCH   9   5
ATOM      5  N   UNL     1      -1.416   0.181  25.206  0.00  0.00    -0.290 NA
ATOM      7  N   UNL     1      -3.019  -1.961  24.110  0.00  0.00    -0.303 NA
ATOM     15  C   UNL     1      -0.903  -1.192  25.128  0.00  0.00    +0.100 C 
ATOM     16  C   UNL     1      -2.386   0.428  24.132  0.00  0.00    +0.100 C 
ATOM     17  C   UNL     1      -2.051  -2.207  25.185  0.00  0.00    +0.099 C 
ATOM     18  C   UNL     1      -3.533  -0.587  24.188  0.00  0.00    +0.099 C 
ATOM     20  C   UNL     1      -4.114  -2.927  24.165  0.00  0.00    +0.105 C 
ENDBRANCH   9   5
BRANCH  11   6
ATOM      4  O   UNL     1      -3.690   3.807  24.438  0.00  0.00    -0.253 OA
ATOM      6  N   UNL     1      -2.678   3.121  26.411  0.00  0.00    -0.291 N 
ATOM      8  N   UNL     1      -4.964   3.033  26.217  0.00  0.00    -0.300 N 
ATOM     19  C   UNL     1      -3.768   3.362  25.583  0.00  0.00    +0.300 C 
ATOM     23  H   UNL     1      -2.853   2.827  27.368  0.00  0.00    +0.151 HD
ATOM     25  H   UNL     1      -4.930   2.680  27.168  0.00  0.00    +0.150 HD
BRANCH   8  21
ATOM     21  C   UNL     1      -6.253   3.184  25.584  0.00  0.00    +0.102 C 
ATOM     22  C   UNL     1      -6.648   1.933  24.827  0.00  0.00    +0.024 C 
ENDBRANCH   8  21
ENDBRANCH  11   6
BRANCH  10   3
ATOM      3  O   UNL     1       0.896   2.596  26.638  0.00  0.00    -0.388 OA
ATOM     24  H   UNL     1       1.153   3.244  25.960  0.00  0.00    +0.210 HD
ENDBRANCH  10   3
TORSDOF 4
ENDMDL
MODEL 7
REMARK VINA RESULT:      -1.3      2.831      5.171
REMARK  Name = 45360572
REMARK  6 active torsions:
REMARK  status: ('A' for Active; 'I' for Inactive)
REMARK    1  A    between atoms: O_3  and  C_10
REMARK    2  A    between atoms: N_5  and  C_9
REMARK    3  A    between atoms: N_6  and  C_11
REMARK    4  A    between atoms: N_7  and  C_20
REMARK    5  A    between atoms: N_8  and  C_21
REMARK    6  A    between atoms: C_21  and  C_22
REMARK                            x       y       z     vdW  Elec       q    Type
REMARK                         _______ _______ _______ _____ _____    ______ ____
ROOT
ATOM      1  O   UNL     1      -5.970  -8.144  11.645  0.00  0.00    -0.342 OA
ATOM      2  O   UNL     1      -6.616  -8.095   9.419  0.00  0.00    -0.347 OA
ATOM      9  C   UNL     1      -7.100 -10.068  10.731  0.00  0.00    +0.144 C 
ATOM     10  C   UNL     1      -5.748 -10.696  10.327  0.00  0.00    +0.159 C 
ATOM     11  C   UNL     1      -4.525  -9.880  10.801  0.00  0.00    +0.136 C 
ATOM     12  C   UNL     1      -7.005  -8.531  10.733  0.00  0.00    +0.270 C 
ATOM     13  C   UNL     1      -4.793  -8.363  10.860  0.00  0.00    +0.170 C 
ATOM     14  C   UNL     1      -5.227  -7.757   9.539  0.00  0.00    +0.196 C 
ENDROOT
BRANCH   9   5
ATOM      5  N   UNL     1      -7.497 -10.539  12.057  0.00  0.00    -0.290 NA
ATOM      7  N   UNL     1      -8.523 -10.139  14.731  0.00  0.00    -0.303 NA
ATOM     15  C   UNL     1      -8.922 -10.281  12.297  0.00  0.00    +0.100 C 
ATOM     16  C   UNL     1      -6.679  -9.908  13.101  0.00  0.00    +0.100 C 
ATOM     17  C   UNL     1      -9.339 -10.772  13.688  0.00  0.00    +0.099 C 
ATOM     18  C   UNL     1      -7.097 -10.398  14.492  0.00  0.00    +0.099 C 
ATOM     20  C   UNL     1      -8.919 -10.607  16.057  0.00  0.00    +0.105 C 
ENDBRANCH   9   5
BRANCH  11   6
ATOM      4  O   UNL     1      -1.857  -9.729  11.890  0.00  0.00    -0.253 OA
ATOM      6  N   UNL     1      -4.084 -10.351  12.096  0.00  0.00    -0.291 N 
ATOM      8  N   UNL     1      -2.623 -10.769  13.817  0.00  0.00    -0.300 N 
ATOM     19  C   UNL     1      -2.771 -10.235  12.539  0.00  0.00    +0.300 C 
ATOM     23  H   UNL     1      -4.747 -10.857  12.676  0.00  0.00    +0.151 HD
ATOM     25  H   UNL     1      -3.433 -11.176  14.273  0.00  0.00    +0.150 HD
BRANCH   8  21
ATOM     21  C   UNL     1      -1.361 -10.781  14.519  0.00  0.00    +0.102 C 
ATOM     22  C   UNL     1      -1.556 -10.622  16.013  0.00  0.00    +0.024 C 
ENDBRANCH   8  21
ENDBRANCH  11   6
BRANCH  10   3
ATOM      3  O   UNL     1      -5.717 -10.781   8.895  0.00  0.00    -0.388 OA
ATOM     24  H   UNL     1      -4.878 -11.205   8.644  0.00  0.00    +0.210 HD
ENDBRANCH  10   3
TORSDOF 4
ENDMDL
MODEL 8
REMARK VINA RESULT:      -1.2      1.176      1.212
REMARK  Name = 45360572
REMARK  6 active torsions:
REMARK  status: ('A' for Active; 'I' for Inactive)
REMARK    1  A    between atoms: O_3  and  C_10
REMARK    2  A    between atoms: N_5  and  C_9
REMARK    3  A    between atoms: N_6  and  C_11
REMARK    4  A    between atoms: N_7  and  C_20
REMARK    5  A    between atoms: N_8  and  C_21
REMARK    6  A    between atoms: C_21  and  C_22
REMARK                            x       y       z     vdW  Elec       q    Type
REMARK                         _______ _______ _______ _____ _____    ______ ____
ROOT
ATOM      1  O   UNL     1      -4.937  -8.496  11.288  0.00  0.00    -0.342 OA
ATOM      2  O   UNL     1      -3.256  -8.813   9.722  0.00  0.00    -0.347 OA
ATOM      9  C   UNL     1      -5.525  -8.488   8.950  0.00  0.00    +0.144 C 
ATOM     10  C   UNL     1      -5.779 -10.011   8.987  0.00  0.00    +0.159 C 
ATOM     11  C   UNL     1      -5.652 -10.622  10.400  0.00  0.00    +0.136 C 
ATOM     12  C   UNL     1      -4.468  -8.089   9.996  0.00  0.00    +0.270 C 
ATOM     13  C   UNL     1      -4.621  -9.893  11.286  0.00  0.00    +0.170 C 
ATOM     14  C   UNL     1      -3.220  -9.857  10.706  0.00  0.00    +0.196 C 
ENDROOT
BRANCH   9   5
ATOM      5  N   UNL     1      -6.769  -7.763   9.205  0.00  0.00    -0.290 NA
ATOM      7  N   UNL     1      -9.475  -6.982   8.548  0.00  0.00    -0.303 NA
ATOM     15  C   UNL     1      -7.892  -8.696   9.362  0.00  0.00    +0.100 C 
ATOM     16  C   UNL     1      -7.046  -6.805   8.127  0.00  0.00    +0.100 C 
ATOM     17  C   UNL     1      -9.198  -7.938   9.627  0.00  0.00    +0.099 C 
ATOM     18  C   UNL     1      -8.352  -6.049   8.391  0.00  0.00    +0.099 C 
ATOM     20  C   UNL     1     -10.719  -6.259   8.800  0.00  0.00    +0.105 C 
ENDBRANCH   9   5
BRANCH  11   6
ATOM      4  O   UNL     1      -6.158 -10.534  13.239  0.00  0.00    -0.253 OA
ATOM      6  N   UNL     1      -6.942 -10.631  11.057  0.00  0.00    -0.291 N 
ATOM      8  N   UNL     1      -8.435 -10.609  12.801  0.00  0.00    -0.300 N 
ATOM     19  C   UNL     1      -7.090 -10.587  12.439  0.00  0.00    +0.300 C 
ATOM     23  H   UNL     1      -7.773 -10.754  10.485  0.00  0.00    +0.151 HD
ATOM     25  H   UNL     1      -9.136 -10.663  12.069  0.00  0.00    +0.150 HD
BRANCH   8  21
ATOM     21  C   UNL     1      -8.877 -10.572  14.175  0.00  0.00    +0.102 C 
ATOM     22  C   UNL     1      -9.894  -9.473  14.401  0.00  0.00    +0.024 C 
ENDBRANCH   8  21
ENDBRANCH  11   6
BRANCH  10   3
ATOM      3  O   UNL     1      -4.816 -10.636   8.128  0.00  0.00    -0.388 OA
ATOM     24  H   UNL     1      -4.973 -10.309   7.225  0.00  0.00    +0.210 HD
ENDBRANCH  10   3
TORSDOF 4
ENDMDL
MODEL 9
REMARK VINA RESULT:      -0.8     16.552     19.068
REMARK  Name = 45360572
REMARK  6 active torsions:
REMARK  status: ('A' for Active; 'I' for Inactive)
REMARK    1  A    between atoms: O_3  and  C_10
REMARK    2  A    between atoms: N_5  and  C_9
REMARK    3  A    between atoms: N_6  and  C_11
REMARK    4  A    between atoms: N_7  and  C_20
REMARK    5  A    between atoms: N_8  and  C_21
REMARK    6  A    between atoms: C_21  and  C_22
REMARK                            x       y       z     vdW  Elec       q    Type
REMARK                         _______ _______ _______ _____ _____    ______ ____
ROOT
ATOM      1  O   UNL     1      -5.110   2.014  26.282  0.00  0.00    -0.342 OA
ATOM      2  O   UNL     1      -6.191   2.818  24.395  0.00  0.00    -0.347 OA
ATOM      9  C   UNL     1      -4.230   1.431  24.115  0.00  0.00    +0.144 C 
ATOM     10  C   UNL     1      -3.319   2.679  24.126  0.00  0.00    +0.159 C 
ATOM     11  C   UNL     1      -3.375   3.470  25.452  0.00  0.00    +0.136 C 
ATOM     12  C   UNL     1      -5.502   1.682  24.945  0.00  0.00    +0.270 C 
ATOM     13  C   UNL     1      -4.750   3.393  26.146  0.00  0.00    +0.170 C 
ATOM     14  C   UNL     1      -5.903   3.896  25.298  0.00  0.00    +0.196 C 
ENDROOT
BRANCH   9   5
ATOM      5  N   UNL     1      -3.510   0.278  24.652  0.00  0.00    -0.290 NA
ATOM      7  N   UNL     1      -1.915  -2.118  24.376  0.00  0.00    -0.303 NA
ATOM     15  C   UNL     1      -2.085   0.346  24.306  0.00  0.00    +0.100 C 
ATOM     16  C   UNL     1      -4.096  -0.977  24.164  0.00  0.00    +0.100 C 
ATOM     17  C   UNL     1      -1.329  -0.864  24.866  0.00  0.00    +0.099 C 
ATOM     18  C   UNL     1      -3.340  -2.187  24.723  0.00  0.00    +0.099 C 
ATOM     20  C   UNL     1      -1.195  -3.272  24.911  0.00  0.00    +0.105 C 
ENDBRANCH   9   5
BRANCH  11   6
ATOM      4  O   UNL     1      -0.523   3.765  25.134  0.00  0.00    -0.253 OA
ATOM      6  N   UNL     1      -2.344   3.003  26.354  0.00  0.00    -0.291 N 
ATOM      8  N   UNL     1      -0.218   2.644  27.143  0.00  0.00    -0.300 N 
ATOM     19  C   UNL     1      -0.987   3.191  26.118  0.00  0.00    +0.300 C 
ATOM     23  H   UNL     1      -2.623   2.447  27.158  0.00  0.00    +0.151 HD
ATOM     25  H   UNL     1      -0.690   2.180  27.912  0.00  0.00    +0.150 HD
BRANCH   8  21
ATOM     21  C   UNL     1       1.225   2.697  27.152  0.00  0.00    +0.102 C 
ATOM     22  C   UNL     1       1.770   2.708  28.565  0.00  0.00    +0.024 C 
ENDBRANCH   8  21
ENDBRANCH  11   6
BRANCH  10   3
ATOM      3  O   UNL     1      -3.743   3.539  23.060  0.00  0.00    -0.388 OA
ATOM     24  H   UNL     1      -3.340   3.209  22.239  0.00  0.00    +0.210 HD
ENDBRANCH  10   3
TORSDOF 4
ENDMDL
MODEL 10
REMARK VINA RESULT:       0.4     16.046     17.663
REMARK  Name = 45360572
REMARK  6 active torsions:
REMARK  status: ('A' for Active; 'I' for Inactive)
REMARK    1  A    between atoms: O_3  and  C_10
REMARK    2  A    between atoms: N_5  and  C_9
REMARK    3  A    between atoms: N_6  and  C_11
REMARK    4  A    between atoms: N_7  and  C_20
REMARK    5  A    between atoms: N_8  and  C_21
REMARK    6  A    between atoms: C_21  and  C_22
REMARK                            x       y       z     vdW  Elec       q    Type
REMARK                         _______ _______ _______ _____ _____    ______ ____
ROOT
ATOM      1  O   UNL     1      -2.741  -0.828  23.347  0.00  0.00    -0.342 OA
ATOM      2  O   UNL     1      -4.177  -2.314  24.399  0.00  0.00    -0.347 OA
ATOM      9  C   UNL     1      -3.806  -0.143  25.398  0.00  0.00    +0.144 C 
ATOM     10  C   UNL     1      -2.623  -0.700  26.222  0.00  0.00    +0.159 C 
ATOM     11  C   UNL     1      -1.460  -1.225  25.351  0.00  0.00    +0.136 C 
ATOM     12  C   UNL     1      -3.967  -0.927  24.083  0.00  0.00    +0.270 C 
ATOM     13  C   UNL     1      -1.928  -1.808  24.002  0.00  0.00    +0.170 C 
ATOM     14  C   UNL     1      -2.919  -2.949  24.128  0.00  0.00    +0.196 C 
ENDROOT
BRANCH   9   5
ATOM      5  N   UNL     1      -3.592   1.273  25.105  0.00  0.00    -0.290 NA
ATOM      7  N   UNL     1      -4.258   3.758  23.785  0.00  0.00    -0.303 NA
ATOM     15  C   UNL     1      -4.751   2.072  25.522  0.00  0.00    +0.100 C 
ATOM     16  C   UNL     1      -3.318   1.475  23.677  0.00  0.00    +0.100 C 
ATOM     17  C   UNL     1      -4.530   3.557  25.213  0.00  0.00    +0.099 C 
ATOM     18  C   UNL     1      -3.098   2.960  23.367  0.00  0.00    +0.099 C 
ATOM     20  C   UNL     1      -4.045   5.174  23.490  0.00  0.00    +0.105 C 
ENDBRANCH   9   5
BRANCH  11   6
ATOM      4  O   UNL     1       0.299  -0.944  23.082  0.00  0.00    -0.253 OA
ATOM      6  N   UNL     1      -0.494  -0.172  25.122  0.00  0.00    -0.291 N 
ATOM      8  N   UNL     1       1.151   0.996  24.027  0.00  0.00    -0.300 N 
ATOM     19  C   UNL     1       0.316  -0.118  23.993  0.00  0.00    +0.300 C 
ATOM     23  H   UNL     1      -0.348   0.516  25.856  0.00  0.00    +0.151 HD
ATOM     25  H   UNL     1       1.101   1.619  24.826  0.00  0.00    +0.150 HD
BRANCH   8  21
ATOM     21  C   UNL     1       2.097   1.297  22.978  0.00  0.00    +0.102 C 
ATOM     22  C   UNL     1       3.339   0.438  23.089  0.00  0.00    +0.024 C 
ENDBRANCH   8  21
ENDBRANCH  11   6
BRANCH  10   3
ATOM      3  O   UNL     1      -3.120  -1.779  27.025  0.00  0.00    -0.388 OA
ATOM     24  H   UNL     1      -3.337  -1.417  27.901  0.00  0.00    +0.210 HD
ENDBRANCH  10   3
TORSDOF 4
ENDMDL
