MODEL 1
REMARK VINA RESULT:       5.6      0.000      0.000
REMARK  Name = 7156591
REMARK  7 active torsions:
REMARK  status: ('A' for Active; 'I' for Inactive)
REMARK    1  A    between atoms: O_3  and  C_22
REMARK    2  A    between atoms: N_8  and  C_24
REMARK    3  A    between atoms: C_9  and  C_12
REMARK    4  A    between atoms: C_9  and  C_17
REMARK    5  A    between atoms: C_12  and  C_20
REMARK    6  A    between atoms: C_17  and  C_22
REMARK    7  A    between atoms: C_29  and  C_30
REMARK                            x       y       z     vdW  Elec       q    Type
REMARK                         _______ _______ _______ _____ _____    ______ ____
ROOT
ATOM      1  O   UNL     1      14.386  -6.430  24.796  0.00  0.00    -0.276 OA
ATOM      2  O   UNL     1      14.223  -5.709  27.808  0.00  0.00    -0.273 OA
ATOM      5  O   UNL     1      14.189  -9.234  30.920  0.00  0.00    -0.252 OA
ATOM      6  N   UNL     1      16.015  -7.080  26.306  0.00  0.00    -0.288 N 
ATOM      7  N   UNL     1      15.554  -9.298  29.122  0.00  0.00    -0.293 N 
ATOM      8  N   UNL     1      14.139  -7.416  29.424  0.00  0.00    -0.193 N 
ATOM     15  C   UNL     1      15.133  -7.842  27.192  0.00  0.00    +0.183 C 
ATOM     16  C   UNL     1      16.093  -8.773  27.903  0.00  0.00    +0.105 C 
ATOM     18  C   UNL     1      17.346  -7.916  28.077  0.00  0.00    +0.043 C 
ATOM     19  C   UNL     1      17.405  -7.158  26.756  0.00  0.00    +0.110 C 
ATOM     20  C   UNL     1      15.568  -6.475  25.142  0.00  0.00    +0.217 C 
ATOM     21  C   UNL     1      14.461  -6.867  28.155  0.00  0.00    +0.250 C 
ATOM     23  C   UNL     1      14.605  -8.669  29.903  0.00  0.00    +0.313 C 
ATOM     31  H   UNL     1      15.908 -10.192  29.447  0.00  0.00    +0.151 HD
ENDROOT
BRANCH   8  24
ATOM     24  C   UNL     1      13.290  -6.633  30.298  0.00  0.00    +0.045 A 
ATOM     25  C   UNL     1      13.867  -5.816  31.261  0.00  0.00    +0.024 A 
ATOM     26  C   UNL     1      11.911  -6.710  30.161  0.00  0.00    +0.024 A 
ATOM     27  C   UNL     1      13.050  -5.061  32.103  0.00  0.00    +0.005 A 
ATOM     28  C   UNL     1      11.092  -5.955  31.004  0.00  0.00    +0.005 A 
ATOM     29  C   UNL     1      11.662  -5.131  31.974  0.00  0.00    -0.050 A 
ATOM     30  C   UNL     1      10.787  -4.324  32.873  0.00  0.00    +0.044 C 
ENDBRANCH   8  24
BRANCH  20  12
ATOM     12  C   UNL     1      16.638  -5.843  24.287  0.00  0.00    +0.103 C 
BRANCH  12   9
ATOM      9  C   UNL     1      16.684  -4.329  24.540  0.00  0.00    -0.011 C 
ATOM     10  C   UNL     1      17.394  -3.610  23.370  0.00  0.00    +0.008 C 
ATOM     11  C   UNL     1      15.256  -3.739  24.574  0.00  0.00    +0.008 C 
ATOM     13  C   UNL     1      16.456  -2.486  22.948  0.00  0.00    +0.001 C 
ATOM     14  C   UNL     1      15.077  -3.055  23.226  0.00  0.00    +0.001 C 
BRANCH   9  17
ATOM     17  C   UNL     1      17.405  -4.065  25.867  0.00  0.00    +0.127 C 
BRANCH  17  22
ATOM      4  O   UNL     1      17.395  -1.628  25.828  0.00  0.00    -0.251 OA
ATOM     22  C   UNL     1      17.121  -2.684  26.378  0.00  0.00    +0.305 C 
BRANCH  22   3
ATOM      3  O   UNL     1      16.493  -2.768  27.579  0.00  0.00    -0.481 OA
ATOM     32  H   UNL     1      16.529  -1.919  28.071  0.00  0.00    +0.295 HD
ENDBRANCH  22   3
ENDBRANCH  17  22
ENDBRANCH   9  17
ENDBRANCH  12   9
ENDBRANCH  20  12
TORSDOF 6
ENDMDL
MODEL 2
REMARK VINA RESULT:       6.1      1.934      2.623
REMARK  Name = 7156591
REMARK  7 active torsions:
REMARK  status: ('A' for Active; 'I' for Inactive)
REMARK    1  A    between atoms: O_3  and  C_22
REMARK    2  A    between atoms: N_8  and  C_24
REMARK    3  A    between atoms: C_9  and  C_12
REMARK    4  A    between atoms: C_9  and  C_17
REMARK    5  A    between atoms: C_12  and  C_20
REMARK    6  A    between atoms: C_17  and  C_22
REMARK    7  A    between atoms: C_29  and  C_30
REMARK                            x       y       z     vdW  Elec       q    Type
REMARK                         _______ _______ _______ _____ _____    ______ ____
ROOT
ATOM      1  O   UNL     1      14.290  -5.679  25.484  0.00  0.00    -0.276 OA
ATOM      2  O   UNL     1      13.630  -6.652  28.353  0.00  0.00    -0.273 OA
ATOM      5  O   UNL     1      16.083 -10.277  30.071  0.00  0.00    -0.252 OA
ATOM      6  N   UNL     1      15.880  -5.720  27.164  0.00  0.00    -0.288 N 
ATOM      7  N   UNL     1      17.106  -8.658  28.873  0.00  0.00    -0.293 N 
ATOM      8  N   UNL     1      14.770  -8.499  29.261  0.00  0.00    -0.193 N 
ATOM     15  C   UNL     1      15.795  -7.153  27.446  0.00  0.00    +0.183 C 
ATOM     16  C   UNL     1      17.124  -7.445  28.110  0.00  0.00    +0.105 C 
ATOM     18  C   UNL     1      17.391  -6.182  28.927  0.00  0.00    +0.043 C 
ATOM     19  C   UNL     1      16.907  -5.083  27.989  0.00  0.00    +0.110 C 
ATOM     20  C   UNL     1      15.148  -5.108  26.158  0.00  0.00    +0.217 C 
ATOM     21  C   UNL     1      14.618  -7.388  28.391  0.00  0.00    +0.250 C 
ATOM     23  C   UNL     1      15.984  -9.207  29.462  0.00  0.00    +0.313 C 
ATOM     31  H   UNL     1      17.988  -9.143  29.008  0.00  0.00    +0.151 HD
ENDROOT
BRANCH   8  24
ATOM     24  C   UNL     1      13.607  -8.928  30.011  0.00  0.00    +0.045 A 
ATOM     25  C   UNL     1      13.179  -8.178  31.098  0.00  0.00    +0.024 A 
ATOM     26  C   UNL     1      12.937 -10.083  29.632  0.00  0.00    +0.024 A 
ATOM     27  C   UNL     1      12.059  -8.590  31.820  0.00  0.00    +0.005 A 
ATOM     28  C   UNL     1      11.816 -10.496  30.355  0.00  0.00    +0.005 A 
ATOM     29  C   UNL     1      11.377  -9.749  31.448  0.00  0.00    -0.050 A 
ATOM     30  C   UNL     1      10.180 -10.191  32.220  0.00  0.00    +0.044 C 
ENDBRANCH   8  24
BRANCH  20  12
ATOM     12  C   UNL     1      15.458  -3.651  25.925  0.00  0.00    +0.103 C 
BRANCH  12   9
ATOM      9  C   UNL     1      16.526  -3.512  24.831  0.00  0.00    -0.011 C 
ATOM     10  C   UNL     1      17.397  -4.788  24.765  0.00  0.00    +0.008 C 
ATOM     11  C   UNL     1      15.869  -3.396  23.438  0.00  0.00    +0.008 C 
ATOM     13  C   UNL     1      17.405  -5.205  23.299  0.00  0.00    +0.001 C 
ATOM     14  C   UNL     1      16.039  -4.768  22.802  0.00  0.00    +0.001 C 
BRANCH   9  17
ATOM     17  C   UNL     1      17.384  -2.275  25.124  0.00  0.00    +0.127 C 
BRANCH  17  22
ATOM      4  O   UNL     1      15.802  -0.848  26.308  0.00  0.00    -0.251 OA
ATOM     22  C   UNL     1      16.533  -1.061  25.353  0.00  0.00    +0.305 C 
BRANCH  22   3
ATOM      3  O   UNL     1      16.690  -0.198  24.316  0.00  0.00    -0.481 OA
ATOM     32  H   UNL     1      17.501  -0.393  23.798  0.00  0.00    +0.295 HD
ENDBRANCH  22   3
ENDBRANCH  17  22
ENDBRANCH   9  17
ENDBRANCH  12   9
ENDBRANCH  20  12
TORSDOF 6
ENDMDL
MODEL 3
REMARK VINA RESULT:       6.4      2.279      2.971
REMARK  Name = 7156591
REMARK  7 active torsions:
REMARK  status: ('A' for Active; 'I' for Inactive)
REMARK    1  A    between atoms: O_3  and  C_22
REMARK    2  A    between atoms: N_8  and  C_24
REMARK    3  A    between atoms: C_9  and  C_12
REMARK    4  A    between atoms: C_9  and  C_17
REMARK    5  A    between atoms: C_12  and  C_20
REMARK    6  A    between atoms: C_17  and  C_22
REMARK    7  A    between atoms: C_29  and  C_30
REMARK                            x       y       z     vdW  Elec       q    Type
REMARK                         _______ _______ _______ _____ _____    ______ ____
ROOT
ATOM      1  O   UNL     1      14.909  -5.406  26.758  0.00  0.00    -0.276 OA
ATOM      2  O   UNL     1      13.547  -6.072  29.462  0.00  0.00    -0.273 OA
ATOM      5  O   UNL     1      15.647  -9.199  32.278  0.00  0.00    -0.252 OA
ATOM      6  N   UNL     1      15.976  -5.082  28.785  0.00  0.00    -0.288 N 
ATOM      7  N   UNL     1      16.860  -7.650  31.168  0.00  0.00    -0.293 N 
ATOM      8  N   UNL     1      14.502  -7.671  30.899  0.00  0.00    -0.193 N 
ATOM     15  C   UNL     1      15.903  -6.470  29.242  0.00  0.00    +0.183 C 
ATOM     16  C   UNL     1      17.014  -6.547  30.268  0.00  0.00    +0.105 C 
ATOM     18  C   UNL     1      16.971  -5.171  30.932  0.00  0.00    +0.043 C 
ATOM     19  C   UNL     1      16.698  -4.250  29.749  0.00  0.00    +0.110 C 
ATOM     20  C   UNL     1      15.514  -4.675  27.544  0.00  0.00    +0.217 C 
ATOM     21  C   UNL     1      14.529  -6.698  29.867  0.00  0.00    +0.250 C 
ATOM     23  C   UNL     1      15.655  -8.228  31.514  0.00  0.00    +0.313 C 
ATOM     31  H   UNL     1      17.699  -8.026  31.600  0.00  0.00    +0.151 HD
ENDROOT
BRANCH   8  24
ATOM     24  C   UNL     1      13.206  -8.114  31.371  0.00  0.00    +0.045 A 
ATOM     25  C   UNL     1      12.728  -9.361  30.990  0.00  0.00    +0.024 A 
ATOM     26  C   UNL     1      12.459  -7.286  32.197  0.00  0.00    +0.024 A 
ATOM     27  C   UNL     1      11.480  -9.788  31.445  0.00  0.00    +0.005 A 
ATOM     28  C   UNL     1      11.210  -7.712  32.652  0.00  0.00    +0.005 A 
ATOM     29  C   UNL     1      10.722  -8.963  32.276  0.00  0.00    -0.050 A 
ATOM     30  C   UNL     1       9.387  -9.418  32.763  0.00  0.00    +0.044 C 
ENDBRANCH   8  24
BRANCH  20  12
ATOM     12  C   UNL     1      15.788  -3.235  27.189  0.00  0.00    +0.103 C 
BRANCH  12   9
ATOM      9  C   UNL     1      16.540  -3.159  25.853  0.00  0.00    -0.011 C 
ATOM     10  C   UNL     1      17.405  -4.425  25.649  0.00  0.00    +0.008 C 
ATOM     11  C   UNL     1      15.547  -3.151  24.668  0.00  0.00    +0.008 C 
ATOM     13  C   UNL     1      17.053  -4.945  24.261  0.00  0.00    +0.001 C 
ATOM     14  C   UNL     1      15.593  -4.563  24.100  0.00  0.00    +0.001 C 
BRANCH   9  17
ATOM     17  C   UNL     1      17.405  -1.893  25.836  0.00  0.00    +0.127 C 
BRANCH  17  22
ATOM      4  O   UNL     1      17.139  -1.188  23.518  0.00  0.00    -0.251 OA
ATOM     22  C   UNL     1      17.012  -0.977  24.714  0.00  0.00    +0.305 C 
BRANCH  22   3
ATOM      3  O   UNL     1      16.476   0.160  25.228  0.00  0.00    -0.481 OA
ATOM     32  H   UNL     1      16.757   0.956  24.728  0.00  0.00    +0.295 HD
ENDBRANCH  22   3
ENDBRANCH  17  22
ENDBRANCH   9  17
ENDBRANCH  12   9
ENDBRANCH  20  12
TORSDOF 6
ENDMDL
MODEL 4
REMARK VINA RESULT:       6.7     15.786     17.594
REMARK  Name = 7156591
REMARK  7 active torsions:
REMARK  status: ('A' for Active; 'I' for Inactive)
REMARK    1  A    between atoms: O_3  and  C_22
REMARK    2  A    between atoms: N_8  and  C_24
REMARK    3  A    between atoms: C_9  and  C_12
REMARK    4  A    between atoms: C_9  and  C_17
REMARK    5  A    between atoms: C_12  and  C_20
REMARK    6  A    between atoms: C_17  and  C_22
REMARK    7  A    between atoms: C_29  and  C_30
REMARK                            x       y       z     vdW  Elec       q    Type
REMARK                         _______ _______ _______ _____ _____    ______ ____
ROOT
ATOM      1  O   UNL     1       0.969   0.396  22.760  0.00  0.00    -0.276 OA
ATOM      2  O   UNL     1      -1.376   1.328  24.561  0.00  0.00    -0.273 OA
ATOM      5  O   UNL     1      -5.515  -0.855  24.097  0.00  0.00    -0.252 OA
ATOM      6  N   UNL     1      -0.110  -1.043  24.214  0.00  0.00    -0.288 N 
ATOM      7  N   UNL     1      -3.584  -2.027  24.060  0.00  0.00    -0.293 N 
ATOM      8  N   UNL     1      -3.494   0.328  24.346  0.00  0.00    -0.193 N 
ATOM     15  C   UNL     1      -1.450  -0.889  23.646  0.00  0.00    +0.183 C 
ATOM     16  C   UNL     1      -2.157  -2.148  24.104  0.00  0.00    +0.105 C 
ATOM     18  C   UNL     1      -1.580  -2.384  25.498  0.00  0.00    +0.043 C 
ATOM     19  C   UNL     1      -0.113  -2.016  25.308  0.00  0.00    +0.110 C 
ATOM     20  C   UNL     1       1.007  -0.419  23.683  0.00  0.00    +0.217 C 
ATOM     21  C   UNL     1      -2.080   0.370  24.235  0.00  0.00    +0.250 C 
ATOM     23  C   UNL     1      -4.283  -0.842  24.183  0.00  0.00    +0.313 C 
ATOM     31  H   UNL     1      -4.126  -2.878  23.949  0.00  0.00    +0.151 HD
ENDROOT
BRANCH   8  24
ATOM     24  C   UNL     1      -4.180   1.564  24.668  0.00  0.00    +0.045 A 
ATOM     25  C   UNL     1      -5.188   1.559  25.622  0.00  0.00    +0.024 A 
ATOM     26  C   UNL     1      -3.818   2.735  24.017  0.00  0.00    +0.024 A 
ATOM     27  C   UNL     1      -5.848   2.748  25.932  0.00  0.00    +0.005 A 
ATOM     28  C   UNL     1      -4.478   3.926  24.326  0.00  0.00    +0.005 A 
ATOM     29  C   UNL     1      -5.492   3.932  25.284  0.00  0.00    -0.050 A 
ATOM     30  C   UNL     1      -6.197   5.204  25.615  0.00  0.00    +0.044 C 
ENDBRANCH   8  24
BRANCH  20  12
ATOM     12  C   UNL     1       2.323  -0.793  24.317  0.00  0.00    +0.103 C 
BRANCH  12   9
ATOM      9  C   UNL     1       3.474  -0.514  23.339  0.00  0.00    -0.011 C 
ATOM     10  C   UNL     1       2.949  -0.490  21.884  0.00  0.00    +0.008 C 
ATOM     11  C   UNL     1       4.065   0.893  23.581  0.00  0.00    +0.008 C 
ATOM     13  C   UNL     1       3.470   0.808  21.280  0.00  0.00    +0.001 C 
ATOM     14  C   UNL     1       3.502   1.759  22.463  0.00  0.00    +0.001 C 
BRANCH   9  17
ATOM     17  C   UNL     1       4.554  -1.588  23.517  0.00  0.00    +0.127 C 
BRANCH  17  22
ATOM      4  O   UNL     1       6.679  -0.518  22.989  0.00  0.00    -0.251 OA
ATOM     22  C   UNL     1       5.892  -0.975  23.804  0.00  0.00    +0.305 C 
BRANCH  22   3
ATOM      3  O   UNL     1       6.120  -0.996  25.143  0.00  0.00    -0.481 OA
ATOM     32  H   UNL     1       7.075  -1.084  25.350  0.00  0.00    +0.295 HD
ENDBRANCH  22   3
ENDBRANCH  17  22
ENDBRANCH   9  17
ENDBRANCH  12   9
ENDBRANCH  20  12
TORSDOF 6
ENDMDL
MODEL 5
REMARK VINA RESULT:       7.0     16.009     17.891
REMARK  Name = 7156591
REMARK  7 active torsions:
REMARK  status: ('A' for Active; 'I' for Inactive)
REMARK    1  A    between atoms: O_3  and  C_22
REMARK    2  A    between atoms: N_8  and  C_24
REMARK    3  A    between atoms: C_9  and  C_12
REMARK    4  A    between atoms: C_9  and  C_17
REMARK    5  A    between atoms: C_12  and  C_20
REMARK    6  A    between atoms: C_17  and  C_22
REMARK    7  A    between atoms: C_29  and  C_30
REMARK                            x       y       z     vdW  Elec       q    Type
REMARK                         _______ _______ _______ _____ _____    ______ ____
ROOT
ATOM      1  O   UNL     1       0.945   0.494  22.920  0.00  0.00    -0.276 OA
ATOM      2  O   UNL     1      -1.439   1.379  24.693  0.00  0.00    -0.273 OA
ATOM      5  O   UNL     1      -5.564  -0.796  24.089  0.00  0.00    -0.252 OA
ATOM      6  N   UNL     1      -0.162  -0.981  24.316  0.00  0.00    -0.288 N 
ATOM      7  N   UNL     1      -3.631  -1.964  24.066  0.00  0.00    -0.293 N 
ATOM      8  N   UNL     1      -3.551   0.383  24.409  0.00  0.00    -0.193 N 
ATOM     15  C   UNL     1      -1.490  -0.815  23.723  0.00  0.00    +0.183 C 
ATOM     16  C   UNL     1      -2.205  -2.085  24.136  0.00  0.00    +0.105 C 
ATOM     18  C   UNL     1      -1.657  -2.354  25.537  0.00  0.00    +0.043 C 
ATOM     19  C   UNL     1      -0.187  -1.980  25.386  0.00  0.00    +0.110 C 
ATOM     20  C   UNL     1       0.965  -0.344  23.823  0.00  0.00    +0.217 C 
ATOM     21  C   UNL     1      -2.135   0.429  24.330  0.00  0.00    +0.250 C 
ATOM     23  C   UNL     1      -4.334  -0.784  24.201  0.00  0.00    +0.313 C 
ATOM     31  H   UNL     1      -4.169  -2.813  23.923  0.00  0.00    +0.151 HD
ENDROOT
BRANCH   8  24
ATOM     24  C   UNL     1      -4.245   1.610  24.746  0.00  0.00    +0.045 A 
ATOM     25  C   UNL     1      -5.275   1.581  25.676  0.00  0.00    +0.024 A 
ATOM     26  C   UNL     1      -3.869   2.798  24.133  0.00  0.00    +0.024 A 
ATOM     27  C   UNL     1      -5.943   2.762  26.001  0.00  0.00    +0.005 A 
ATOM     28  C   UNL     1      -4.537   3.980  24.458  0.00  0.00    +0.005 A 
ATOM     29  C   UNL     1      -5.573   3.961  25.391  0.00  0.00    -0.050 A 
ATOM     30  C   UNL     1      -6.287   5.225  25.737  0.00  0.00    +0.044 C 
ENDBRANCH   8  24
BRANCH  20  12
ATOM     12  C   UNL     1       2.268  -0.732  24.476  0.00  0.00    +0.103 C 
BRANCH  12   9
ATOM      9  C   UNL     1       3.392  -0.749  23.430  0.00  0.00    -0.011 C 
ATOM     10  C   UNL     1       3.951   0.677  23.218  0.00  0.00    +0.008 C 
ATOM     11  C   UNL     1       4.591  -1.584  23.933  0.00  0.00    +0.008 C 
ATOM     13  C   UNL     1       5.463   0.553  23.362  0.00  0.00    +0.001 C 
ATOM     14  C   UNL     1       5.630  -0.564  24.377  0.00  0.00    +0.001 C 
BRANCH   9  17
ATOM     17  C   UNL     1       2.848  -1.327  22.119  0.00  0.00    +0.127 C 
BRANCH  17  22
ATOM      4  O   UNL     1       3.408   0.635  20.786  0.00  0.00    -0.251 OA
ATOM     22  C   UNL     1       2.627  -0.250  21.097  0.00  0.00    +0.305 C 
BRANCH  22   3
ATOM      3  O   UNL     1       1.395  -0.399  20.545  0.00  0.00    -0.481 OA
ATOM     32  H   UNL     1       1.255   0.216  19.793  0.00  0.00    +0.295 HD
ENDBRANCH  22   3
ENDBRANCH  17  22
ENDBRANCH   9  17
ENDBRANCH  12   9
ENDBRANCH  20  12
TORSDOF 6
ENDMDL
MODEL 6
REMARK VINA RESULT:       7.7     16.592     19.182
REMARK  Name = 7156591
REMARK  7 active torsions:
REMARK  status: ('A' for Active; 'I' for Inactive)
REMARK    1  A    between atoms: O_3  and  C_22
REMARK    2  A    between atoms: N_8  and  C_24
REMARK    3  A    between atoms: C_9  and  C_12
REMARK    4  A    between atoms: C_9  and  C_17
REMARK    5  A    between atoms: C_12  and  C_20
REMARK    6  A    between atoms: C_17  and  C_22
REMARK    7  A    between atoms: C_29  and  C_30
REMARK                            x       y       z     vdW  Elec       q    Type
REMARK                         _______ _______ _______ _____ _____    ______ ____
ROOT
ATOM      1  O   UNL     1      -1.527   1.367  26.552  0.00  0.00    -0.276 OA
ATOM      2  O   UNL     1       1.035   1.571  24.818  0.00  0.00    -0.273 OA
ATOM      5  O   UNL     1       1.297  -1.092  20.950  0.00  0.00    -0.252 OA
ATOM      6  N   UNL     1      -1.597   1.991  24.325  0.00  0.00    -0.288 N 
ATOM      7  N   UNL     1      -0.630  -0.051  21.504  0.00  0.00    -0.293 N 
ATOM      8  N   UNL     1       1.269   0.227  22.901  0.00  0.00    -0.193 N 
ATOM     15  C   UNL     1      -0.982   0.776  23.787  0.00  0.00    +0.183 C 
ATOM     16  C   UNL     1      -1.445   0.773  22.346  0.00  0.00    +0.105 C 
ATOM     18  C   UNL     1      -1.447   2.256  21.977  0.00  0.00    +0.043 C 
ATOM     19  C   UNL     1      -1.981   2.905  23.248  0.00  0.00    +0.110 C 
ATOM     20  C   UNL     1      -1.868   2.161  25.673  0.00  0.00    +0.217 C 
ATOM     21  C   UNL     1       0.534   0.915  23.902  0.00  0.00    +0.250 C 
ATOM     23  C   UNL     1       0.702  -0.340  21.729  0.00  0.00    +0.313 C 
ATOM     31  H   UNL     1      -1.057  -0.439  20.669  0.00  0.00    +0.151 HD
ENDROOT
BRANCH   8  24
ATOM     24  C   UNL     1       2.702   0.111  23.081  0.00  0.00    +0.045 A 
ATOM     25  C   UNL     1       3.523   1.175  22.735  0.00  0.00    +0.024 A 
ATOM     26  C   UNL     1       3.234  -1.063  23.597  0.00  0.00    +0.024 A 
ATOM     27  C   UNL     1       4.903   1.065  22.908  0.00  0.00    +0.005 A 
ATOM     28  C   UNL     1       4.615  -1.174  23.770  0.00  0.00    +0.005 A 
ATOM     29  C   UNL     1       5.448  -0.110  23.426  0.00  0.00    -0.050 A 
ATOM     30  C   UNL     1       6.924  -0.230  23.611  0.00  0.00    +0.044 C 
ENDBRANCH   8  24
BRANCH  20  12
ATOM     12  C   UNL     1      -2.621   3.418  26.030  0.00  0.00    +0.103 C 
BRANCH  12   9
ATOM      9  C   UNL     1      -4.077   3.309  25.555  0.00  0.00    -0.011 C 
ATOM     10  C   UNL     1      -4.982   4.258  26.375  0.00  0.00    +0.008 C 
ATOM     11  C   UNL     1      -4.209   3.785  24.091  0.00  0.00    +0.008 C 
ATOM     13  C   UNL     1      -5.773   5.060  25.349  0.00  0.00    +0.001 C 
ATOM     14  C   UNL     1      -4.814   5.179  24.179  0.00  0.00    +0.001 C 
BRANCH   9  17
ATOM     17  C   UNL     1      -4.540   1.854  25.691  0.00  0.00    +0.127 C 
BRANCH  17  22
ATOM      4  O   UNL     1      -6.687   1.585  24.569  0.00  0.00    -0.251 OA
ATOM     22  C   UNL     1      -6.033   1.744  25.589  0.00  0.00    +0.305 C 
BRANCH  22   3
ATOM      3  O   UNL     1      -6.578   1.849  26.828  0.00  0.00    -0.481 OA
ATOM     32  H   UNL     1      -6.062   1.351  27.498  0.00  0.00    +0.295 HD
ENDBRANCH  22   3
ENDBRANCH  17  22
ENDBRANCH   9  17
ENDBRANCH  12   9
ENDBRANCH  20  12
TORSDOF 6
ENDMDL
MODEL 7
REMARK VINA RESULT:       7.7     16.515     19.011
REMARK  Name = 7156591
REMARK  7 active torsions:
REMARK  status: ('A' for Active; 'I' for Inactive)
REMARK    1  A    between atoms: O_3  and  C_22
REMARK    2  A    between atoms: N_8  and  C_24
REMARK    3  A    between atoms: C_9  and  C_12
REMARK    4  A    between atoms: C_9  and  C_17
REMARK    5  A    between atoms: C_12  and  C_20
REMARK    6  A    between atoms: C_17  and  C_22
REMARK    7  A    between atoms: C_29  and  C_30
REMARK                            x       y       z     vdW  Elec       q    Type
REMARK                         _______ _______ _______ _____ _____    ______ ____
ROOT
ATOM      1  O   UNL     1      -2.132   2.651  25.695  0.00  0.00    -0.276 OA
ATOM      2  O   UNL     1      -0.076   1.149  23.926  0.00  0.00    -0.273 OA
ATOM      5  O   UNL     1       1.171  -3.201  25.204  0.00  0.00    -0.252 OA
ATOM      6  N   UNL     1      -2.621   0.623  24.694  0.00  0.00    -0.288 N 
ATOM      7  N   UNL     1      -0.981  -2.531  25.347  0.00  0.00    -0.293 N 
ATOM      8  N   UNL     1       0.645  -1.007  24.532  0.00  0.00    -0.193 N 
ATOM     15  C   UNL     1      -1.541  -0.142  25.321  0.00  0.00    +0.183 C 
ATOM     16  C   UNL     1      -2.036  -1.570  25.216  0.00  0.00    +0.105 C 
ATOM     18  C   UNL     1      -2.755  -1.592  23.869  0.00  0.00    +0.043 C 
ATOM     19  C   UNL     1      -3.453  -0.237  23.852  0.00  0.00    +0.110 C 
ATOM     20  C   UNL     1      -2.857   1.958  24.980  0.00  0.00    +0.217 C 
ATOM     21  C   UNL     1      -0.264   0.083  24.515  0.00  0.00    +0.250 C 
ATOM     23  C   UNL     1       0.341  -2.306  25.018  0.00  0.00    +0.313 C 
ATOM     31  H   UNL     1      -1.226  -3.454  25.690  0.00  0.00    +0.151 HD
ENDROOT
BRANCH   8  24
ATOM     24  C   UNL     1       1.973  -0.781  23.997  0.00  0.00    +0.045 A 
ATOM     25  C   UNL     1       2.209   0.328  23.197  0.00  0.00    +0.024 A 
ATOM     26  C   UNL     1       2.991  -1.677  24.293  0.00  0.00    +0.024 A 
ATOM     27  C   UNL     1       3.488   0.546  22.682  0.00  0.00    +0.005 A 
ATOM     28  C   UNL     1       4.270  -1.460  23.778  0.00  0.00    +0.005 A 
ATOM     29  C   UNL     1       4.518  -0.348  22.974  0.00  0.00    -0.050 A 
ATOM     30  C   UNL     1       5.885  -0.116  22.424  0.00  0.00    +0.044 C 
ENDBRANCH   8  24
BRANCH  20  12
ATOM     12  C   UNL     1      -4.089   2.550  24.342  0.00  0.00    +0.103 C 
BRANCH  12   9
ATOM      9  C   UNL     1      -4.369   3.939  24.934  0.00  0.00    -0.011 C 
ATOM     10  C   UNL     1      -3.411   4.224  26.113  0.00  0.00    +0.008 C 
ATOM     11  C   UNL     1      -4.075   5.044  23.894  0.00  0.00    +0.008 C 
ATOM     13  C   UNL     1      -2.797   5.589  25.824  0.00  0.00    +0.001 C 
ATOM     14  C   UNL     1      -2.734   5.633  24.309  0.00  0.00    +0.001 C 
BRANCH   9  17
ATOM     17  C   UNL     1      -5.833   4.004  25.386  0.00  0.00    +0.127 C 
BRANCH  17  22
ATOM      4  O   UNL     1      -6.792   1.833  24.832  0.00  0.00    -0.251 OA
ATOM     22  C   UNL     1      -6.382   2.635  25.658  0.00  0.00    +0.305 C 
BRANCH  22   3
ATOM      3  O   UNL     1      -6.362   2.398  26.995  0.00  0.00    -0.481 OA
ATOM     32  H   UNL     1      -6.468   1.444  27.199  0.00  0.00    +0.295 HD
ENDBRANCH  22   3
ENDBRANCH  17  22
ENDBRANCH   9  17
ENDBRANCH  12   9
ENDBRANCH  20  12
TORSDOF 6
ENDMDL
MODEL 8
REMARK VINA RESULT:       8.8     16.232     18.751
REMARK  Name = 7156591
REMARK  7 active torsions:
REMARK  status: ('A' for Active; 'I' for Inactive)
REMARK    1  A    between atoms: O_3  and  C_22
REMARK    2  A    between atoms: N_8  and  C_24
REMARK    3  A    between atoms: C_9  and  C_12
REMARK    4  A    between atoms: C_9  and  C_17
REMARK    5  A    between atoms: C_12  and  C_20
REMARK    6  A    between atoms: C_17  and  C_22
REMARK    7  A    between atoms: C_29  and  C_30
REMARK                            x       y       z     vdW  Elec       q    Type
REMARK                         _______ _______ _______ _____ _____    ______ ____
ROOT
ATOM      1  O   UNL     1      -1.717   0.580  26.481  0.00  0.00    -0.276 OA
ATOM      2  O   UNL     1       0.919   1.107  24.936  0.00  0.00    -0.273 OA
ATOM      5  O   UNL     1       1.430  -0.876  20.703  0.00  0.00    -0.252 OA
ATOM      6  N   UNL     1      -1.695   1.561  24.385  0.00  0.00    -0.288 N 
ATOM      7  N   UNL     1      -0.545   0.028  21.321  0.00  0.00    -0.293 N 
ATOM      8  N   UNL     1       1.277   0.101  22.840  0.00  0.00    -0.193 N 
ATOM     15  C   UNL     1      -1.026   0.462  23.688  0.00  0.00    +0.183 C 
ATOM     16  C   UNL     1      -1.420   0.690  22.243  0.00  0.00    +0.105 C 
ATOM     18  C   UNL     1      -1.439   2.212  22.123  0.00  0.00    +0.043 C 
ATOM     19  C   UNL     1      -2.048   2.634  23.455  0.00  0.00    +0.110 C 
ATOM     20  C   UNL     1      -2.034   1.502  25.728  0.00  0.00    +0.217 C 
ATOM     21  C   UNL     1       0.479   0.603  23.901  0.00  0.00    +0.250 C 
ATOM     23  C   UNL     1       0.780  -0.273  21.563  0.00  0.00    +0.313 C 
ATOM     31  H   UNL     1      -0.922  -0.223  20.413  0.00  0.00    +0.151 HD
ENDROOT
BRANCH   8  24
ATOM     24  C   UNL     1       2.703  -0.020  23.071  0.00  0.00    +0.045 A 
ATOM     25  C   UNL     1       3.537   1.048  22.774  0.00  0.00    +0.024 A 
ATOM     26  C   UNL     1       3.213  -1.203  23.587  0.00  0.00    +0.024 A 
ATOM     27  C   UNL     1       4.909   0.933  22.997  0.00  0.00    +0.005 A 
ATOM     28  C   UNL     1       4.586  -1.320  23.810  0.00  0.00    +0.005 A 
ATOM     29  C   UNL     1       5.434  -0.252  23.515  0.00  0.00    -0.050 A 
ATOM     30  C   UNL     1       6.901  -0.378  23.754  0.00  0.00    +0.044 C 
ENDBRANCH   8  24
BRANCH  20  12
ATOM     12  C   UNL     1      -2.833   2.671  26.247  0.00  0.00    +0.103 C 
BRANCH  12   9
ATOM      9  C   UNL     1      -4.045   2.922  25.339  0.00  0.00    -0.011 C 
ATOM     10  C   UNL     1      -4.306   1.692  24.439  0.00  0.00    +0.008 C 
ATOM     11  C   UNL     1      -5.330   3.091  26.179  0.00  0.00    +0.008 C 
ATOM     13  C   UNL     1      -5.784   1.362  24.611  0.00  0.00    +0.001 C 
ATOM     14  C   UNL     1      -6.070   1.767  26.045  0.00  0.00    +0.001 C 
BRANCH   9  17
ATOM     17  C   UNL     1      -3.787   4.176  24.495  0.00  0.00    +0.127 C 
BRANCH  17  22
ATOM      4  O   UNL     1      -1.700   5.425  24.664  0.00  0.00    -0.251 OA
ATOM     22  C   UNL     1      -2.767   5.068  25.140  0.00  0.00    +0.305 C 
BRANCH  22   3
ATOM      3  O   UNL     1      -3.207   5.440  26.370  0.00  0.00    -0.481 OA
ATOM     32  H   UNL     1      -3.100   4.721  27.029  0.00  0.00    +0.295 HD
ENDBRANCH  22   3
ENDBRANCH  17  22
ENDBRANCH   9  17
ENDBRANCH  12   9
ENDBRANCH  20  12
TORSDOF 6
ENDMDL
MODEL 9
REMARK VINA RESULT:       8.8     16.373     18.918
REMARK  Name = 7156591
REMARK  7 active torsions:
REMARK  status: ('A' for Active; 'I' for Inactive)
REMARK    1  A    between atoms: O_3  and  C_22
REMARK    2  A    between atoms: N_8  and  C_24
REMARK    3  A    between atoms: C_9  and  C_12
REMARK    4  A    between atoms: C_9  and  C_17
REMARK    5  A    between atoms: C_12  and  C_20
REMARK    6  A    between atoms: C_17  and  C_22
REMARK    7  A    between atoms: C_29  and  C_30
REMARK                            x       y       z     vdW  Elec       q    Type
REMARK                         _______ _______ _______ _____ _____    ______ ____
ROOT
ATOM      1  O   UNL     1      -1.792   3.080  25.269  0.00  0.00    -0.276 OA
ATOM      2  O   UNL     1       0.240   1.384  23.654  0.00  0.00    -0.273 OA
ATOM      5  O   UNL     1       1.268  -2.924  25.235  0.00  0.00    -0.252 OA
ATOM      6  N   UNL     1      -2.343   1.014  24.384  0.00  0.00    -0.288 N 
ATOM      7  N   UNL     1      -0.857  -2.157  25.278  0.00  0.00    -0.293 N 
ATOM      8  N   UNL     1       0.853  -0.756  24.413  0.00  0.00    -0.193 N 
ATOM     15  C   UNL     1      -1.313   0.246  25.086  0.00  0.00    +0.183 C 
ATOM     16  C   UNL     1      -1.865  -1.163  25.059  0.00  0.00    +0.105 C 
ATOM     18  C   UNL     1      -2.552  -1.242  23.696  0.00  0.00    +0.043 C 
ATOM     19  C   UNL     1      -3.191   0.137  23.576  0.00  0.00    +0.110 C 
ATOM     20  C   UNL     1      -2.529   2.373  24.579  0.00  0.00    +0.217 C 
ATOM     21  C   UNL     1      -0.008   0.366  24.303  0.00  0.00    +0.250 C 
ATOM     23  C   UNL     1       0.481  -2.008  24.971  0.00  0.00    +0.313 C 
ATOM     31  H   UNL     1      -1.149  -3.046  25.672  0.00  0.00    +0.151 HD
ENDROOT
BRANCH   8  24
ATOM     24  C   UNL     1       2.202  -0.621  23.901  0.00  0.00    +0.045 A 
ATOM     25  C   UNL     1       2.529   0.477  23.117  0.00  0.00    +0.024 A 
ATOM     26  C   UNL     1       3.149  -1.590  24.202  0.00  0.00    +0.024 A 
ATOM     27  C   UNL     1       3.828   0.609  22.624  0.00  0.00    +0.005 A 
ATOM     28  C   UNL     1       4.448  -1.460  23.709  0.00  0.00    +0.005 A 
ATOM     29  C   UNL     1       4.787  -0.360  22.921  0.00  0.00    -0.050 A 
ATOM     30  C   UNL     1       6.176  -0.220  22.394  0.00  0.00    +0.044 C 
ENDBRANCH   8  24
BRANCH  20  12
ATOM     12  C   UNL     1      -3.718   2.974  23.872  0.00  0.00    +0.103 C 
BRANCH  12   9
ATOM      9  C   UNL     1      -4.896   3.104  24.848  0.00  0.00    -0.011 C 
ATOM     10  C   UNL     1      -6.228   2.788  24.127  0.00  0.00    +0.008 C 
ATOM     11  C   UNL     1      -4.787   2.055  25.977  0.00  0.00    +0.008 C 
ATOM     13  C   UNL     1      -6.935   1.760  25.002  0.00  0.00    +0.001 C 
ATOM     14  C   UNL     1      -5.792   0.971  25.613  0.00  0.00    +0.001 C 
BRANCH   9  17
ATOM     17  C   UNL     1      -4.909   4.522  25.431  0.00  0.00    +0.127 C 
BRANCH  17  22
ATOM      4  O   UNL     1      -3.745   4.255  27.556  0.00  0.00    -0.251 OA
ATOM     22  C   UNL     1      -3.802   4.714  26.425  0.00  0.00    +0.305 C 
BRANCH  22   3
ATOM      3  O   UNL     1      -2.835   5.495  25.877  0.00  0.00    -0.481 OA
ATOM     32  H   UNL     1      -1.941   5.111  26.001  0.00  0.00    +0.295 HD
ENDBRANCH  22   3
ENDBRANCH  17  22
ENDBRANCH   9  17
ENDBRANCH  12   9
ENDBRANCH  20  12
TORSDOF 6
ENDMDL
MODEL 10
REMARK VINA RESULT:       9.2     15.587     17.326
REMARK  Name = 7156591
REMARK  7 active torsions:
REMARK  status: ('A' for Active; 'I' for Inactive)
REMARK    1  A    between atoms: O_3  and  C_22
REMARK    2  A    between atoms: N_8  and  C_24
REMARK    3  A    between atoms: C_9  and  C_12
REMARK    4  A    between atoms: C_9  and  C_17
REMARK    5  A    between atoms: C_12  and  C_20
REMARK    6  A    between atoms: C_17  and  C_22
REMARK    7  A    between atoms: C_29  and  C_30
REMARK                            x       y       z     vdW  Elec       q    Type
REMARK                         _______ _______ _______ _____ _____    ______ ____
ROOT
ATOM      1  O   UNL     1       1.071  -0.049  21.992  0.00  0.00    -0.276 OA
ATOM      2  O   UNL     1      -0.954   1.107  24.035  0.00  0.00    -0.273 OA
ATOM      5  O   UNL     1      -5.074  -1.103  24.547  0.00  0.00    -0.252 OA
ATOM      6  N   UNL     1       0.277  -1.293  23.773  0.00  0.00    -0.288 N 
ATOM      7  N   UNL     1      -3.156  -2.276  24.330  0.00  0.00    -0.293 N 
ATOM      8  N   UNL     1      -3.061   0.095  24.305  0.00  0.00    -0.193 N 
ATOM     15  C   UNL     1      -1.142  -1.207  23.424  0.00  0.00    +0.183 C 
ATOM     16  C   UNL     1      -1.740  -2.396  24.147  0.00  0.00    +0.105 C 
ATOM     18  C   UNL     1      -0.932  -2.459  25.442  0.00  0.00    +0.043 C 
ATOM     19  C   UNL     1       0.475  -2.123  24.963  0.00  0.00    +0.110 C 
ATOM     20  C   UNL     1       1.278  -0.744  22.988  0.00  0.00    +0.217 C 
ATOM     21  C   UNL     1      -1.686   0.118  23.953  0.00  0.00    +0.250 C 
ATOM     23  C   UNL     1      -3.845  -1.083  24.422  0.00  0.00    +0.313 C 
ATOM     31  H   UNL     1      -3.693  -3.133  24.417  0.00  0.00    +0.151 HD
ENDROOT
BRANCH   8  24
ATOM     24  C   UNL     1      -3.704   1.363  24.583  0.00  0.00    +0.045 A 
ATOM     25  C   UNL     1      -3.202   2.525  24.013  0.00  0.00    +0.024 A 
ATOM     26  C   UNL     1      -4.814   1.399  25.416  0.00  0.00    +0.024 A 
ATOM     27  C   UNL     1      -3.821   3.746  24.279  0.00  0.00    +0.005 A 
ATOM     28  C   UNL     1      -5.434   2.621  25.684  0.00  0.00    +0.005 A 
ATOM     29  C   UNL     1      -4.938   3.794  25.115  0.00  0.00    -0.050 A 
ATOM     30  C   UNL     1      -5.601   5.099  25.401  0.00  0.00    +0.044 C 
ENDBRANCH   8  24
BRANCH  20  12
ATOM     12  C   UNL     1       2.688  -1.041  23.432  0.00  0.00    +0.103 C 
BRANCH  12   9
ATOM      9  C   UNL     1       3.481   0.267  23.568  0.00  0.00    -0.011 C 
ATOM     10  C   UNL     1       3.941   0.764  22.177  0.00  0.00    +0.008 C 
ATOM     11  C   UNL     1       2.582   1.394  24.125  0.00  0.00    +0.008 C 
ATOM     13  C   UNL     1       3.506   2.222  22.097  0.00  0.00    +0.001 C 
ATOM     14  C   UNL     1       2.232   2.256  22.921  0.00  0.00    +0.001 C 
BRANCH   9  17
ATOM     17  C   UNL     1       4.681   0.031  24.492  0.00  0.00    +0.127 C 
BRANCH  17  22
ATOM      4  O   UNL     1       6.699  -0.267  23.157  0.00  0.00    -0.251 OA
ATOM     22  C   UNL     1       5.767  -0.734  23.794  0.00  0.00    +0.305 C 
BRANCH  22   3
ATOM      3  O   UNL     1       5.567  -2.065  23.973  0.00  0.00    -0.481 OA
ATOM     32  H   UNL     1       5.978  -2.596  23.258  0.00  0.00    +0.295 HD
ENDBRANCH  22   3
ENDBRANCH  17  22
ENDBRANCH   9  17
ENDBRANCH  12   9
ENDBRANCH  20  12
TORSDOF 6
ENDMDL
