MODEL 1
REMARK VINA RESULT:      -5.2      0.000      0.000
REMARK  Name = 75536918
REMARK  6 active torsions:
REMARK  status: ('A' for Active; 'I' for Inactive)
REMARK    1  A    between atoms: O_2  and  C_7
REMARK    2  A    between atoms: O_2  and  C_13
REMARK    3  A    between atoms: O_3  and  C_19
REMARK    4  A    between atoms: O_3  and  C_23
REMARK    5  A    between atoms: N_4  and  C_10
REMARK    6  A    between atoms: C_10  and  C_12
REMARK                            x       y       z     vdW  Elec       q    Type
REMARK                         _______ _______ _______ _____ _____    ______ ____
ROOT
ATOM      1  O   UNL     1      -6.285   2.752  24.892  0.00  0.00    -0.375 OA
ATOM      4  N   UNL     1      -3.436   3.122  24.722  0.00  0.00    -0.292 NA
ATOM      6  C   UNL     1      -3.474   1.936  25.577  0.00  0.00    +0.131 C 
ATOM      7  C   UNL     1      -4.589   0.978  25.137  0.00  0.00    +0.213 C 
ATOM      8  C   UNL     1      -4.336   4.202  25.139  0.00  0.00    +0.113 C 
ATOM      9  C   UNL     1      -6.013   1.456  25.412  0.00  0.00    +0.205 C 
ATOM     11  C   UNL     1      -5.702   3.783  25.679  0.00  0.00    +0.175 C 
ENDROOT
BRANCH   7   2
ATOM      2  O   UNL     1      -4.392  -0.265  25.812  0.00  0.00    -0.485 OA
BRANCH   2  13
ATOM     13  C   UNL     1      -3.306  -1.003  25.429  0.00  0.00    +0.121 A 
ATOM     17  C   UNL     1      -3.459  -2.048  24.518  0.00  0.00    +0.045 A 
ATOM     18  C   UNL     1      -2.045  -0.712  25.949  0.00  0.00    +0.045 A 
ATOM     20  C   UNL     1      -2.352  -2.802  24.127  0.00  0.00    +0.004 A 
ATOM     21  C   UNL     1      -0.938  -1.464  25.560  0.00  0.00    +0.004 A 
ATOM     22  C   UNL     1      -1.091  -2.509  24.648  0.00  0.00    +0.000 A 
ENDBRANCH   2  13
ENDBRANCH   7   2
BRANCH   4  10
ATOM     10  C   UNL     1      -2.073   3.634  24.576  0.00  0.00    +0.121 C 
BRANCH  10  12
ATOM      5  N   UNL     1       1.074   1.556  24.254  0.00  0.00    -0.221 NA
ATOM     12  C   UNL     1      -1.119   2.566  24.114  0.00  0.00    -0.015 A 
ATOM     14  C   UNL     1      -1.499   1.626  23.163  0.00  0.00    +0.011 A 
ATOM     15  C   UNL     1       0.168   2.488  24.625  0.00  0.00    +0.119 A 
ATOM     16  C   UNL     1      -0.596   0.651  22.757  0.00  0.00    +0.067 A 
ATOM     19  C   UNL     1       0.667   0.658  23.328  0.00  0.00    +0.214 A 
BRANCH  19   3
ATOM      3  O   UNL     1       1.576  -0.293  22.943  0.00  0.00    -0.480 OA
ATOM     23  C   UNL     1       2.827   0.178  22.456  0.00  0.00    +0.279 C 
ENDBRANCH  19   3
ENDBRANCH  10  12
ENDBRANCH   4  10
TORSDOF 5
ENDMDL
MODEL 2
REMARK VINA RESULT:      -5.0      2.092      4.947
REMARK  Name = 75536918
REMARK  6 active torsions:
REMARK  status: ('A' for Active; 'I' for Inactive)
REMARK    1  A    between atoms: O_2  and  C_7
REMARK    2  A    between atoms: O_2  and  C_13
REMARK    3  A    between atoms: O_3  and  C_19
REMARK    4  A    between atoms: O_3  and  C_23
REMARK    5  A    between atoms: N_4  and  C_10
REMARK    6  A    between atoms: C_10  and  C_12
REMARK                            x       y       z     vdW  Elec       q    Type
REMARK                         _______ _______ _______ _____ _____    ______ ____
ROOT
ATOM      1  O   UNL     1      -3.631  -3.175  24.421  0.00  0.00    -0.375 OA
ATOM      4  N   UNL     1      -1.791  -1.217  25.451  0.00  0.00    -0.292 NA
ATOM      6  C   UNL     1      -2.531  -0.379  24.507  0.00  0.00    +0.131 C 
ATOM      7  C   UNL     1      -4.021  -0.741  24.505  0.00  0.00    +0.213 C 
ATOM      8  C   UNL     1      -1.335  -2.497  24.900  0.00  0.00    +0.113 C 
ATOM      9  C   UNL     1      -4.370  -2.088  23.876  0.00  0.00    +0.205 C 
ATOM     11  C   UNL     1      -2.291  -3.209  23.946  0.00  0.00    +0.175 C 
ENDROOT
BRANCH   7   2
ATOM      2  O   UNL     1      -4.721   0.283  23.795  0.00  0.00    -0.485 OA
BRANCH   2  13
ATOM     13  C   UNL     1      -4.746   1.521  24.376  0.00  0.00    +0.121 A 
ATOM     17  C   UNL     1      -5.483   1.730  25.542  0.00  0.00    +0.045 A 
ATOM     18  C   UNL     1      -4.036   2.575  23.802  0.00  0.00    +0.045 A 
ATOM     20  C   UNL     1      -5.510   2.993  26.134  0.00  0.00    +0.004 A 
ATOM     21  C   UNL     1      -4.062   3.838  24.393  0.00  0.00    +0.004 A 
ATOM     22  C   UNL     1      -4.799   4.047  25.559  0.00  0.00    +0.000 A 
ENDBRANCH   2  13
ENDBRANCH   7   2
BRANCH   4  10
ATOM     10  C   UNL     1      -0.662  -0.494  26.038  0.00  0.00    +0.121 C 
BRANCH  10  12
ATOM      5  N   UNL     1      -0.065   2.539  23.854  0.00  0.00    -0.221 NA
ATOM     12  C   UNL     1      -0.615   0.939  25.582  0.00  0.00    -0.015 A 
ATOM     14  C   UNL     1      -1.052   1.970  26.407  0.00  0.00    +0.011 A 
ATOM     15  C   UNL     1      -0.135   1.274  24.325  0.00  0.00    +0.119 A 
ATOM     16  C   UNL     1      -0.997   3.284  25.957  0.00  0.00    +0.067 A 
ATOM     19  C   UNL     1      -0.499   3.514  24.684  0.00  0.00    +0.214 A 
BRANCH  19   3
ATOM      3  O   UNL     1      -0.434   4.801  24.219  0.00  0.00    -0.480 OA
ATOM     23  C   UNL     1      -1.231   5.767  24.894  0.00  0.00    +0.279 C 
ENDBRANCH  19   3
ENDBRANCH  10  12
ENDBRANCH   4  10
TORSDOF 5
ENDMDL
MODEL 3
REMARK VINA RESULT:      -4.3      2.212      6.232
REMARK  Name = 75536918
REMARK  6 active torsions:
REMARK  status: ('A' for Active; 'I' for Inactive)
REMARK    1  A    between atoms: O_2  and  C_7
REMARK    2  A    between atoms: O_2  and  C_13
REMARK    3  A    between atoms: O_3  and  C_19
REMARK    4  A    between atoms: O_3  and  C_23
REMARK    5  A    between atoms: N_4  and  C_10
REMARK    6  A    between atoms: C_10  and  C_12
REMARK                            x       y       z     vdW  Elec       q    Type
REMARK                         _______ _______ _______ _____ _____    ______ ____
ROOT
ATOM      1  O   UNL     1      -0.805  -2.237  23.898  0.00  0.00    -0.375 OA
ATOM      4  N   UNL     1      -3.318  -0.884  24.265  0.00  0.00    -0.292 NA
ATOM      6  C   UNL     1      -2.513  -0.170  25.256  0.00  0.00    +0.131 C 
ATOM      7  C   UNL     1      -1.088   0.064  24.739  0.00  0.00    +0.213 C 
ATOM      8  C   UNL     1      -3.206  -2.345  24.329  0.00  0.00    +0.113 C 
ATOM      9  C   UNL     1      -0.210  -1.182  24.643  0.00  0.00    +0.205 C 
ATOM     11  C   UNL     1      -1.820  -2.911  24.631  0.00  0.00    +0.175 C 
ENDROOT
BRANCH   7   2
ATOM      2  O   UNL     1      -0.451   0.999  25.612  0.00  0.00    -0.485 OA
BRANCH   2  13
ATOM     13  C   UNL     1      -0.680   2.324  25.360  0.00  0.00    +0.121 A 
ATOM     17  C   UNL     1      -1.493   3.066  26.216  0.00  0.00    +0.045 A 
ATOM     18  C   UNL     1      -0.099   2.932  24.247  0.00  0.00    +0.045 A 
ATOM     20  C   UNL     1      -1.727   4.418  25.959  0.00  0.00    +0.004 A 
ATOM     21  C   UNL     1      -0.332   4.283  23.990  0.00  0.00    +0.004 A 
ATOM     22  C   UNL     1      -1.146   5.026  24.846  0.00  0.00    +0.000 A 
ENDBRANCH   2  13
ENDBRANCH   7   2
BRANCH   4  10
ATOM     10  C   UNL     1      -4.725  -0.486  24.330  0.00  0.00    +0.121 C 
BRANCH  10  12
ATOM      5  N   UNL     1      -5.834   2.627  26.177  0.00  0.00    -0.221 NA
ATOM     12  C   UNL     1      -4.881   0.964  24.702  0.00  0.00    -0.015 A 
ATOM     14  C   UNL     1      -4.258   1.965  23.965  0.00  0.00    +0.011 A 
ATOM     15  C   UNL     1      -5.652   1.344  25.790  0.00  0.00    +0.119 A 
ATOM     16  C   UNL     1      -4.420   3.295  24.333  0.00  0.00    +0.067 A 
ATOM     19  C   UNL     1      -5.211   3.571  25.437  0.00  0.00    +0.214 A 
BRANCH  19   3
ATOM      3  O   UNL     1      -5.388   4.876  25.819  0.00  0.00    -0.480 OA
ATOM     23  C   UNL     1      -6.565   5.525  25.354  0.00  0.00    +0.279 C 
ENDBRANCH  19   3
ENDBRANCH  10  12
ENDBRANCH   4  10
TORSDOF 5
ENDMDL
MODEL 4
REMARK VINA RESULT:      -4.3      1.384      5.201
REMARK  Name = 75536918
REMARK  6 active torsions:
REMARK  status: ('A' for Active; 'I' for Inactive)
REMARK    1  A    between atoms: O_2  and  C_7
REMARK    2  A    between atoms: O_2  and  C_13
REMARK    3  A    between atoms: O_3  and  C_19
REMARK    4  A    between atoms: O_3  and  C_23
REMARK    5  A    between atoms: N_4  and  C_10
REMARK    6  A    between atoms: C_10  and  C_12
REMARK                            x       y       z     vdW  Elec       q    Type
REMARK                         _______ _______ _______ _____ _____    ______ ____
ROOT
ATOM      1  O   UNL     1       1.286  -0.987  24.015  0.00  0.00    -0.375 OA
ATOM      4  N   UNL     1       0.218   1.638  24.512  0.00  0.00    -0.292 NA
ATOM      6  C   UNL     1      -0.936   0.830  24.905  0.00  0.00    +0.131 C 
ATOM      7  C   UNL     1      -0.491  -0.443  25.636  0.00  0.00    +0.213 C 
ATOM      8  C   UNL     1       0.805   1.271  23.219  0.00  0.00    +0.113 C 
ATOM      9  C   UNL     1       0.191  -1.496  24.766  0.00  0.00    +0.205 C 
ATOM     11  C   UNL     1       0.863  -0.220  22.894  0.00  0.00    +0.175 C 
ENDROOT
BRANCH   7   2
ATOM      2  O   UNL     1      -1.645  -1.032  26.237  0.00  0.00    -0.485 OA
BRANCH   2  13
ATOM     13  C   UNL     1      -2.672  -1.360  25.395  0.00  0.00    +0.121 A 
ATOM     17  C   UNL     1      -3.630  -0.403  25.057  0.00  0.00    +0.045 A 
ATOM     18  C   UNL     1      -2.763  -2.651  24.875  0.00  0.00    +0.045 A 
ATOM     20  C   UNL     1      -4.678  -0.738  24.198  0.00  0.00    +0.004 A 
ATOM     21  C   UNL     1      -3.810  -2.986  24.018  0.00  0.00    +0.004 A 
ATOM     22  C   UNL     1      -4.768  -2.030  23.679  0.00  0.00    +0.000 A 
ENDBRANCH   2  13
ENDBRANCH   7   2
BRANCH   4  10
ATOM     10  C   UNL     1      -0.097   3.067  24.531  0.00  0.00    +0.121 C 
BRANCH  10  12
ATOM      5  N   UNL     1      -3.855   3.175  24.087  0.00  0.00    -0.221 NA
ATOM     12  C   UNL     1      -1.554   3.317  24.817  0.00  0.00    -0.015 A 
ATOM     14  C   UNL     1      -1.962   3.894  26.014  0.00  0.00    +0.011 A 
ATOM     15  C   UNL     1      -2.532   2.978  23.894  0.00  0.00    +0.119 A 
ATOM     16  C   UNL     1      -3.314   4.111  26.250  0.00  0.00    +0.067 A 
ATOM     19  C   UNL     1      -4.213   3.737  25.263  0.00  0.00    +0.214 A 
BRANCH  19   3
ATOM      3  O   UNL     1      -5.552   3.943  25.472  0.00  0.00    -0.480 OA
ATOM     23  C   UNL     1      -6.340   2.792  25.754  0.00  0.00    +0.279 C 
ENDBRANCH  19   3
ENDBRANCH  10  12
ENDBRANCH   4  10
TORSDOF 5
ENDMDL
MODEL 5
REMARK VINA RESULT:      -3.0      2.067      5.383
REMARK  Name = 75536918
REMARK  6 active torsions:
REMARK  status: ('A' for Active; 'I' for Inactive)
REMARK    1  A    between atoms: O_2  and  C_7
REMARK    2  A    between atoms: O_2  and  C_13
REMARK    3  A    between atoms: O_3  and  C_19
REMARK    4  A    between atoms: O_3  and  C_23
REMARK    5  A    between atoms: N_4  and  C_10
REMARK    6  A    between atoms: C_10  and  C_12
REMARK                            x       y       z     vdW  Elec       q    Type
REMARK                         _______ _______ _______ _____ _____    ______ ____
ROOT
ATOM      1  O   UNL     1      -2.361  -3.271  23.666  0.00  0.00    -0.375 OA
ATOM      4  N   UNL     1      -4.036  -0.964  24.059  0.00  0.00    -0.292 NA
ATOM      6  C   UNL     1      -3.020  -0.701  25.079  0.00  0.00    +0.131 C 
ATOM      7  C   UNL     1      -1.626  -1.102  24.580  0.00  0.00    +0.213 C 
ATOM      8  C   UNL     1      -4.576  -2.327  24.075  0.00  0.00    +0.113 C 
ATOM      9  C   UNL     1      -1.380  -2.603  24.450  0.00  0.00    +0.205 C 
ATOM     11  C   UNL     1      -3.585  -3.451  24.369  0.00  0.00    +0.175 C 
ENDROOT
BRANCH   7   2
ATOM      2  O   UNL     1      -0.663  -0.564  25.489  0.00  0.00    -0.485 OA
BRANCH   2  13
ATOM     13  C   UNL     1      -0.370   0.765  25.352  0.00  0.00    +0.121 A 
ATOM     17  C   UNL     1      -0.013   1.276  24.105  0.00  0.00    +0.045 A 
ATOM     18  C   UNL     1      -0.429   1.609  26.461  0.00  0.00    +0.045 A 
ATOM     20  C   UNL     1       0.286   2.632  23.966  0.00  0.00    +0.004 A 
ATOM     21  C   UNL     1      -0.129   2.964  26.323  0.00  0.00    +0.004 A 
ATOM     22  C   UNL     1       0.228   3.476  25.075  0.00  0.00    +0.000 A 
ENDBRANCH   2  13
ENDBRANCH   7   2
BRANCH   4  10
ATOM     10  C   UNL     1      -5.127   0.008  24.127  0.00  0.00    +0.121 C 
BRANCH  10  12
ATOM      5  N   UNL     1      -3.097   3.192  24.390  0.00  0.00    -0.221 NA
ATOM     12  C   UNL     1      -4.652   1.353  24.607  0.00  0.00    -0.015 A 
ATOM     14  C   UNL     1      -5.280   2.000  25.666  0.00  0.00    +0.011 A 
ATOM     15  C   UNL     1      -3.574   1.986  24.008  0.00  0.00    +0.119 A 
ATOM     16  C   UNL     1      -4.819   3.242  26.086  0.00  0.00    +0.067 A 
ATOM     19  C   UNL     1      -3.734   3.790  25.422  0.00  0.00    +0.214 A 
BRANCH  19   3
ATOM      3  O   UNL     1      -3.260   5.014  25.819  0.00  0.00    -0.480 OA
ATOM     23  C   UNL     1      -2.117   5.511  25.134  0.00  0.00    +0.279 C 
ENDBRANCH  19   3
ENDBRANCH  10  12
ENDBRANCH   4  10
TORSDOF 5
ENDMDL
MODEL 6
REMARK VINA RESULT:      -3.0      1.871      6.483
REMARK  Name = 75536918
REMARK  6 active torsions:
REMARK  status: ('A' for Active; 'I' for Inactive)
REMARK    1  A    between atoms: O_2  and  C_7
REMARK    2  A    between atoms: O_2  and  C_13
REMARK    3  A    between atoms: O_3  and  C_19
REMARK    4  A    between atoms: O_3  and  C_23
REMARK    5  A    between atoms: N_4  and  C_10
REMARK    6  A    between atoms: C_10  and  C_12
REMARK                            x       y       z     vdW  Elec       q    Type
REMARK                         _______ _______ _______ _____ _____    ______ ____
ROOT
ATOM      1  O   UNL     1       1.785   0.301  22.680  0.00  0.00    -0.375 OA
ATOM      4  N   UNL     1      -0.723  -0.456  23.871  0.00  0.00    -0.292 NA
ATOM      6  C   UNL     1      -0.277   0.530  24.855  0.00  0.00    +0.131 C 
ATOM      7  C   UNL     1       0.418   1.713  24.170  0.00  0.00    +0.213 C 
ATOM      8  C   UNL     1       0.291  -1.448  23.501  0.00  0.00    +0.113 C 
ATOM      9  C   UNL     1       1.789   1.412  23.568  0.00  0.00    +0.205 C 
ATOM     11  C   UNL     1       1.726  -0.942  23.370  0.00  0.00    +0.175 C 
ENDROOT
BRANCH   7   2
ATOM      2  O   UNL     1       0.568   2.755  25.136  0.00  0.00    -0.485 OA
BRANCH   2  13
ATOM     13  C   UNL     1      -0.515   3.566  25.333  0.00  0.00    +0.121 A 
ATOM     17  C   UNL     1      -1.582   3.128  26.118  0.00  0.00    +0.045 A 
ATOM     18  C   UNL     1      -0.553   4.832  24.749  0.00  0.00    +0.045 A 
ATOM     20  C   UNL     1      -2.687   3.956  26.319  0.00  0.00    +0.004 A 
ATOM     21  C   UNL     1      -1.658   5.660  24.949  0.00  0.00    +0.004 A 
ATOM     22  C   UNL     1      -2.725   5.222  25.734  0.00  0.00    +0.000 A 
ENDBRANCH   2  13
ENDBRANCH   7   2
BRANCH   4  10
ATOM     10  C   UNL     1      -1.947  -1.130  24.304  0.00  0.00    +0.121 C 
BRANCH  10  12
ATOM      5  N   UNL     1      -5.098   0.465  25.669  0.00  0.00    -0.221 NA
ATOM     12  C   UNL     1      -3.088  -0.163  24.480  0.00  0.00    -0.015 A 
ATOM     14  C   UNL     1      -3.210   0.958  23.667  0.00  0.00    +0.011 A 
ATOM     15  C   UNL     1      -4.050  -0.363  25.459  0.00  0.00    +0.119 A 
ATOM     16  C   UNL     1      -4.274   1.833  23.854  0.00  0.00    +0.067 A 
ATOM     19  C   UNL     1      -5.183   1.544  24.860  0.00  0.00    +0.214 A 
BRANCH  19   3
ATOM      3  O   UNL     1      -6.241   2.391  25.063  0.00  0.00    -0.480 OA
ATOM     23  C   UNL     1      -5.945   3.659  25.638  0.00  0.00    +0.279 C 
ENDBRANCH  19   3
ENDBRANCH  10  12
ENDBRANCH   4  10
TORSDOF 5
ENDMDL
MODEL 7
REMARK VINA RESULT:      -2.3     18.166     20.658
REMARK  Name = 75536918
REMARK  6 active torsions:
REMARK  status: ('A' for Active; 'I' for Inactive)
REMARK    1  A    between atoms: O_2  and  C_7
REMARK    2  A    between atoms: O_2  and  C_13
REMARK    3  A    between atoms: O_3  and  C_19
REMARK    4  A    between atoms: O_3  and  C_23
REMARK    5  A    between atoms: N_4  and  C_10
REMARK    6  A    between atoms: C_10  and  C_12
REMARK                            x       y       z     vdW  Elec       q    Type
REMARK                         _______ _______ _______ _____ _____    ______ ____
ROOT
ATOM      1  O   UNL     1      17.320  -8.508  25.585  0.00  0.00    -0.375 OA
ATOM      4  N   UNL     1      16.581  -6.949  27.888  0.00  0.00    -0.292 NA
ATOM      6  C   UNL     1      15.498  -7.931  27.906  0.00  0.00    +0.131 C 
ATOM      7  C   UNL     1      16.013  -9.322  27.512  0.00  0.00    +0.213 C 
ATOM      8  C   UNL     1      16.824  -6.333  26.579  0.00  0.00    +0.113 C 
ATOM      9  C   UNL     1      16.398  -9.490  26.044  0.00  0.00    +0.205 C 
ATOM     11  C   UNL     1      16.701  -7.248  25.362  0.00  0.00    +0.175 C 
ENDROOT
BRANCH   7   2
ATOM      2  O   UNL     1      14.993 -10.272  27.823  0.00  0.00    -0.485 OA
BRANCH   2  13
ATOM     13  C   UNL     1      14.690 -10.433  29.147  0.00  0.00    +0.121 A 
ATOM     17  C   UNL     1      13.359 -10.412  29.566  0.00  0.00    +0.045 A 
ATOM     18  C   UNL     1      15.711 -10.618  30.079  0.00  0.00    +0.045 A 
ATOM     20  C   UNL     1      13.050 -10.576  30.917  0.00  0.00    +0.004 A 
ATOM     21  C   UNL     1      15.403 -10.781  31.429  0.00  0.00    +0.004 A 
ATOM     22  C   UNL     1      14.073 -10.761  31.848  0.00  0.00    +0.000 A 
ENDBRANCH   2  13
ENDBRANCH   7   2
BRANCH   4  10
ATOM     10  C   UNL     1      16.379  -5.910  28.899  0.00  0.00    +0.121 C 
BRANCH  10  12
ATOM      5  N   UNL     1      13.118  -6.665  30.668  0.00  0.00    -0.221 NA
ATOM     12  C   UNL     1      15.410  -6.346  29.965  0.00  0.00    -0.015 A 
ATOM     14  C   UNL     1      15.860  -6.819  31.193  0.00  0.00    +0.011 A 
ATOM     15  C   UNL     1      14.041  -6.290  29.754  0.00  0.00    +0.119 A 
ATOM     16  C   UNL     1      14.941  -7.215  32.158  0.00  0.00    +0.067 A 
ATOM     19  C   UNL     1      13.593  -7.120  31.849  0.00  0.00    +0.214 A 
BRANCH  19   3
ATOM      3  O   UNL     1      12.668  -7.504  32.785  0.00  0.00    -0.480 OA
ATOM     23  C   UNL     1      11.299  -7.365  32.425  0.00  0.00    +0.279 C 
ENDBRANCH  19   3
ENDBRANCH  10  12
ENDBRANCH   4  10
TORSDOF 5
ENDMDL
MODEL 8
REMARK VINA RESULT:      -2.2      1.996      6.479
REMARK  Name = 75536918
REMARK  6 active torsions:
REMARK  status: ('A' for Active; 'I' for Inactive)
REMARK    1  A    between atoms: O_2  and  C_7
REMARK    2  A    between atoms: O_2  and  C_13
REMARK    3  A    between atoms: O_3  and  C_19
REMARK    4  A    between atoms: O_3  and  C_23
REMARK    5  A    between atoms: N_4  and  C_10
REMARK    6  A    between atoms: C_10  and  C_12
REMARK                            x       y       z     vdW  Elec       q    Type
REMARK                         _______ _______ _______ _____ _____    ______ ____
ROOT
ATOM      1  O   UNL     1      -0.574  -1.413  23.992  0.00  0.00    -0.375 OA
ATOM      4  N   UNL     1      -0.422   1.450  24.232  0.00  0.00    -0.292 NA
ATOM      6  C   UNL     1       0.902   1.185  23.669  0.00  0.00    +0.131 C 
ATOM      7  C   UNL     1       0.837   0.070  22.617  0.00  0.00    +0.213 C 
ATOM      8  C   UNL     1      -0.783   0.594  25.367  0.00  0.00    +0.113 C 
ATOM      9  C   UNL     1       0.577  -1.333  23.161  0.00  0.00    +0.205 C 
ATOM     11  C   UNL     1      -0.347  -0.867  25.285  0.00  0.00    +0.175 C 
ENDROOT
BRANCH   7   2
ATOM      2  O   UNL     1       2.079   0.058  21.912  0.00  0.00    -0.485 OA
BRANCH   2  13
ATOM     13  C   UNL     1       3.209  -0.095  22.666  0.00  0.00    +0.121 A 
ATOM     17  C   UNL     1       4.100   0.969  22.813  0.00  0.00    +0.045 A 
ATOM     18  C   UNL     1       3.472  -1.315  23.289  0.00  0.00    +0.045 A 
ATOM     20  C   UNL     1       5.253   0.813  23.582  0.00  0.00    +0.004 A 
ATOM     21  C   UNL     1       4.624  -1.471  24.058  0.00  0.00    +0.004 A 
ATOM     22  C   UNL     1       5.515  -0.408  24.205  0.00  0.00    +0.000 A 
ENDBRANCH   2  13
ENDBRANCH   7   2
BRANCH   4  10
ATOM     10  C   UNL     1      -0.576   2.859  24.599  0.00  0.00    +0.121 C 
BRANCH  10  12
ATOM      5  N   UNL     1      -4.349   3.063  24.367  0.00  0.00    -0.221 NA
ATOM     12  C   UNL     1      -2.002   3.197  24.938  0.00  0.00    -0.015 A 
ATOM     14  C   UNL     1      -2.315   3.925  26.080  0.00  0.00    +0.011 A 
ATOM     15  C   UNL     1      -3.047   2.793  24.121  0.00  0.00    +0.119 A 
ATOM     16  C   UNL     1      -3.642   4.222  26.368  0.00  0.00    +0.067 A 
ATOM     19  C   UNL     1      -4.613   3.772  25.487  0.00  0.00    +0.214 A 
BRANCH  19   3
ATOM      3  O   UNL     1      -5.929   4.053  25.749  0.00  0.00    -0.480 OA
ATOM     23  C   UNL     1      -6.385   5.356  25.406  0.00  0.00    +0.279 C 
ENDBRANCH  19   3
ENDBRANCH  10  12
ENDBRANCH   4  10
TORSDOF 5
ENDMDL
MODEL 9
REMARK VINA RESULT:      -1.4     19.630     21.079
REMARK  Name = 75536918
REMARK  6 active torsions:
REMARK  status: ('A' for Active; 'I' for Inactive)
REMARK    1  A    between atoms: O_2  and  C_7
REMARK    2  A    between atoms: O_2  and  C_13
REMARK    3  A    between atoms: O_3  and  C_19
REMARK    4  A    between atoms: O_3  and  C_23
REMARK    5  A    between atoms: N_4  and  C_10
REMARK    6  A    between atoms: C_10  and  C_12
REMARK                            x       y       z     vdW  Elec       q    Type
REMARK                         _______ _______ _______ _____ _____    ______ ____
ROOT
ATOM      1  O   UNL     1      16.294  -9.742  25.452  0.00  0.00    -0.375 OA
ATOM      4  N   UNL     1      17.108  -7.277  26.695  0.00  0.00    -0.292 NA
ATOM      6  C   UNL     1      16.896  -8.092  27.891  0.00  0.00    +0.131 C 
ATOM      7  C   UNL     1      17.366  -9.534  27.663  0.00  0.00    +0.213 C 
ATOM      8  C   UNL     1      16.013  -7.331  25.721  0.00  0.00    +0.113 C 
ATOM      9  C   UNL     1      16.506 -10.364  26.714  0.00  0.00    +0.205 C 
ATOM     11  C   UNL     1      15.341  -8.688  25.523  0.00  0.00    +0.175 C 
ENDROOT
BRANCH   7   2
ATOM      2  O   UNL     1      17.401 -10.190  28.932  0.00  0.00    -0.485 OA
BRANCH   2  13
ATOM     13  C   UNL     1      16.633  -9.646  29.924  0.00  0.00    +0.121 A 
ATOM     17  C   UNL     1      15.296 -10.022  30.056  0.00  0.00    +0.045 A 
ATOM     18  C   UNL     1      17.185  -8.714  30.802  0.00  0.00    +0.045 A 
ATOM     20  C   UNL     1      14.512  -9.466  31.068  0.00  0.00    +0.004 A 
ATOM     21  C   UNL     1      16.402  -8.158  31.812  0.00  0.00    +0.004 A 
ATOM     22  C   UNL     1      15.065  -8.534  31.946  0.00  0.00    +0.000 A 
ENDBRANCH   2  13
ENDBRANCH   7   2
BRANCH   4  10
ATOM     10  C   UNL     1      17.404  -5.886  27.039  0.00  0.00    +0.121 C 
BRANCH  10  12
ATOM      5  N   UNL     1      17.395  -2.757  24.908  0.00  0.00    -0.221 NA
ATOM     12  C   UNL     1      17.398  -4.995  25.827  0.00  0.00    -0.015 A 
ATOM     14  C   UNL     1      17.392  -5.529  24.543  0.00  0.00    +0.011 A 
ATOM     15  C   UNL     1      17.400  -3.614  25.954  0.00  0.00    +0.119 A 
ATOM     16  C   UNL     1      17.388  -4.680  23.443  0.00  0.00    +0.067 A 
ATOM     19  C   UNL     1      17.390  -3.314  23.676  0.00  0.00    +0.214 A 
BRANCH  19   3
ATOM      3  O   UNL     1      17.385  -2.457  22.607  0.00  0.00    -0.480 OA
ATOM     23  C   UNL     1      16.925  -1.133  22.850  0.00  0.00    +0.279 C 
ENDBRANCH  19   3
ENDBRANCH  10  12
ENDBRANCH   4  10
TORSDOF 5
ENDMDL
