MODEL 1
REMARK VINA RESULT:      -0.8      0.000      0.000
REMARK  Name = 75536049
REMARK  5 active torsions:
REMARK  status: ('A' for Active; 'I' for Inactive)
REMARK    1  A    between atoms: S_1  and  N_7
REMARK    2  A    between atoms: S_1  and  C_17
REMARK    3  A    between atoms: S_2  and  N_8
REMARK    4  A    between atoms: S_2  and  C_19
REMARK    5  A    between atoms: C_10  and  C_14
REMARK                            x       y       z     vdW  Elec       q    Type
REMARK                         _______ _______ _______ _____ _____    ______ ____
ROOT
ATOM      8  N   UNL     1      -7.988  -8.429   9.245  0.00  0.00    -0.195 N 
ATOM      9  N   UNL     1      -5.865  -7.836   8.964  0.00  0.00    -0.230 NA
ATOM     14  C   UNL     1      -6.683  -8.835   9.208  0.00  0.00    +0.136 A 
ATOM     15  C   UNL     1      -8.012  -7.077   9.010  0.00  0.00    +0.092 A 
ATOM     16  C   UNL     1      -6.676  -6.732   8.837  0.00  0.00    +0.091 A 
ATOM     18  C   UNL     1      -9.059  -6.157   8.934  0.00  0.00    +0.030 A 
ATOM     20  C   UNL     1      -6.343  -5.392   8.574  0.00  0.00    +0.030 A 
ATOM     23  C   UNL     1      -8.709  -4.828   8.672  0.00  0.00    +0.002 A 
ATOM     24  C   UNL     1      -7.376  -4.450   8.494  0.00  0.00    +0.002 A 
ENDROOT
BRANCH  14  10
ATOM      7  N   UNL     1      -4.051 -10.667  10.303  0.00  0.00    -0.176 NA
ATOM     10  C   UNL     1      -6.272 -10.281   9.429  0.00  0.00    +0.074 C 
ATOM     11  C   UNL     1      -5.338 -10.779   8.324  0.00  0.00    +0.029 C 
ATOM     12  C   UNL     1      -5.484 -10.590  10.712  0.00  0.00    +0.120 C 
ATOM     13  C   UNL     1      -3.949 -10.436   8.842  0.00  0.00    +0.110 C 
BRANCH   7   1
ATOM      1  S   UNL     1      -2.871  -9.992  11.315  0.00  0.00    +0.061 S 
ATOM      3  O   UNL     1      -2.835  -8.553  11.127  0.00  0.00    -0.153 OA
ATOM      4  O   UNL     1      -1.652 -10.774  11.226  0.00  0.00    -0.153 OA
BRANCH   1  17
ATOM     17  C   UNL     1      -3.590 -10.301  12.900  0.00  0.00    +0.105 A 
ATOM     21  C   UNL     1      -4.978 -10.305  13.047  0.00  0.00    +0.028 A 
ATOM     22  C   UNL     1      -2.772 -10.537  14.004  0.00  0.00    +0.028 A 
ATOM     27  C   UNL     1      -5.546 -10.545  14.298  0.00  0.00    +0.002 A 
ATOM     28  C   UNL     1      -3.340 -10.777  15.256  0.00  0.00    +0.002 A 
ATOM     29  C   UNL     1      -4.727 -10.781  15.402  0.00  0.00    +0.000 A 
ENDBRANCH   1  17
ENDBRANCH   7   1
ENDBRANCH  14  10
BRANCH   8   2
ATOM      2  S   UNL     1      -9.311  -9.396   9.526  0.00  0.00    +0.086 S 
ATOM      5  O   UNL     1      -9.150 -10.750   8.936  0.00  0.00    -0.148 OA
ATOM      6  O   UNL     1     -10.544  -8.663   9.156  0.00  0.00    -0.148 OA
BRANCH   2  19
ATOM     19  C   UNL     1      -9.485  -9.757  11.282  0.00  0.00    +0.111 A 
ATOM     25  C   UNL     1     -10.578 -10.492  11.738  0.00  0.00    +0.029 A 
ATOM     26  C   UNL     1      -8.527  -9.298  12.187  0.00  0.00    +0.029 A 
ATOM     30  C   UNL     1     -10.715 -10.769  13.098  0.00  0.00    +0.002 A 
ATOM     31  C   UNL     1      -8.664  -9.573  13.547  0.00  0.00    +0.002 A 
ATOM     32  C   UNL     1      -9.758 -10.309  14.003  0.00  0.00    +0.000 A 
ENDBRANCH   2  19
ENDBRANCH   8   2
TORSDOF 5
ENDMDL
MODEL 2
REMARK VINA RESULT:       2.8     16.360     18.648
REMARK  Name = 75536049
REMARK  5 active torsions:
REMARK  status: ('A' for Active; 'I' for Inactive)
REMARK    1  A    between atoms: S_1  and  N_7
REMARK    2  A    between atoms: S_1  and  C_17
REMARK    3  A    between atoms: S_2  and  N_8
REMARK    4  A    between atoms: S_2  and  C_19
REMARK    5  A    between atoms: C_10  and  C_14
REMARK                            x       y       z     vdW  Elec       q    Type
REMARK                         _______ _______ _______ _____ _____    ______ ____
ROOT
ATOM      8  N   UNL     1      -2.289   1.016  25.498  0.00  0.00    -0.195 N 
ATOM      9  N   UNL     1      -3.615  -0.722  25.097  0.00  0.00    -0.230 NA
ATOM     14  C   UNL     1      -2.384  -0.340  25.353  0.00  0.00    +0.136 A 
ATOM     15  C   UNL     1      -3.543   1.544  25.324  0.00  0.00    +0.092 A 
ATOM     16  C   UNL     1      -4.353   0.440  25.075  0.00  0.00    +0.091 A 
ATOM     18  C   UNL     1      -4.024   2.854  25.363  0.00  0.00    +0.030 A 
ATOM     20  C   UNL     1      -5.726   0.634  24.849  0.00  0.00    +0.030 A 
ATOM     23  C   UNL     1      -5.393   3.028  25.135  0.00  0.00    +0.002 A 
ATOM     24  C   UNL     1      -6.231   1.940  24.882  0.00  0.00    +0.002 A 
ENDROOT
BRANCH  14  10
ATOM      7  N   UNL     1       0.400  -1.255  23.651  0.00  0.00    -0.176 NA
ATOM     10  C   UNL     1      -1.182  -1.261  25.479  0.00  0.00    +0.074 C 
ATOM     11  C   UNL     1      -1.341  -2.521  24.627  0.00  0.00    +0.029 C 
ATOM     12  C   UNL     1       0.173  -0.700  25.017  0.00  0.00    +0.120 C 
ATOM     13  C   UNL     1      -0.741  -2.128  23.284  0.00  0.00    +0.110 C 
BRANCH   7   1
ATOM      1  S   UNL     1       1.069  -0.253  22.459  0.00  0.00    +0.061 S 
ATOM      3  O   UNL     1       0.561   1.097  22.617  0.00  0.00    -0.153 OA
ATOM      4  O   UNL     1       0.997  -0.918  21.171  0.00  0.00    -0.153 OA
BRANCH   1  17
ATOM     17  C   UNL     1       2.764  -0.243  22.961  0.00  0.00    +0.105 A 
ATOM     21  C   UNL     1       3.539   0.903  22.778  0.00  0.00    +0.028 A 
ATOM     22  C   UNL     1       3.329  -1.382  23.536  0.00  0.00    +0.028 A 
ATOM     27  C   UNL     1       4.877   0.910  23.171  0.00  0.00    +0.002 A 
ATOM     28  C   UNL     1       4.667  -1.376  23.928  0.00  0.00    +0.002 A 
ATOM     29  C   UNL     1       5.441  -0.229  23.745  0.00  0.00    +0.000 A 
ENDBRANCH   1  17
ENDBRANCH   7   1
ENDBRANCH  14  10
BRANCH   8   2
ATOM      2  S   UNL     1      -0.905   1.875  25.827  0.00  0.00    +0.086 S 
ATOM      5  O   UNL     1       0.254   1.399  25.026  0.00  0.00    -0.148 OA
ATOM      6  O   UNL     1      -0.703   1.943  27.293  0.00  0.00    -0.148 OA
BRANCH   2  19
ATOM     19  C   UNL     1      -1.067   3.588  25.293  0.00  0.00    +0.111 A 
ATOM     25  C   UNL     1      -2.010   4.419  25.895  0.00  0.00    +0.029 A 
ATOM     26  C   UNL     1      -0.250   4.082  24.275  0.00  0.00    +0.029 A 
ATOM     30  C   UNL     1      -2.139   5.745  25.480  0.00  0.00    +0.002 A 
ATOM     31  C   UNL     1      -0.378   5.406  23.860  0.00  0.00    +0.002 A 
ATOM     32  C   UNL     1      -1.322   6.238  24.462  0.00  0.00    +0.000 A 
ENDBRANCH   2  19
ENDBRANCH   8   2
TORSDOF 5
ENDMDL
