MODEL 1
REMARK VINA RESULT:      -1.8      0.000      0.000
REMARK  Name = 7134495
REMARK  12 active torsions:
REMARK  status: ('A' for Active; 'I' for Inactive)
REMARK    1  A    between atoms: S_1  and  N_12
REMARK    2  A    between atoms: S_1  and  C_23
REMARK    3  A    between atoms: O_5  and  C_15
REMARK    4  A    between atoms: O_6  and  C_18
REMARK    5  A    between atoms: O_7  and  C_20
REMARK    6  A    between atoms: N_12  and  C_16
REMARK    7  A    between atoms: N_13  and  C_22
REMARK    8  A    between atoms: C_15  and  C_21
REMARK    9  A    between atoms: C_22  and  C_24
REMARK   10  A    between atoms: C_22  and  C_25
REMARK   11  A    between atoms: C_24  and  C_28
REMARK   12  A    between atoms: C_29  and  C_34
REMARK                            x       y       z     vdW  Elec       q    Type
REMARK                         _______ _______ _______ _____ _____    ______ ____
ROOT
ATOM     15  C   UNL     1      -0.403   2.326  25.437  0.00  0.00    +0.145 C 
ATOM     16  C   UNL     1      -2.300   3.718  26.383  0.00  0.00    +0.111 C 
ATOM     17  C   UNL     1      -1.848   2.325  25.936  0.00  0.00    +0.067 C 
ATOM     18  C   UNL     1      -2.080   4.777  25.297  0.00  0.00    +0.162 C 
ATOM     19  C   UNL     1      -0.199   3.367  24.338  0.00  0.00    +0.078 C 
ATOM     20  C   UNL     1      -0.639   4.765  24.775  0.00  0.00    +0.148 C 
ENDROOT
BRANCH  15  21
ATOM      8  O   UNL     1      -0.451  -0.062  25.450  0.00  0.00    -0.273 OA
ATOM     13  N   UNL     1       0.887   1.030  23.890  0.00  0.00    -0.301 N 
ATOM     21  C   UNL     1      -0.012   0.965  24.939  0.00  0.00    +0.245 C 
ATOM     42  H   UNL     1       1.130   1.930  23.490  0.00  0.00    +0.150 HD
BRANCH  13  22
ATOM     22  C   UNL     1       1.438  -0.141  23.247  0.00  0.00    +0.163 C 
BRANCH  22  25
ATOM     11  O   UNL     1      -0.617  -1.381  22.858  0.00  0.00    -0.274 OA
ATOM     14  N   UNL     1       0.475  -0.470  21.053  0.00  0.00    -0.328 N 
ATOM     25  C   UNL     1       0.330  -0.748  22.397  0.00  0.00    +0.231 C 
ATOM     43  H   UNL     1      -0.204  -0.804  20.377  0.00  0.00    +0.145 HD
ATOM     44  H   UNL     1       1.250   0.075  20.689  0.00  0.00    +0.145 HD
ENDBRANCH  22  25
BRANCH  22  24
ATOM     24  C   UNL     1       2.656   0.192  22.378  0.00  0.00    +0.067 C 
BRANCH  24  28
ATOM     28  C   UNL     1       3.964  -0.110  23.067  0.00  0.00    -0.045 A 
ATOM     32  C   UNL     1       4.197  -1.380  23.595  0.00  0.00    +0.004 A 
ATOM     33  C   UNL     1       4.939   0.882  23.178  0.00  0.00    +0.004 A 
ATOM     35  C   UNL     1       5.406  -1.660  24.232  0.00  0.00    +0.000 A 
ATOM     36  C   UNL     1       6.148   0.602  23.816  0.00  0.00    +0.000 A 
ATOM     37  C   UNL     1       6.381  -0.668  24.342  0.00  0.00    +0.000 A 
ENDBRANCH  24  28
ENDBRANCH  22  24
ENDBRANCH  13  22
ENDBRANCH  15  21
BRANCH  15   5
ATOM      5  O   UNL     1       0.494   2.599  26.507  0.00  0.00    -0.379 OA
ATOM     39  H   UNL     1       1.365   2.824  26.142  0.00  0.00    +0.211 HD
ENDBRANCH  15   5
BRANCH  18   6
ATOM      6  O   UNL     1      -2.349   6.059  25.870  0.00  0.00    -0.388 OA
ATOM     40  H   UNL     1      -3.310   6.206  25.844  0.00  0.00    +0.210 HD
ENDBRANCH  18   6
BRANCH  20   7
ATOM      7  O   UNL     1      -0.532   5.626  23.643  0.00  0.00    -0.389 OA
ATOM     41  H   UNL     1       0.412   5.711  23.425  0.00  0.00    +0.210 HD
ENDBRANCH  20   7
BRANCH  16  12
ATOM     12  N   UNL     1      -3.748   3.661  26.721  0.00  0.00    -0.184 NA
ATOM     38  H   UNL     1      -4.000   3.473  27.699  0.00  0.00    +0.148 HD
BRANCH  12   1
ATOM      1  S   UNL     1      -4.894   3.518  25.482  0.00  0.00    +0.059 S 
ATOM      9  O   UNL     1      -4.918   4.738  24.698  0.00  0.00    -0.153 OA
ATOM     10  O   UNL     1      -6.122   2.990  26.047  0.00  0.00    -0.153 OA
BRANCH   1  23
ATOM     23  C   UNL     1      -4.197   2.239  24.482  0.00  0.00    +0.106 A 
ATOM     26  C   UNL     1      -4.284   0.908  24.889  0.00  0.00    +0.041 A 
ATOM     27  C   UNL     1      -3.559   2.561  23.283  0.00  0.00    +0.028 A 
ATOM     29  C   UNL     1      -3.735  -0.101  24.099  0.00  0.00    +0.057 A 
ATOM     30  C   UNL     1      -3.009   1.551  22.493  0.00  0.00    +0.002 A 
ATOM     31  C   UNL     1      -3.097   0.220  22.900  0.00  0.00    +0.012 A 
BRANCH  29  34
ATOM      2  F   UNL     1      -2.707  -2.255  24.266  0.00  0.00    -0.166 F 
ATOM      3  F   UNL     1      -4.036  -1.673  25.877  0.00  0.00    -0.166 F 
ATOM      4  F   UNL     1      -4.854  -2.192  23.930  0.00  0.00    -0.166 F 
ATOM     34  C   UNL     1      -3.829  -1.525  24.535  0.00  0.00    +0.417 C 
ENDBRANCH  29  34
ENDBRANCH   1  23
ENDBRANCH  12   1
ENDBRANCH  16  12
TORSDOF 12
ENDMDL
MODEL 2
REMARK VINA RESULT:      -0.4      3.404      7.503
REMARK  Name = 7134495
REMARK  12 active torsions:
REMARK  status: ('A' for Active; 'I' for Inactive)
REMARK    1  A    between atoms: S_1  and  N_12
REMARK    2  A    between atoms: S_1  and  C_23
REMARK    3  A    between atoms: O_5  and  C_15
REMARK    4  A    between atoms: O_6  and  C_18
REMARK    5  A    between atoms: O_7  and  C_20
REMARK    6  A    between atoms: N_12  and  C_16
REMARK    7  A    between atoms: N_13  and  C_22
REMARK    8  A    between atoms: C_15  and  C_21
REMARK    9  A    between atoms: C_22  and  C_24
REMARK   10  A    between atoms: C_22  and  C_25
REMARK   11  A    between atoms: C_24  and  C_28
REMARK   12  A    between atoms: C_29  and  C_34
REMARK                            x       y       z     vdW  Elec       q    Type
REMARK                         _______ _______ _______ _____ _____    ______ ____
ROOT
ATOM     15  C   UNL     1      -3.658  -0.438  25.141  0.00  0.00    +0.145 C 
ATOM     16  C   UNL     1      -1.226  -1.160  25.123  0.00  0.00    +0.111 C 
ATOM     17  C   UNL     1      -2.217  -0.029  24.833  0.00  0.00    +0.067 C 
ATOM     18  C   UNL     1      -1.606  -2.462  24.409  0.00  0.00    +0.162 C 
ATOM     19  C   UNL     1      -4.035  -1.724  24.406  0.00  0.00    +0.078 C 
ATOM     20  C   UNL     1      -3.057  -2.864  24.694  0.00  0.00    +0.148 C 
ENDROOT
BRANCH  15  21
ATOM      8  O   UNL     1      -5.720   0.431  24.308  0.00  0.00    -0.273 OA
ATOM     13  N   UNL     1      -4.077   1.917  25.019  0.00  0.00    -0.301 N 
ATOM     21  C   UNL     1      -4.611   0.663  24.780  0.00  0.00    +0.245 C 
ATOM     42  H   UNL     1      -3.179   2.001  25.484  0.00  0.00    +0.150 HD
BRANCH  13  22
ATOM     22  C   UNL     1      -4.784   3.145  24.735  0.00  0.00    +0.163 C 
BRANCH  22  25
ATOM     11  O   UNL     1      -6.046   2.508  26.712  0.00  0.00    -0.274 OA
ATOM     14  N   UNL     1      -6.347   4.616  25.848  0.00  0.00    -0.328 N 
ATOM     25  C   UNL     1      -5.789   3.354  25.859  0.00  0.00    +0.231 C 
ATOM     43  H   UNL     1      -7.024   4.891  26.553  0.00  0.00    +0.145 HD
ATOM     44  H   UNL     1      -6.107   5.313  25.150  0.00  0.00    +0.145 HD
ENDBRANCH  22  25
BRANCH  22  24
ATOM     24  C   UNL     1      -3.840   4.348  24.633  0.00  0.00    +0.067 C 
BRANCH  24  28
ATOM     28  C   UNL     1      -2.410   3.997  24.962  0.00  0.00    -0.045 A 
ATOM     32  C   UNL     1      -2.124   3.214  26.082  0.00  0.00    +0.004 A 
ATOM     33  C   UNL     1      -1.373   4.455  24.149  0.00  0.00    +0.004 A 
ATOM     35  C   UNL     1      -0.802   2.889  26.387  0.00  0.00    +0.000 A 
ATOM     36  C   UNL     1      -0.051   4.130  24.454  0.00  0.00    +0.000 A 
ATOM     37  C   UNL     1       0.234   3.347  25.572  0.00  0.00    +0.000 A 
ENDBRANCH  24  28
ENDBRANCH  22  24
ENDBRANCH  13  22
ENDBRANCH  15  21
BRANCH  15   5
ATOM      5  O   UNL     1      -3.832  -0.633  26.539  0.00  0.00    -0.379 OA
ATOM     39  H   UNL     1      -3.140  -0.148  27.016  0.00  0.00    +0.211 HD
ENDBRANCH  15   5
BRANCH  18   6
ATOM      6  O   UNL     1      -0.742  -3.496  24.889  0.00  0.00    -0.388 OA
ATOM     40  H   UNL     1      -0.271  -3.874  24.127  0.00  0.00    +0.210 HD
ENDBRANCH  18   6
BRANCH  20   7
ATOM      7  O   UNL     1      -3.422  -3.965  23.864  0.00  0.00    -0.389 OA
ATOM     41  H   UNL     1      -3.871  -3.607  23.079  0.00  0.00    +0.210 HD
ENDBRANCH  20   7
BRANCH  16  12
ATOM     12  N   UNL     1       0.126  -0.733  24.670  0.00  0.00    -0.184 NA
ATOM     38  H   UNL     1       0.856  -0.634  25.386  0.00  0.00    +0.148 HD
BRANCH  12   1
ATOM      1  S   UNL     1       0.323  -0.069  23.125  0.00  0.00    +0.059 S 
ATOM      9  O   UNL     1      -0.427   1.168  23.027  0.00  0.00    -0.153 OA
ATOM     10  O   UNL     1       0.130  -1.119  22.142  0.00  0.00    -0.153 OA
BRANCH   1  23
ATOM     23  C   UNL     1       2.044   0.334  23.114  0.00  0.00    +0.106 A 
ATOM     26  C   UNL     1       2.984  -0.607  23.535  0.00  0.00    +0.041 A 
ATOM     27  C   UNL     1       2.463   1.593  22.685  0.00  0.00    +0.028 A 
ATOM     29  C   UNL     1       4.342  -0.289  23.525  0.00  0.00    +0.057 A 
ATOM     30  C   UNL     1       3.821   1.912  22.675  0.00  0.00    +0.002 A 
ATOM     31  C   UNL     1       4.761   0.971  23.096  0.00  0.00    +0.012 A 
BRANCH  29  34
ATOM      2  F   UNL     1       4.853  -2.567  24.045  0.00  0.00    -0.166 F 
ATOM      3  F   UNL     1       6.438  -1.383  23.157  0.00  0.00    -0.166 F 
ATOM      4  F   UNL     1       5.841  -1.026  25.218  0.00  0.00    -0.166 F 
ATOM     34  C   UNL     1       5.347  -1.296  23.975  0.00  0.00    +0.417 C 
ENDBRANCH  29  34
ENDBRANCH   1  23
ENDBRANCH  12   1
ENDBRANCH  16  12
TORSDOF 12
ENDMDL
MODEL 3
REMARK VINA RESULT:      -0.3      1.630      2.183
REMARK  Name = 7134495
REMARK  12 active torsions:
REMARK  status: ('A' for Active; 'I' for Inactive)
REMARK    1  A    between atoms: S_1  and  N_12
REMARK    2  A    between atoms: S_1  and  C_23
REMARK    3  A    between atoms: O_5  and  C_15
REMARK    4  A    between atoms: O_6  and  C_18
REMARK    5  A    between atoms: O_7  and  C_20
REMARK    6  A    between atoms: N_12  and  C_16
REMARK    7  A    between atoms: N_13  and  C_22
REMARK    8  A    between atoms: C_15  and  C_21
REMARK    9  A    between atoms: C_22  and  C_24
REMARK   10  A    between atoms: C_22  and  C_25
REMARK   11  A    between atoms: C_24  and  C_28
REMARK   12  A    between atoms: C_29  and  C_34
REMARK                            x       y       z     vdW  Elec       q    Type
REMARK                         _______ _______ _______ _____ _____    ______ ____
ROOT
ATOM     15  C   UNL     1      -0.696   2.790  24.876  0.00  0.00    +0.145 C 
ATOM     16  C   UNL     1      -3.223   3.000  24.921  0.00  0.00    +0.111 C 
ATOM     17  C   UNL     1      -2.020   2.281  24.305  0.00  0.00    +0.067 C 
ATOM     18  C   UNL     1      -3.111   4.525  24.808  0.00  0.00    +0.162 C 
ATOM     19  C   UNL     1      -0.582   4.307  24.737  0.00  0.00    +0.078 C 
ATOM     20  C   UNL     1      -1.774   5.037  25.356  0.00  0.00    +0.148 C 
ENDROOT
BRANCH  15  21
ATOM      8  O   UNL     1       1.480   2.738  23.894  0.00  0.00    -0.273 OA
ATOM     13  N   UNL     1       0.230   0.777  23.967  0.00  0.00    -0.301 N 
ATOM     21  C   UNL     1       0.465   2.120  24.202  0.00  0.00    +0.245 C 
ATOM     42  H   UNL     1      -0.613   0.343  24.330  0.00  0.00    +0.150 HD
BRANCH  13  22
ATOM     22  C   UNL     1       1.181  -0.089  23.309  0.00  0.00    +0.163 C 
BRANCH  22  25
ATOM     11  O   UNL     1      -0.566  -1.528  22.424  0.00  0.00    -0.274 OA
ATOM     14  N   UNL     1       0.951  -0.614  20.961  0.00  0.00    -0.328 N 
ATOM     25  C   UNL     1       0.428  -0.836  22.217  0.00  0.00    +0.231 C 
ATOM     43  H   UNL     1       0.534  -1.043  20.140  0.00  0.00    +0.145 HD
ATOM     44  H   UNL     1       1.759  -0.021  20.803  0.00  0.00    +0.145 HD
ENDBRANCH  22  25
BRANCH  22  24
ATOM     24  C   UNL     1       2.357   0.690  22.709  0.00  0.00    +0.067 C 
BRANCH  24  28
ATOM     28  C   UNL     1       3.697   0.172  23.173  0.00  0.00    -0.045 A 
ATOM     32  C   UNL     1       3.828  -1.157  23.579  0.00  0.00    +0.004 A 
ATOM     33  C   UNL     1       4.803   1.021  23.197  0.00  0.00    +0.004 A 
ATOM     35  C   UNL     1       5.066  -1.636  24.008  0.00  0.00    +0.000 A 
ATOM     36  C   UNL     1       6.041   0.542  23.626  0.00  0.00    +0.000 A 
ATOM     37  C   UNL     1       6.172  -0.787  24.031  0.00  0.00    +0.000 A 
ENDBRANCH  24  28
ENDBRANCH  22  24
ENDBRANCH  13  22
ENDBRANCH  15  21
BRANCH  15   5
ATOM      5  O   UNL     1      -0.579   2.440  26.250  0.00  0.00    -0.379 OA
ATOM     39  H   UNL     1      -0.611   3.248  26.788  0.00  0.00    +0.211 HD
ENDBRANCH  15   5
BRANCH  18   6
ATOM      6  O   UNL     1      -4.172   5.103  25.572  0.00  0.00    -0.388 OA
ATOM     40  H   UNL     1      -4.902   5.312  24.965  0.00  0.00    +0.210 HD
ENDBRANCH  18   6
BRANCH  20   7
ATOM      7  O   UNL     1      -1.634   6.425  25.057  0.00  0.00    -0.389 OA
ATOM     41  H   UNL     1      -2.526   6.787  24.912  0.00  0.00    +0.210 HD
ENDBRANCH  20   7
BRANCH  16  12
ATOM     12  N   UNL     1      -4.456   2.550  24.219  0.00  0.00    -0.184 NA
ATOM     38  H   UNL     1      -4.783   3.115  23.426  0.00  0.00    +0.148 HD
BRANCH  12   1
ATOM      1  S   UNL     1      -5.466   1.403  24.949  0.00  0.00    +0.059 S 
ATOM      9  O   UNL     1      -6.679   1.254  24.167  0.00  0.00    -0.153 OA
ATOM     10  O   UNL     1      -5.543   1.691  26.369  0.00  0.00    -0.153 OA
BRANCH   1  23
ATOM     23  C   UNL     1      -4.521  -0.082  24.777  0.00  0.00    +0.106 A 
ATOM     26  C   UNL     1      -3.293  -0.206  25.425  0.00  0.00    +0.041 A 
ATOM     27  C   UNL     1      -5.005  -1.130  23.994  0.00  0.00    +0.028 A 
ATOM     29  C   UNL     1      -2.548  -1.377  25.291  0.00  0.00    +0.057 A 
ATOM     30  C   UNL     1      -4.260  -2.302  23.859  0.00  0.00    +0.002 A 
ATOM     31  C   UNL     1      -3.032  -2.425  24.507  0.00  0.00    +0.012 A 
BRANCH  29  34
ATOM      2  F   UNL     1      -0.307  -0.591  25.581  0.00  0.00    -0.166 F 
ATOM      3  F   UNL     1      -1.314  -1.362  27.340  0.00  0.00    -0.166 F 
ATOM      4  F   UNL     1      -0.654  -2.729  25.783  0.00  0.00    -0.166 F 
ATOM     34  C   UNL     1      -1.234  -1.510  25.985  0.00  0.00    +0.417 C 
ENDBRANCH  29  34
ENDBRANCH   1  23
ENDBRANCH  12   1
ENDBRANCH  16  12
TORSDOF 12
ENDMDL
MODEL 4
REMARK VINA RESULT:      -0.1      1.771      2.286
REMARK  Name = 7134495
REMARK  12 active torsions:
REMARK  status: ('A' for Active; 'I' for Inactive)
REMARK    1  A    between atoms: S_1  and  N_12
REMARK    2  A    between atoms: S_1  and  C_23
REMARK    3  A    between atoms: O_5  and  C_15
REMARK    4  A    between atoms: O_6  and  C_18
REMARK    5  A    between atoms: O_7  and  C_20
REMARK    6  A    between atoms: N_12  and  C_16
REMARK    7  A    between atoms: N_13  and  C_22
REMARK    8  A    between atoms: C_15  and  C_21
REMARK    9  A    between atoms: C_22  and  C_24
REMARK   10  A    between atoms: C_22  and  C_25
REMARK   11  A    between atoms: C_24  and  C_28
REMARK   12  A    between atoms: C_29  and  C_34
REMARK                            x       y       z     vdW  Elec       q    Type
REMARK                         _______ _______ _______ _____ _____    ______ ____
ROOT
ATOM     15  C   UNL     1      -0.777   2.251  25.920  0.00  0.00    +0.145 C 
ATOM     16  C   UNL     1      -2.442   4.087  26.458  0.00  0.00    +0.111 C 
ATOM     17  C   UNL     1      -2.216   2.579  26.317  0.00  0.00    +0.067 C 
ATOM     18  C   UNL     1      -2.014   4.858  25.204  0.00  0.00    +0.162 C 
ATOM     19  C   UNL     1      -0.367   3.005  24.656  0.00  0.00    +0.078 C 
ATOM     20  C   UNL     1      -0.580   4.514  24.787  0.00  0.00    +0.148 C 
ENDROOT
BRANCH  15  21
ATOM      8  O   UNL     1      -1.145  -0.047  26.454  0.00  0.00    -0.273 OA
ATOM     13  N   UNL     1       0.230   0.484  24.654  0.00  0.00    -0.301 N 
ATOM     21  C   UNL     1      -0.604   0.774  25.719  0.00  0.00    +0.245 C 
ATOM     42  H   UNL     1       0.567   1.235  24.060  0.00  0.00    +0.150 HD
BRANCH  13  22
ATOM     22  C   UNL     1       0.577  -0.864  24.265  0.00  0.00    +0.163 C 
BRANCH  22  25
ATOM     11  O   UNL     1      -1.504  -1.531  23.201  0.00  0.00    -0.274 OA
ATOM     14  N   UNL     1      -0.913  -2.532  25.182  0.00  0.00    -0.328 N 
ATOM     25  C   UNL     1      -0.724  -1.644  24.144  0.00  0.00    +0.231 C 
ATOM     43  H   UNL     1      -1.736  -3.126  25.216  0.00  0.00    +0.145 HD
ATOM     44  H   UNL     1      -0.249  -2.633  25.943  0.00  0.00    +0.145 HD
ENDBRANCH  22  25
BRANCH  22  24
ATOM     24  C   UNL     1       1.350  -0.906  22.942  0.00  0.00    +0.067 C 
BRANCH  24  28
ATOM     28  C   UNL     1       2.798  -0.510  23.099  0.00  0.00    -0.045 A 
ATOM     32  C   UNL     1       3.694  -1.379  23.723  0.00  0.00    +0.004 A 
ATOM     33  C   UNL     1       3.240   0.724  22.623  0.00  0.00    +0.004 A 
ATOM     35  C   UNL     1       5.032  -1.014  23.869  0.00  0.00    +0.000 A 
ATOM     36  C   UNL     1       4.578   1.089  22.769  0.00  0.00    +0.000 A 
ATOM     37  C   UNL     1       5.474   0.220  23.392  0.00  0.00    +0.000 A 
ENDBRANCH  24  28
ENDBRANCH  22  24
ENDBRANCH  13  22
ENDBRANCH  15  21
BRANCH  15   5
ATOM      5  O   UNL     1       0.119   2.587  26.972  0.00  0.00    -0.379 OA
ATOM     39  H   UNL     1       0.804   1.901  27.038  0.00  0.00    +0.211 HD
ENDBRANCH  15   5
BRANCH  18   6
ATOM      6  O   UNL     1      -2.083   6.255  25.502  0.00  0.00    -0.388 OA
ATOM     40  H   UNL     1      -1.510   6.430  26.267  0.00  0.00    +0.210 HD
ENDBRANCH  18   6
BRANCH  20   7
ATOM      7  O   UNL     1      -0.296   5.102  23.519  0.00  0.00    -0.389 OA
ATOM     41  H   UNL     1      -0.799   5.933  23.459  0.00  0.00    +0.210 HD
ENDBRANCH  20   7
BRANCH  16  12
ATOM     12  N   UNL     1      -3.889   4.328  26.708  0.00  0.00    -0.184 NA
ATOM     38  H   UNL     1      -4.205   4.349  27.685  0.00  0.00    +0.148 HD
BRANCH  12   1
ATOM      1  S   UNL     1      -4.998   4.176  25.436  0.00  0.00    +0.059 S 
ATOM      9  O   UNL     1      -4.786   5.242  24.475  0.00  0.00    -0.153 OA
ATOM     10  O   UNL     1      -6.316   3.949  25.997  0.00  0.00    -0.153 OA
BRANCH   1  23
ATOM     23  C   UNL     1      -4.491   2.657  24.686  0.00  0.00    +0.106 A 
ATOM     26  C   UNL     1      -3.668   2.676  23.560  0.00  0.00    +0.041 A 
ATOM     27  C   UNL     1      -4.912   1.440  25.222  0.00  0.00    +0.028 A 
ATOM     29  C   UNL     1      -3.268   1.477  22.969  0.00  0.00    +0.057 A 
ATOM     30  C   UNL     1      -4.512   0.242  24.631  0.00  0.00    +0.002 A 
ATOM     31  C   UNL     1      -3.689   0.260  23.505  0.00  0.00    +0.012 A 
BRANCH  29  34
ATOM      2  F   UNL     1      -2.711   0.551  20.835  0.00  0.00    -0.166 F 
ATOM      3  F   UNL     1      -2.414   2.684  21.088  0.00  0.00    -0.166 F 
ATOM      4  F   UNL     1      -1.075   1.278  22.070  0.00  0.00    -0.166 F 
ATOM     34  C   UNL     1      -2.388   1.497  21.765  0.00  0.00    +0.417 C 
ENDBRANCH  29  34
ENDBRANCH   1  23
ENDBRANCH  12   1
ENDBRANCH  16  12
TORSDOF 12
ENDMDL
MODEL 5
REMARK VINA RESULT:       0.1      1.643      2.292
REMARK  Name = 7134495
REMARK  12 active torsions:
REMARK  status: ('A' for Active; 'I' for Inactive)
REMARK    1  A    between atoms: S_1  and  N_12
REMARK    2  A    between atoms: S_1  and  C_23
REMARK    3  A    between atoms: O_5  and  C_15
REMARK    4  A    between atoms: O_6  and  C_18
REMARK    5  A    between atoms: O_7  and  C_20
REMARK    6  A    between atoms: N_12  and  C_16
REMARK    7  A    between atoms: N_13  and  C_22
REMARK    8  A    between atoms: C_15  and  C_21
REMARK    9  A    between atoms: C_22  and  C_24
REMARK   10  A    between atoms: C_22  and  C_25
REMARK   11  A    between atoms: C_24  and  C_28
REMARK   12  A    between atoms: C_29  and  C_34
REMARK                            x       y       z     vdW  Elec       q    Type
REMARK                         _______ _______ _______ _____ _____    ______ ____
ROOT
ATOM     15  C   UNL     1      -0.889   2.712  25.208  0.00  0.00    +0.145 C 
ATOM     16  C   UNL     1      -3.360   3.259  25.059  0.00  0.00    +0.111 C 
ATOM     17  C   UNL     1      -2.251   2.283  24.660  0.00  0.00    +0.067 C 
ATOM     18  C   UNL     1      -3.029   4.705  24.674  0.00  0.00    +0.162 C 
ATOM     19  C   UNL     1      -0.556   4.145  24.798  0.00  0.00    +0.078 C 
ATOM     20  C   UNL     1      -1.654   5.132  25.199  0.00  0.00    +0.148 C 
ENDROOT
BRANCH  15  21
ATOM      8  O   UNL     1       1.278   2.188  24.350  0.00  0.00    -0.273 OA
ATOM     13  N   UNL     1      -0.209   0.453  24.791  0.00  0.00    -0.301 N 
ATOM     21  C   UNL     1       0.189   1.777  24.741  0.00  0.00    +0.245 C 
ATOM     42  H   UNL     1      -1.104   0.212  25.204  0.00  0.00    +0.150 HD
BRANCH  13  22
ATOM     22  C   UNL     1       0.636  -0.643  24.374  0.00  0.00    +0.163 C 
BRANCH  22  25
ATOM     11  O   UNL     1      -1.009  -2.114  23.355  0.00  0.00    -0.274 OA
ATOM     14  N   UNL     1      -0.060  -2.743  25.350  0.00  0.00    -0.328 N 
ATOM     25  C   UNL     1      -0.245  -1.881  24.289  0.00  0.00    +0.231 C 
ATOM     43  H   UNL     1      -0.576  -3.615  25.409  0.00  0.00    +0.145 HD
ATOM     44  H   UNL     1       0.593  -2.549  26.103  0.00  0.00    +0.145 HD
ENDBRANCH  22  25
BRANCH  22  24
ATOM     24  C   UNL     1       1.311  -0.375  23.024  0.00  0.00    +0.067 C 
BRANCH  24  28
ATOM     28  C   UNL     1       2.811  -0.256  23.135  0.00  0.00    -0.045 A 
ATOM     32  C   UNL     1       3.556  -1.310  23.666  0.00  0.00    +0.004 A 
ATOM     33  C   UNL     1       3.453   0.906  22.709  0.00  0.00    +0.004 A 
ATOM     35  C   UNL     1       4.943  -1.201  23.770  0.00  0.00    +0.000 A 
ATOM     36  C   UNL     1       4.840   1.015  22.812  0.00  0.00    +0.000 A 
ATOM     37  C   UNL     1       5.584  -0.038  23.343  0.00  0.00    +0.000 A 
ENDBRANCH  24  28
ENDBRANCH  22  24
ENDBRANCH  13  22
ENDBRANCH  15  21
BRANCH  15   5
ATOM      5  O   UNL     1      -0.870   2.617  26.627  0.00  0.00    -0.379 OA
ATOM     39  H   UNL     1      -1.077   3.488  27.006  0.00  0.00    +0.211 HD
ENDBRANCH  15   5
BRANCH  18   6
ATOM      6  O   UNL     1      -4.024   5.554  25.252  0.00  0.00    -0.388 OA
ATOM     40  H   UNL     1      -4.879   5.340  24.842  0.00  0.00    +0.210 HD
ENDBRANCH  18   6
BRANCH  20   7
ATOM      7  O   UNL     1      -1.308   6.406  24.658  0.00  0.00    -0.389 OA
ATOM     41  H   UNL     1      -0.535   6.281  24.080  0.00  0.00    +0.210 HD
ENDBRANCH  20   7
BRANCH  16  12
ATOM     12  N   UNL     1      -4.619   2.850  24.378  0.00  0.00    -0.184 NA
ATOM     38  H   UNL     1      -4.893   3.370  23.535  0.00  0.00    +0.148 HD
BRANCH  12   1
ATOM      1  S   UNL     1      -5.724   1.852  25.185  0.00  0.00    +0.059 S 
ATOM      9  O   UNL     1      -6.871   1.605  24.331  0.00  0.00    -0.153 OA
ATOM     10  O   UNL     1      -5.913   2.364  26.530  0.00  0.00    -0.153 OA
BRANCH   1  23
ATOM     23  C   UNL     1      -4.817   0.342  25.333  0.00  0.00    +0.106 A 
ATOM     26  C   UNL     1      -4.929  -0.638  24.346  0.00  0.00    +0.041 A 
ATOM     27  C   UNL     1      -3.989   0.131  26.435  0.00  0.00    +0.028 A 
ATOM     29  C   UNL     1      -4.212  -1.829  24.463  0.00  0.00    +0.057 A 
ATOM     30  C   UNL     1      -3.272  -1.060  26.551  0.00  0.00    +0.002 A 
ATOM     31  C   UNL     1      -3.384  -2.040  25.565  0.00  0.00    +0.012 A 
BRANCH  29  34
ATOM      2  F   UNL     1      -5.508  -3.569  23.454  0.00  0.00    -0.166 F 
ATOM      3  F   UNL     1      -4.259  -2.383  22.136  0.00  0.00    -0.166 F 
ATOM      4  F   UNL     1      -3.348  -3.819  23.490  0.00  0.00    -0.166 F 
ATOM     34  C   UNL     1      -4.331  -2.877  23.408  0.00  0.00    +0.417 C 
ENDBRANCH  29  34
ENDBRANCH   1  23
ENDBRANCH  12   1
ENDBRANCH  16  12
TORSDOF 12
ENDMDL
MODEL 6
REMARK VINA RESULT:       1.8      2.510      4.131
REMARK  Name = 7134495
REMARK  12 active torsions:
REMARK  status: ('A' for Active; 'I' for Inactive)
REMARK    1  A    between atoms: S_1  and  N_12
REMARK    2  A    between atoms: S_1  and  C_23
REMARK    3  A    between atoms: O_5  and  C_15
REMARK    4  A    between atoms: O_6  and  C_18
REMARK    5  A    between atoms: O_7  and  C_20
REMARK    6  A    between atoms: N_12  and  C_16
REMARK    7  A    between atoms: N_13  and  C_22
REMARK    8  A    between atoms: C_15  and  C_21
REMARK    9  A    between atoms: C_22  and  C_24
REMARK   10  A    between atoms: C_22  and  C_25
REMARK   11  A    between atoms: C_24  and  C_28
REMARK   12  A    between atoms: C_29  and  C_34
REMARK                            x       y       z     vdW  Elec       q    Type
REMARK                         _______ _______ _______ _____ _____    ______ ____
ROOT
ATOM     15  C   UNL     1      -0.879   2.731  25.662  0.00  0.00    +0.145 C 
ATOM     16  C   UNL     1      -2.690   4.484  25.943  0.00  0.00    +0.111 C 
ATOM     17  C   UNL     1      -2.383   3.009  25.672  0.00  0.00    +0.067 C 
ATOM     18  C   UNL     1      -1.951   5.418  24.977  0.00  0.00    +0.162 C 
ATOM     19  C   UNL     1      -0.155   3.649  24.679  0.00  0.00    +0.078 C 
ATOM     20  C   UNL     1      -0.447   5.126  24.944  0.00  0.00    +0.148 C 
ENDROOT
BRANCH  15  21
ATOM      8  O   UNL     1      -0.662   0.407  26.171  0.00  0.00    -0.273 OA
ATOM     13  N   UNL     1      -0.280   1.123  23.991  0.00  0.00    -0.301 N 
ATOM     21  C   UNL     1      -0.608   1.294  25.324  0.00  0.00    +0.245 C 
ATOM     42  H   UNL     1      -0.338   1.911  23.353  0.00  0.00    +0.150 HD
BRANCH  13  22
ATOM     22  C   UNL     1       0.049  -0.161  23.415  0.00  0.00    +0.163 C 
BRANCH  22  25
ATOM     11  O   UNL     1       1.721  -0.606  21.708  0.00  0.00    -0.274 OA
ATOM     14  N   UNL     1       2.227   0.889  23.378  0.00  0.00    -0.328 N 
ATOM     25  C   UNL     1       1.405  -0.015  22.739  0.00  0.00    +0.231 C 
ATOM     43  H   UNL     1       3.155   1.091  23.022  0.00  0.00    +0.145 HD
ATOM     44  H   UNL     1       1.943   1.387  24.215  0.00  0.00    +0.145 HD
ENDBRANCH  22  25
BRANCH  22  24
ATOM     24  C   UNL     1       0.095  -1.274  24.468  0.00  0.00    +0.067 C 
BRANCH  24  28
ATOM     28  C   UNL     1      -1.229  -1.981  24.629  0.00  0.00    -0.045 A 
ATOM     32  C   UNL     1      -1.970  -1.814  25.799  0.00  0.00    +0.004 A 
ATOM     33  C   UNL     1      -1.710  -2.800  23.608  0.00  0.00    +0.004 A 
ATOM     35  C   UNL     1      -3.194  -2.467  25.948  0.00  0.00    +0.000 A 
ATOM     36  C   UNL     1      -2.934  -3.453  23.757  0.00  0.00    +0.000 A 
ATOM     37  C   UNL     1      -3.676  -3.286  24.927  0.00  0.00    +0.000 A 
ENDBRANCH  24  28
ENDBRANCH  22  24
ENDBRANCH  13  22
ENDBRANCH  15  21
BRANCH  15   5
ATOM      5  O   UNL     1      -0.330   2.914  26.961  0.00  0.00    -0.379 OA
ATOM     39  H   UNL     1      -1.046   3.130  27.581  0.00  0.00    +0.211 HD
ENDBRANCH  15   5
BRANCH  18   6
ATOM      6  O   UNL     1      -2.148   6.762  25.426  0.00  0.00    -0.388 OA
ATOM     40  H   UNL     1      -1.315   7.247  25.302  0.00  0.00    +0.210 HD
ENDBRANCH  18   6
BRANCH  20   7
ATOM      7  O   UNL     1       0.165   5.882  23.900  0.00  0.00    -0.389 OA
ATOM     41  H   UNL     1       0.514   6.700  24.293  0.00  0.00    +0.210 HD
ENDBRANCH  20   7
BRANCH  16  12
ATOM     12  N   UNL     1      -4.156   4.698  25.800  0.00  0.00    -0.184 NA
ATOM     38  H   UNL     1      -4.496   5.667  25.798  0.00  0.00    +0.148 HD
BRANCH  12   1
ATOM      1  S   UNL     1      -5.219   3.400  26.033  0.00  0.00    +0.059 S 
ATOM      9  O   UNL     1      -6.555   3.785  25.619  0.00  0.00    -0.153 OA
ATOM     10  O   UNL     1      -4.995   2.851  27.357  0.00  0.00    -0.153 OA
BRANCH   1  23
ATOM     23  C   UNL     1      -4.610   2.213  24.874  0.00  0.00    +0.106 A 
ATOM     26  C   UNL     1      -3.908   2.636  23.745  0.00  0.00    +0.041 A 
ATOM     27  C   UNL     1      -4.831   0.852  25.088  0.00  0.00    +0.028 A 
ATOM     29  C   UNL     1      -3.426   1.698  22.832  0.00  0.00    +0.057 A 
ATOM     30  C   UNL     1      -4.349  -0.085  24.175  0.00  0.00    +0.002 A 
ATOM     31  C   UNL     1      -3.647   0.338  23.046  0.00  0.00    +0.012 A 
BRANCH  29  34
ATOM      2  F   UNL     1      -2.331   1.134  20.781  0.00  0.00    -0.166 F 
ATOM      3  F   UNL     1      -3.367   3.038  20.851  0.00  0.00    -0.166 F 
ATOM      4  F   UNL     1      -1.503   2.777  21.940  0.00  0.00    -0.166 F 
ATOM     34  C   UNL     1      -2.674   2.151  21.625  0.00  0.00    +0.417 C 
ENDBRANCH  29  34
ENDBRANCH   1  23
ENDBRANCH  12   1
ENDBRANCH  16  12
TORSDOF 12
ENDMDL
MODEL 7
REMARK VINA RESULT:       1.9      2.568      4.336
REMARK  Name = 7134495
REMARK  12 active torsions:
REMARK  status: ('A' for Active; 'I' for Inactive)
REMARK    1  A    between atoms: S_1  and  N_12
REMARK    2  A    between atoms: S_1  and  C_23
REMARK    3  A    between atoms: O_5  and  C_15
REMARK    4  A    between atoms: O_6  and  C_18
REMARK    5  A    between atoms: O_7  and  C_20
REMARK    6  A    between atoms: N_12  and  C_16
REMARK    7  A    between atoms: N_13  and  C_22
REMARK    8  A    between atoms: C_15  and  C_21
REMARK    9  A    between atoms: C_22  and  C_24
REMARK   10  A    between atoms: C_22  and  C_25
REMARK   11  A    between atoms: C_24  and  C_28
REMARK   12  A    between atoms: C_29  and  C_34
REMARK                            x       y       z     vdW  Elec       q    Type
REMARK                         _______ _______ _______ _____ _____    ______ ____
ROOT
ATOM     15  C   UNL     1      -3.543   0.542  24.661  0.00  0.00    +0.145 C 
ATOM     16  C   UNL     1      -4.286   2.913  24.151  0.00  0.00    +0.111 C 
ATOM     17  C   UNL     1      -3.095   1.968  24.333  0.00  0.00    +0.067 C 
ATOM     18  C   UNL     1      -5.241   2.884  25.350  0.00  0.00    +0.162 C 
ATOM     19  C   UNL     1      -4.474   0.521  25.872  0.00  0.00    +0.078 C 
ATOM     20  C   UNL     1      -5.672   1.455  25.698  0.00  0.00    +0.148 C 
ENDROOT
BRANCH  15  21
ATOM      8  O   UNL     1      -2.389  -1.260  25.721  0.00  0.00    -0.273 OA
ATOM     13  N   UNL     1      -1.266   0.018  24.133  0.00  0.00    -0.301 N 
ATOM     21  C   UNL     1      -2.356  -0.344  24.904  0.00  0.00    +0.245 C 
ATOM     42  H   UNL     1      -1.365   0.744  23.431  0.00  0.00    +0.150 HD
BRANCH  13  22
ATOM     22  C   UNL     1       0.008  -0.661  24.196  0.00  0.00    +0.163 C 
BRANCH  22  25
ATOM     11  O   UNL     1      -0.964  -2.869  23.897  0.00  0.00    -0.274 OA
ATOM     14  N   UNL     1       0.368  -2.495  25.731  0.00  0.00    -0.328 N 
ATOM     25  C   UNL     1      -0.274  -2.109  24.573  0.00  0.00    +0.231 C 
ATOM     43  H   UNL     1       0.276  -3.441  26.087  0.00  0.00    +0.145 HD
ATOM     44  H   UNL     1       0.955  -1.863  26.266  0.00  0.00    +0.145 HD
ENDBRANCH  22  25
BRANCH  22  24
ATOM     24  C   UNL     1       0.769  -0.594  22.867  0.00  0.00    +0.067 C 
BRANCH  24  28
ATOM     28  C   UNL     1       2.248  -0.361  23.053  0.00  0.00    -0.045 A 
ATOM     32  C   UNL     1       2.816   0.852  22.663  0.00  0.00    +0.004 A 
ATOM     33  C   UNL     1       3.047  -1.358  23.613  0.00  0.00    +0.004 A 
ATOM     35  C   UNL     1       4.184   1.069  22.834  0.00  0.00    +0.000 A 
ATOM     36  C   UNL     1       4.415  -1.141  23.784  0.00  0.00    +0.000 A 
ATOM     37  C   UNL     1       4.983   0.072  23.395  0.00  0.00    +0.000 A 
ENDBRANCH  24  28
ENDBRANCH  22  24
ENDBRANCH  13  22
ENDBRANCH  15  21
BRANCH  15   5
ATOM      5  O   UNL     1      -4.214  -0.037  23.548  0.00  0.00    -0.379 OA
ATOM     39  H   UNL     1      -5.112   0.327  23.494  0.00  0.00    +0.211 HD
ENDBRANCH  15   5
BRANCH  18   6
ATOM      6  O   UNL     1      -6.403   3.643  25.007  0.00  0.00    -0.388 OA
ATOM     40  H   UNL     1      -6.181   4.586  25.084  0.00  0.00    +0.210 HD
ENDBRANCH  18   6
BRANCH  20   7
ATOM      7  O   UNL     1      -6.398   1.459  26.926  0.00  0.00    -0.389 OA
ATOM     41  H   UNL     1      -7.330   1.640  26.717  0.00  0.00    +0.210 HD
ENDBRANCH  20   7
BRANCH  16  12
ATOM     12  N   UNL     1      -3.769   4.297  23.974  0.00  0.00    -0.184 NA
ATOM     38  H   UNL     1      -3.740   4.674  23.018  0.00  0.00    +0.148 HD
BRANCH  12   1
ATOM      1  S   UNL     1      -2.912   5.041  25.231  0.00  0.00    +0.059 S 
ATOM      9  O   UNL     1      -3.659   4.919  26.469  0.00  0.00    -0.153 OA
ATOM     10  O   UNL     1      -2.460   6.343  24.777  0.00  0.00    -0.153 OA
BRANCH   1  23
ATOM     23  C   UNL     1      -1.478   4.014  25.356  0.00  0.00    +0.106 A 
ATOM     26  C   UNL     1      -1.061   3.547  26.602  0.00  0.00    +0.041 A 
ATOM     27  C   UNL     1      -0.764   3.671  24.208  0.00  0.00    +0.028 A 
ATOM     29  C   UNL     1       0.070   2.736  26.700  0.00  0.00    +0.057 A 
ATOM     30  C   UNL     1       0.367   2.860  24.306  0.00  0.00    +0.002 A 
ATOM     31  C   UNL     1       0.784   2.393  25.552  0.00  0.00    +0.012 A 
BRANCH  29  34
ATOM      2  F   UNL     1       1.854   2.392  28.257  0.00  0.00    -0.166 F 
ATOM      3  F   UNL     1      -0.095   2.861  29.084  0.00  0.00    -0.166 F 
ATOM      4  F   UNL     1       0.268   0.905  28.204  0.00  0.00    -0.166 F 
ATOM     34  C   UNL     1       0.516   2.236  28.033  0.00  0.00    +0.417 C 
ENDBRANCH  29  34
ENDBRANCH   1  23
ENDBRANCH  12   1
ENDBRANCH  16  12
TORSDOF 12
ENDMDL
MODEL 8
REMARK VINA RESULT:       1.9      3.331      5.998
REMARK  Name = 7134495
REMARK  12 active torsions:
REMARK  status: ('A' for Active; 'I' for Inactive)
REMARK    1  A    between atoms: S_1  and  N_12
REMARK    2  A    between atoms: S_1  and  C_23
REMARK    3  A    between atoms: O_5  and  C_15
REMARK    4  A    between atoms: O_6  and  C_18
REMARK    5  A    between atoms: O_7  and  C_20
REMARK    6  A    between atoms: N_12  and  C_16
REMARK    7  A    between atoms: N_13  and  C_22
REMARK    8  A    between atoms: C_15  and  C_21
REMARK    9  A    between atoms: C_22  and  C_24
REMARK   10  A    between atoms: C_22  and  C_25
REMARK   11  A    between atoms: C_24  and  C_28
REMARK   12  A    between atoms: C_29  and  C_34
REMARK                            x       y       z     vdW  Elec       q    Type
REMARK                         _______ _______ _______ _____ _____    ______ ____
ROOT
ATOM     15  C   UNL     1      -4.134   2.841  24.530  0.00  0.00    +0.145 C 
ATOM     16  C   UNL     1      -1.804   3.785  24.191  0.00  0.00    +0.111 C 
ATOM     17  C   UNL     1      -2.659   2.519  24.284  0.00  0.00    +0.067 C 
ATOM     18  C   UNL     1      -1.985   4.699  25.409  0.00  0.00    +0.162 C 
ATOM     19  C   UNL     1      -4.306   3.732  25.760  0.00  0.00    +0.078 C 
ATOM     20  C   UNL     1      -3.463   5.005  25.675  0.00  0.00    +0.148 C 
ENDROOT
BRANCH  15  21
ATOM      8  O   UNL     1      -6.161   1.592  24.713  0.00  0.00    -0.273 OA
ATOM     13  N   UNL     1      -4.129   0.464  24.820  0.00  0.00    -0.301 N 
ATOM     21  C   UNL     1      -4.934   1.581  24.688  0.00  0.00    +0.245 C 
ATOM     42  H   UNL     1      -3.124   0.551  24.709  0.00  0.00    +0.150 HD
BRANCH  13  22
ATOM     22  C   UNL     1      -4.652  -0.870  25.008  0.00  0.00    +0.163 C 
BRANCH  22  25
ATOM     11  O   UNL     1      -5.043  -2.688  23.443  0.00  0.00    -0.274 OA
ATOM     14  N   UNL     1      -3.874  -0.847  22.719  0.00  0.00    -0.328 N 
ATOM     25  C   UNL     1      -4.546  -1.587  23.670  0.00  0.00    +0.231 C 
ATOM     43  H   UNL     1      -3.745  -1.204  21.778  0.00  0.00    +0.145 HD
ATOM     44  H   UNL     1      -3.490   0.072  22.914  0.00  0.00    +0.145 HD
ENDBRANCH  22  25
BRANCH  22  24
ATOM     24  C   UNL     1      -3.891  -1.645  26.090  0.00  0.00    +0.067 C 
BRANCH  24  28
ATOM     28  C   UNL     1      -2.438  -1.857  25.741  0.00  0.00    -0.045 A 
ATOM     32  C   UNL     1      -2.092  -2.648  24.645  0.00  0.00    +0.004 A 
ATOM     33  C   UNL     1      -1.441  -1.264  26.516  0.00  0.00    +0.004 A 
ATOM     35  C   UNL     1      -0.749  -2.845  24.323  0.00  0.00    +0.000 A 
ATOM     36  C   UNL     1      -0.098  -1.460  26.193  0.00  0.00    +0.000 A 
ATOM     37  C   UNL     1       0.248  -2.250  25.097  0.00  0.00    +0.000 A 
ENDBRANCH  24  28
ENDBRANCH  22  24
ENDBRANCH  13  22
ENDBRANCH  15  21
BRANCH  15   5
ATOM      5  O   UNL     1      -4.696   3.496  23.400  0.00  0.00    -0.379 OA
ATOM     39  H   UNL     1      -4.015   3.585  22.713  0.00  0.00    +0.211 HD
ENDBRANCH  15   5
BRANCH  18   6
ATOM      6  O   UNL     1      -1.303   5.928  25.143  0.00  0.00    -0.388 OA
ATOM     40  H   UNL     1      -0.349   5.773  25.250  0.00  0.00    +0.210 HD
ENDBRANCH  18   6
BRANCH  20   7
ATOM      7  O   UNL     1      -3.594   5.693  26.918  0.00  0.00    -0.389 OA
ATOM     41  H   UNL     1      -4.458   5.456  27.297  0.00  0.00    +0.210 HD
ENDBRANCH  20   7
BRANCH  16  12
ATOM     12  N   UNL     1      -0.374   3.386  24.091  0.00  0.00    -0.184 NA
ATOM     38  H   UNL     1       0.159   3.732  23.284  0.00  0.00    +0.148 HD
BRANCH  12   1
ATOM      1  S   UNL     1       0.210   2.112  25.042  0.00  0.00    +0.059 S 
ATOM      9  O   UNL     1      -0.901   1.309  25.517  0.00  0.00    -0.153 OA
ATOM     10  O   UNL     1       1.181   2.644  25.981  0.00  0.00    -0.153 OA
BRANCH   1  23
ATOM     23  C   UNL     1       1.111   1.153  23.860  0.00  0.00    +0.106 A 
ATOM     26  C   UNL     1       2.501   1.080  23.936  0.00  0.00    +0.041 A 
ATOM     27  C   UNL     1       0.430   0.470  22.853  0.00  0.00    +0.028 A 
ATOM     29  C   UNL     1       3.211   0.322  23.004  0.00  0.00    +0.057 A 
ATOM     30  C   UNL     1       1.140  -0.287  21.921  0.00  0.00    +0.002 A 
ATOM     31  C   UNL     1       2.530  -0.361  21.997  0.00  0.00    +0.012 A 
BRANCH  29  34
ATOM      2  F   UNL     1       5.311   0.181  21.866  0.00  0.00    -0.166 F 
ATOM      3  F   UNL     1       5.270   1.312  23.715  0.00  0.00    -0.166 F 
ATOM      4  F   UNL     1       5.129  -0.857  23.769  0.00  0.00    -0.166 F 
ATOM     34  C   UNL     1       4.699   0.243  23.086  0.00  0.00    +0.417 C 
ENDBRANCH  29  34
ENDBRANCH   1  23
ENDBRANCH  12   1
ENDBRANCH  16  12
TORSDOF 12
ENDMDL
