MODEL 1
REMARK VINA RESULT:      -3.5      0.000      0.000
REMARK  Name = 75536104
REMARK  10 active torsions:
REMARK  status: ('A' for Active; 'I' for Inactive)
REMARK    1  A    between atoms: O_1  and  C_8
REMARK    2  A    between atoms: O_2  and  C_10
REMARK    3  A    between atoms: O_3  and  C_18
REMARK    4  A    between atoms: O_3  and  C_24
REMARK    5  A    between atoms: O_4  and  C_21
REMARK    6  A    between atoms: O_4  and  C_25
REMARK    7  A    between atoms: N_5  and  C_6
REMARK    8  A    between atoms: N_5  and  C_12
REMARK    9  A    between atoms: C_7  and  C_11
REMARK   10  A    between atoms: C_12  and  C_15
REMARK                            x       y       z     vdW  Elec       q    Type
REMARK                         _______ _______ _______ _____ _____    ______ ____
ROOT
ATOM      6  C   UNL     1      -3.109   3.371  25.399  0.00  0.00    +0.092 C 
ATOM      7  C   UNL     1      -4.006   2.699  24.313  0.00  0.00    +0.041 C 
ATOM      8  C   UNL     1      -4.065   4.249  26.223  0.00  0.00    +0.160 C 
ATOM      9  C   UNL     1      -5.430   3.237  24.553  0.00  0.00    +0.043 C 
ATOM     10  C   UNL     1      -5.198   4.568  25.253  0.00  0.00    +0.145 C 
ENDROOT
BRANCH   7  11
ATOM     11  C   UNL     1      -3.933   1.188  24.300  0.00  0.00    -0.042 A 
ATOM     13  C   UNL     1      -4.347   0.461  25.416  0.00  0.00    +0.007 A 
ATOM     14  C   UNL     1      -3.452   0.522  23.172  0.00  0.00    +0.007 A 
ATOM     16  C   UNL     1      -4.279  -0.933  25.405  0.00  0.00    +0.046 A 
ATOM     17  C   UNL     1      -3.385  -0.871  23.162  0.00  0.00    +0.046 A 
ATOM     18  C   UNL     1      -3.799  -1.598  24.278  0.00  0.00    +0.120 A 
BRANCH  18   3
ATOM      3  O   UNL     1      -3.733  -2.958  24.267  0.00  0.00    -0.495 OA
ATOM     24  C   UNL     1      -2.434  -3.545  24.214  0.00  0.00    +0.277 C 
ENDBRANCH  18   3
ENDBRANCH   7  11
BRANCH   8   1
ATOM      1  O   UNL     1      -4.544   3.481  27.325  0.00  0.00    -0.388 OA
ATOM     27  H   UNL     1      -5.432   3.161  27.093  0.00  0.00    +0.210 HD
ENDBRANCH   8   1
BRANCH  10   2
ATOM      2  O   UNL     1      -6.367   5.017  25.910  0.00  0.00    -0.389 OA
ATOM     28  H   UNL     1      -7.042   4.323  25.812  0.00  0.00    +0.210 HD
ENDBRANCH  10   2
BRANCH   6   5
ATOM      5  N   UNL     1      -2.097   4.207  24.751  0.00  0.00    -0.306 NA
ATOM     26  H   UNL     1      -2.234   5.179  25.032  0.00  0.00    +0.123 HD
BRANCH   5  12
ATOM     12  C   UNL     1      -0.756   3.796  25.141  0.00  0.00    +0.116 C 
BRANCH  12  15
ATOM     15  C   UNL     1      -0.558   2.311  24.989  0.00  0.00    -0.030 A 
ATOM     19  C   UNL     1       0.041   1.801  23.838  0.00  0.00    +0.050 A 
ATOM     20  C   UNL     1      -0.973   1.446  26.002  0.00  0.00    +0.005 A 
ATOM     21  C   UNL     1       0.224   0.425  23.698  0.00  0.00    +0.120 A 
ATOM     22  C   UNL     1      -0.790   0.070  25.862  0.00  0.00    +0.004 A 
ATOM     23  C   UNL     1      -0.191  -0.440  24.710  0.00  0.00    +0.045 A 
BRANCH  21   4
ATOM      4  O   UNL     1       0.809  -0.073  22.574  0.00  0.00    -0.495 OA
ATOM     25  C   UNL     1       2.220   0.092  22.449  0.00  0.00    +0.277 C 
ENDBRANCH  21   4
ENDBRANCH  12  15
ENDBRANCH   5  12
ENDBRANCH   6   5
TORSDOF 8
ENDMDL
MODEL 2
REMARK VINA RESULT:      -3.0      1.590      2.201
REMARK  Name = 75536104
REMARK  10 active torsions:
REMARK  status: ('A' for Active; 'I' for Inactive)
REMARK    1  A    between atoms: O_1  and  C_8
REMARK    2  A    between atoms: O_2  and  C_10
REMARK    3  A    between atoms: O_3  and  C_18
REMARK    4  A    between atoms: O_3  and  C_24
REMARK    5  A    between atoms: O_4  and  C_21
REMARK    6  A    between atoms: O_4  and  C_25
REMARK    7  A    between atoms: N_5  and  C_6
REMARK    8  A    between atoms: N_5  and  C_12
REMARK    9  A    between atoms: C_7  and  C_11
REMARK   10  A    between atoms: C_12  and  C_15
REMARK                            x       y       z     vdW  Elec       q    Type
REMARK                         _______ _______ _______ _____ _____    ______ ____
ROOT
ATOM      6  C   UNL     1      -3.916   2.496  24.401  0.00  0.00    +0.092 C 
ATOM      7  C   UNL     1      -4.585   1.088  24.479  0.00  0.00    +0.041 C 
ATOM      8  C   UNL     1      -4.647   3.347  25.452  0.00  0.00    +0.160 C 
ATOM      9  C   UNL     1      -5.678   1.202  25.559  0.00  0.00    +0.043 C 
ATOM     10  C   UNL     1      -6.017   2.686  25.573  0.00  0.00    +0.145 C 
ENDROOT
BRANCH   7  11
ATOM     11  C   UNL     1      -3.612  -0.043  24.731  0.00  0.00    -0.042 A 
ATOM     13  C   UNL     1      -2.574   0.121  25.649  0.00  0.00    +0.007 A 
ATOM     14  C   UNL     1      -3.753  -1.250  24.047  0.00  0.00    +0.007 A 
ATOM     16  C   UNL     1      -1.677  -0.921  25.883  0.00  0.00    +0.046 A 
ATOM     17  C   UNL     1      -2.856  -2.293  24.280  0.00  0.00    +0.046 A 
ATOM     18  C   UNL     1      -1.818  -2.128  25.198  0.00  0.00    +0.120 A 
BRANCH  18   3
ATOM      3  O   UNL     1      -0.943  -3.145  25.425  0.00  0.00    -0.495 OA
ATOM     24  C   UNL     1       0.439  -2.805  25.514  0.00  0.00    +0.277 C 
ENDBRANCH  18   3
ENDBRANCH   7  11
BRANCH   8   1
ATOM      1  O   UNL     1      -3.931   3.254  26.682  0.00  0.00    -0.388 OA
ATOM     27  H   UNL     1      -4.577   3.064  27.383  0.00  0.00    +0.210 HD
ENDBRANCH   8   1
BRANCH  10   2
ATOM      2  O   UNL     1      -6.694   3.049  26.759  0.00  0.00    -0.389 OA
ATOM     28  H   UNL     1      -6.472   3.977  26.950  0.00  0.00    +0.210 HD
ENDBRANCH  10   2
BRANCH   6   5
ATOM      5  N   UNL     1      -4.124   3.065  23.068  0.00  0.00    -0.306 NA
ATOM     26  H   UNL     1      -4.248   4.075  23.149  0.00  0.00    +0.123 HD
BRANCH   5  12
ATOM     12  C   UNL     1      -2.979   2.805  22.208  0.00  0.00    +0.116 C 
BRANCH  12  15
ATOM     15  C   UNL     1      -1.751   2.445  23.002  0.00  0.00    -0.030 A 
ATOM     19  C   UNL     1      -1.057   1.268  22.720  0.00  0.00    +0.050 A 
ATOM     20  C   UNL     1      -1.308   3.291  24.020  0.00  0.00    +0.005 A 
ATOM     21  C   UNL     1       0.080   0.936  23.457  0.00  0.00    +0.120 A 
ATOM     22  C   UNL     1      -0.170   2.958  24.755  0.00  0.00    +0.004 A 
ATOM     23  C   UNL     1       0.523   1.781  24.474  0.00  0.00    +0.045 A 
BRANCH  21   4
ATOM      4  O   UNL     1       0.757  -0.213  23.181  0.00  0.00    -0.495 OA
ATOM     25  C   UNL     1       2.004  -0.084  22.501  0.00  0.00    +0.277 C 
ENDBRANCH  21   4
ENDBRANCH  12  15
ENDBRANCH   5  12
ENDBRANCH   6   5
TORSDOF 8
ENDMDL
MODEL 3
REMARK VINA RESULT:      -3.0      1.760      4.359
REMARK  Name = 75536104
REMARK  10 active torsions:
REMARK  status: ('A' for Active; 'I' for Inactive)
REMARK    1  A    between atoms: O_1  and  C_8
REMARK    2  A    between atoms: O_2  and  C_10
REMARK    3  A    between atoms: O_3  and  C_18
REMARK    4  A    between atoms: O_3  and  C_24
REMARK    5  A    between atoms: O_4  and  C_21
REMARK    6  A    between atoms: O_4  and  C_25
REMARK    7  A    between atoms: N_5  and  C_6
REMARK    8  A    between atoms: N_5  and  C_12
REMARK    9  A    between atoms: C_7  and  C_11
REMARK   10  A    between atoms: C_12  and  C_15
REMARK                            x       y       z     vdW  Elec       q    Type
REMARK                         _______ _______ _______ _____ _____    ______ ____
ROOT
ATOM      6  C   UNL     1      -3.471   2.484  24.146  0.00  0.00    +0.092 C 
ATOM      7  C   UNL     1      -2.312   2.045  25.094  0.00  0.00    +0.041 C 
ATOM      8  C   UNL     1      -3.777   3.940  24.534  0.00  0.00    +0.160 C 
ATOM      9  C   UNL     1      -2.018   3.262  25.992  0.00  0.00    +0.043 C 
ATOM     10  C   UNL     1      -3.330   4.034  25.990  0.00  0.00    +0.145 C 
ENDROOT
BRANCH   7  11
ATOM     11  C   UNL     1      -1.087   1.527  24.371  0.00  0.00    -0.042 A 
ATOM     13  C   UNL     1       0.181   1.977  24.738  0.00  0.00    +0.007 A 
ATOM     14  C   UNL     1      -1.226   0.599  23.338  0.00  0.00    +0.007 A 
ATOM     16  C   UNL     1       1.311   1.501  24.072  0.00  0.00    +0.046 A 
ATOM     17  C   UNL     1      -0.097   0.123  22.673  0.00  0.00    +0.046 A 
ATOM     18  C   UNL     1       1.171   0.573  23.040  0.00  0.00    +0.120 A 
BRANCH  18   3
ATOM      3  O   UNL     1       2.273   0.109  22.390  0.00  0.00    -0.495 OA
ATOM     24  C   UNL     1       3.518   0.737  22.690  0.00  0.00    +0.277 C 
ENDBRANCH  18   3
ENDBRANCH   7  11
BRANCH   8   1
ATOM      1  O   UNL     1      -2.993   4.800  23.709  0.00  0.00    -0.388 OA
ATOM     27  H   UNL     1      -3.598   5.238  23.087  0.00  0.00    +0.210 HD
ENDBRANCH   8   1
BRANCH  10   2
ATOM      2  O   UNL     1      -3.144   5.368  26.418  0.00  0.00    -0.389 OA
ATOM     28  H   UNL     1      -2.515   5.787  25.805  0.00  0.00    +0.210 HD
ENDBRANCH  10   2
BRANCH   6   5
ATOM      5  N   UNL     1      -4.647   1.647  24.388  0.00  0.00    -0.306 NA
ATOM     26  H   UNL     1      -4.860   1.115  23.544  0.00  0.00    +0.123 HD
BRANCH   5  12
ATOM     12  C   UNL     1      -4.404   0.712  25.477  0.00  0.00    +0.116 C 
BRANCH  12  15
ATOM     15  C   UNL     1      -3.935  -0.627  24.973  0.00  0.00    -0.030 A 
ATOM     19  C   UNL     1      -2.743  -1.174  25.448  0.00  0.00    +0.050 A 
ATOM     20  C   UNL     1      -4.694  -1.321  24.030  0.00  0.00    +0.005 A 
ATOM     21  C   UNL     1      -2.309  -2.415  24.980  0.00  0.00    +0.120 A 
ATOM     22  C   UNL     1      -4.260  -2.562  23.563  0.00  0.00    +0.004 A 
ATOM     23  C   UNL     1      -3.068  -3.108  24.037  0.00  0.00    +0.045 A 
BRANCH  21   4
ATOM      4  O   UNL     1      -1.146  -2.948  25.444  0.00  0.00    -0.495 OA
ATOM     25  C   UNL     1       0.002  -2.099  25.445  0.00  0.00    +0.277 C 
ENDBRANCH  21   4
ENDBRANCH  12  15
ENDBRANCH   5  12
ENDBRANCH   6   5
TORSDOF 8
ENDMDL
MODEL 4
REMARK VINA RESULT:      -2.9      2.077      5.684
REMARK  Name = 75536104
REMARK  10 active torsions:
REMARK  status: ('A' for Active; 'I' for Inactive)
REMARK    1  A    between atoms: O_1  and  C_8
REMARK    2  A    between atoms: O_2  and  C_10
REMARK    3  A    between atoms: O_3  and  C_18
REMARK    4  A    between atoms: O_3  and  C_24
REMARK    5  A    between atoms: O_4  and  C_21
REMARK    6  A    between atoms: O_4  and  C_25
REMARK    7  A    between atoms: N_5  and  C_6
REMARK    8  A    between atoms: N_5  and  C_12
REMARK    9  A    between atoms: C_7  and  C_11
REMARK   10  A    between atoms: C_12  and  C_15
REMARK                            x       y       z     vdW  Elec       q    Type
REMARK                         _______ _______ _______ _____ _____    ______ ____
ROOT
ATOM      6  C   UNL     1      -2.938  -0.119  24.608  0.00  0.00    +0.092 C 
ATOM      7  C   UNL     1      -1.944  -0.892  23.688  0.00  0.00    +0.041 C 
ATOM      8  C   UNL     1      -3.391  -1.143  25.662  0.00  0.00    +0.160 C 
ATOM      9  C   UNL     1      -1.886  -2.328  24.245  0.00  0.00    +0.043 C 
ATOM     10  C   UNL     1      -3.218  -2.489  24.964  0.00  0.00    +0.145 C 
ENDROOT
BRANCH   7  11
ATOM     11  C   UNL     1      -0.582  -0.243  23.568  0.00  0.00    -0.042 A 
ATOM     13  C   UNL     1       0.386  -0.803  22.733  0.00  0.00    +0.007 A 
ATOM     14  C   UNL     1      -0.295   0.915  24.290  0.00  0.00    +0.007 A 
ATOM     16  C   UNL     1       1.641  -0.206  22.622  0.00  0.00    +0.046 A 
ATOM     17  C   UNL     1       0.960   1.512  24.178  0.00  0.00    +0.046 A 
ATOM     18  C   UNL     1       1.928   0.953  23.344  0.00  0.00    +0.120 A 
BRANCH  18   3
ATOM      3  O   UNL     1       3.153   1.536  23.236  0.00  0.00    -0.495 OA
ATOM     24  C   UNL     1       4.249   0.687  22.902  0.00  0.00    +0.277 C 
ENDBRANCH  18   3
ENDBRANCH   7  11
BRANCH   8   1
ATOM      1  O   UNL     1      -2.523  -1.043  26.789  0.00  0.00    -0.388 OA
ATOM     27  H   UNL     1      -1.684  -0.663  26.478  0.00  0.00    +0.210 HD
ENDBRANCH   8   1
BRANCH  10   2
ATOM      2  O   UNL     1      -3.188  -3.572  25.870  0.00  0.00    -0.389 OA
ATOM     28  H   UNL     1      -3.907  -4.180  25.625  0.00  0.00    +0.210 HD
ENDBRANCH  10   2
BRANCH   6   5
ATOM      5  N   UNL     1      -4.089   0.329  23.821  0.00  0.00    -0.306 NA
ATOM     26  H   UNL     1      -4.911   0.374  24.424  0.00  0.00    +0.123 HD
BRANCH   5  12
ATOM     12  C   UNL     1      -3.852   1.651  23.260  0.00  0.00    +0.116 C 
BRANCH  12  15
ATOM     15  C   UNL     1      -3.700   2.697  24.333  0.00  0.00    -0.030 A 
ATOM     19  C   UNL     1      -2.593   3.545  24.329  0.00  0.00    +0.050 A 
ATOM     20  C   UNL     1      -4.668   2.817  25.331  0.00  0.00    +0.005 A 
ATOM     21  C   UNL     1      -2.453   4.514  25.323  0.00  0.00    +0.120 A 
ATOM     22  C   UNL     1      -4.527   3.786  26.324  0.00  0.00    +0.004 A 
ATOM     23  C   UNL     1      -3.420   4.634  26.321  0.00  0.00    +0.045 A 
BRANCH  21   4
ATOM      4  O   UNL     1      -1.372   5.341  25.319  0.00  0.00    -0.495 OA
ATOM     25  C   UNL     1      -0.242   4.928  24.553  0.00  0.00    +0.277 C 
ENDBRANCH  21   4
ENDBRANCH  12  15
ENDBRANCH   5  12
ENDBRANCH   6   5
TORSDOF 8
ENDMDL
MODEL 5
REMARK VINA RESULT:      -2.9      2.073      6.151
REMARK  Name = 75536104
REMARK  10 active torsions:
REMARK  status: ('A' for Active; 'I' for Inactive)
REMARK    1  A    between atoms: O_1  and  C_8
REMARK    2  A    between atoms: O_2  and  C_10
REMARK    3  A    between atoms: O_3  and  C_18
REMARK    4  A    between atoms: O_3  and  C_24
REMARK    5  A    between atoms: O_4  and  C_21
REMARK    6  A    between atoms: O_4  and  C_25
REMARK    7  A    between atoms: N_5  and  C_6
REMARK    8  A    between atoms: N_5  and  C_12
REMARK    9  A    between atoms: C_7  and  C_11
REMARK   10  A    between atoms: C_12  and  C_15
REMARK                            x       y       z     vdW  Elec       q    Type
REMARK                         _______ _______ _______ _____ _____    ______ ____
ROOT
ATOM      6  C   UNL     1       0.515  -0.101  24.210  0.00  0.00    +0.092 C 
ATOM      7  C   UNL     1      -0.582   0.193  23.140  0.00  0.00    +0.041 C 
ATOM      8  C   UNL     1       1.849  -0.034  23.448  0.00  0.00    +0.160 C 
ATOM      9  C   UNL     1       0.172   0.398  21.812  0.00  0.00    +0.043 C 
ATOM     10  C   UNL     1       1.468  -0.375  22.011  0.00  0.00    +0.145 C 
ENDROOT
BRANCH   7  11
ATOM     11  C   UNL     1      -1.494   1.347  23.493  0.00  0.00    -0.042 A 
ATOM     13  C   UNL     1      -2.622   1.608  22.715  0.00  0.00    +0.007 A 
ATOM     14  C   UNL     1      -1.208   2.151  24.597  0.00  0.00    +0.007 A 
ATOM     16  C   UNL     1      -3.463   2.672  23.040  0.00  0.00    +0.046 A 
ATOM     17  C   UNL     1      -2.049   3.215  24.922  0.00  0.00    +0.046 A 
ATOM     18  C   UNL     1      -3.177   3.475  24.143  0.00  0.00    +0.120 A 
BRANCH  18   3
ATOM      3  O   UNL     1      -3.998   4.513  24.460  0.00  0.00    -0.495 OA
ATOM     24  C   UNL     1      -4.926   4.306  25.523  0.00  0.00    +0.277 C 
ENDBRANCH  18   3
ENDBRANCH   7  11
BRANCH   8   1
ATOM      1  O   UNL     1       2.350   1.298  23.536  0.00  0.00    -0.388 OA
ATOM     27  H   UNL     1       2.404   1.528  24.479  0.00  0.00    +0.210 HD
ENDBRANCH   8   1
BRANCH  10   2
ATOM      2  O   UNL     1       2.453   0.020  21.078  0.00  0.00    -0.389 OA
ATOM     28  H   UNL     1       2.231   0.919  20.781  0.00  0.00    +0.210 HD
ENDBRANCH  10   2
BRANCH   6   5
ATOM      5  N   UNL     1       0.320  -1.446  24.756  0.00  0.00    -0.306 NA
ATOM     26  H   UNL     1       1.209  -1.794  25.119  0.00  0.00    +0.123 HD
BRANCH   5  12
ATOM     12  C   UNL     1      -0.649  -1.430  25.842  0.00  0.00    +0.116 C 
BRANCH  12  15
ATOM     15  C   UNL     1      -2.064  -1.351  25.330  0.00  0.00    -0.030 A 
ATOM     19  C   UNL     1      -2.905  -0.325  25.759  0.00  0.00    +0.050 A 
ATOM     20  C   UNL     1      -2.531  -2.305  24.425  0.00  0.00    +0.005 A 
ATOM     21  C   UNL     1      -4.215  -0.253  25.284  0.00  0.00    +0.120 A 
ATOM     22  C   UNL     1      -3.841  -2.232  23.951  0.00  0.00    +0.004 A 
ATOM     23  C   UNL     1      -4.683  -1.207  24.380  0.00  0.00    +0.045 A 
BRANCH  21   4
ATOM      4  O   UNL     1      -5.036   0.748  25.704  0.00  0.00    -0.495 OA
ATOM     25  C   UNL     1      -6.079   1.147  24.816  0.00  0.00    +0.277 C 
ENDBRANCH  21   4
ENDBRANCH  12  15
ENDBRANCH   5  12
ENDBRANCH   6   5
TORSDOF 8
ENDMDL
MODEL 6
REMARK VINA RESULT:      -2.2     19.016     20.506
REMARK  Name = 75536104
REMARK  10 active torsions:
REMARK  status: ('A' for Active; 'I' for Inactive)
REMARK    1  A    between atoms: O_1  and  C_8
REMARK    2  A    between atoms: O_2  and  C_10
REMARK    3  A    between atoms: O_3  and  C_18
REMARK    4  A    between atoms: O_3  and  C_24
REMARK    5  A    between atoms: O_4  and  C_21
REMARK    6  A    between atoms: O_4  and  C_25
REMARK    7  A    between atoms: N_5  and  C_6
REMARK    8  A    between atoms: N_5  and  C_12
REMARK    9  A    between atoms: C_7  and  C_11
REMARK   10  A    between atoms: C_12  and  C_15
REMARK                            x       y       z     vdW  Elec       q    Type
REMARK                         _______ _______ _______ _____ _____    ______ ____
ROOT
ATOM      6  C   UNL     1      16.523  -3.676  26.117  0.00  0.00    +0.092 C 
ATOM      7  C   UNL     1      17.357  -4.690  25.275  0.00  0.00    +0.041 C 
ATOM      8  C   UNL     1      16.108  -2.576  25.127  0.00  0.00    +0.160 C 
ATOM      9  C   UNL     1      17.396  -4.117  23.845  0.00  0.00    +0.043 C 
ATOM     10  C   UNL     1      17.189  -2.623  24.051  0.00  0.00    +0.145 C 
ENDROOT
BRANCH   7  11
ATOM     11  C   UNL     1      16.842  -6.111  25.334  0.00  0.00    -0.042 A 
ATOM     13  C   UNL     1      15.832  -6.450  26.235  0.00  0.00    +0.007 A 
ATOM     14  C   UNL     1      17.377  -7.083  24.488  0.00  0.00    +0.007 A 
ATOM     16  C   UNL     1      15.357  -7.760  26.290  0.00  0.00    +0.046 A 
ATOM     17  C   UNL     1      16.902  -8.393  24.543  0.00  0.00    +0.046 A 
ATOM     18  C   UNL     1      15.891  -8.732  25.444  0.00  0.00    +0.120 A 
BRANCH  18   3
ATOM      3  O   UNL     1      15.428 -10.010  25.498  0.00  0.00    -0.495 OA
ATOM     24  C   UNL     1      15.206 -10.566  26.792  0.00  0.00    +0.277 C 
ENDBRANCH  18   3
ENDBRANCH   7  11
BRANCH   8   1
ATOM      1  O   UNL     1      14.836  -2.920  24.580  0.00  0.00    -0.388 OA
ATOM     27  H   UNL     1      14.991  -3.532  23.842  0.00  0.00    +0.210 HD
ENDBRANCH   8   1
BRANCH  10   2
ATOM      2  O   UNL     1      16.792  -1.987  22.853  0.00  0.00    -0.389 OA
ATOM     28  H   UNL     1      17.595  -1.821  22.330  0.00  0.00    +0.210 HD
ENDBRANCH  10   2
BRANCH   6   5
ATOM      5  N   UNL     1      17.364  -3.105  27.171  0.00  0.00    -0.306 NA
ATOM     26  H   UNL     1      16.981  -2.202  27.455  0.00  0.00    +0.123 HD
BRANCH   5  12
ATOM     12  C   UNL     1      17.403  -3.979  28.335  0.00  0.00    +0.116 C 
BRANCH  12  15
ATOM     15  C   UNL     1      16.891  -3.290  29.572  0.00  0.00    -0.030 A 
ATOM     19  C   UNL     1      15.982  -3.939  30.407  0.00  0.00    +0.050 A 
ATOM     20  C   UNL     1      17.327  -2.001  29.882  0.00  0.00    +0.005 A 
ATOM     21  C   UNL     1      15.508  -3.300  31.553  0.00  0.00    +0.120 A 
ATOM     22  C   UNL     1      16.852  -1.362  31.028  0.00  0.00    +0.004 A 
ATOM     23  C   UNL     1      15.943  -2.011  31.863  0.00  0.00    +0.045 A 
BRANCH  21   4
ATOM      4  O   UNL     1      14.621  -3.934  32.368  0.00  0.00    -0.495 OA
ATOM     25  C   UNL     1      13.781  -4.920  31.770  0.00  0.00    +0.277 C 
ENDBRANCH  21   4
ENDBRANCH  12  15
ENDBRANCH   5  12
ENDBRANCH   6   5
TORSDOF 8
ENDMDL
MODEL 7
REMARK VINA RESULT:      -2.1      1.969      6.183
REMARK  Name = 75536104
REMARK  10 active torsions:
REMARK  status: ('A' for Active; 'I' for Inactive)
REMARK    1  A    between atoms: O_1  and  C_8
REMARK    2  A    between atoms: O_2  and  C_10
REMARK    3  A    between atoms: O_3  and  C_18
REMARK    4  A    between atoms: O_3  and  C_24
REMARK    5  A    between atoms: O_4  and  C_21
REMARK    6  A    between atoms: O_4  and  C_25
REMARK    7  A    between atoms: N_5  and  C_6
REMARK    8  A    between atoms: N_5  and  C_12
REMARK    9  A    between atoms: C_7  and  C_11
REMARK   10  A    between atoms: C_12  and  C_15
REMARK                            x       y       z     vdW  Elec       q    Type
REMARK                         _______ _______ _______ _____ _____    ______ ____
ROOT
ATOM      6  C   UNL     1      -2.073   0.356  23.807  0.00  0.00    +0.092 C 
ATOM      7  C   UNL     1      -1.059  -0.623  23.137  0.00  0.00    +0.041 C 
ATOM      8  C   UNL     1      -2.750  -0.464  24.917  0.00  0.00    +0.160 C 
ATOM      9  C   UNL     1      -1.213  -1.963  23.882  0.00  0.00    +0.043 C 
ATOM     10  C   UNL     1      -2.631  -1.907  24.434  0.00  0.00    +0.145 C 
ENDROOT
BRANCH   7  11
ATOM     11  C   UNL     1       0.365  -0.114  23.112  0.00  0.00    -0.042 A 
ATOM     13  C   UNL     1       0.724   0.992  23.884  0.00  0.00    +0.007 A 
ATOM     14  C   UNL     1       1.320  -0.750  22.319  0.00  0.00    +0.007 A 
ATOM     16  C   UNL     1       2.037   1.462  23.862  0.00  0.00    +0.046 A 
ATOM     17  C   UNL     1       2.634  -0.280  22.298  0.00  0.00    +0.046 A 
ATOM     18  C   UNL     1       2.992   0.825  23.069  0.00  0.00    +0.120 A 
BRANCH  18   3
ATOM      3  O   UNL     1       4.273   1.284  23.048  0.00  0.00    -0.495 OA
ATOM     24  C   UNL     1       5.291   0.387  23.487  0.00  0.00    +0.277 C 
ENDBRANCH  18   3
ENDBRANCH   7  11
BRANCH   8   1
ATOM      1  O   UNL     1      -2.016  -0.275  26.126  0.00  0.00    -0.388 OA
ATOM     27  H   UNL     1      -1.751   0.660  26.163  0.00  0.00    +0.210 HD
ENDBRANCH   8   1
BRANCH  10   2
ATOM      2  O   UNL     1      -2.819  -2.846  25.472  0.00  0.00    -0.389 OA
ATOM     28  H   UNL     1      -3.770  -2.871  25.676  0.00  0.00    +0.210 HD
ENDBRANCH  10   2
BRANCH   6   5
ATOM      5  N   UNL     1      -3.071   0.779  22.822  0.00  0.00    -0.306 NA
ATOM     26  H   UNL     1      -3.997   0.486  23.135  0.00  0.00    +0.123 HD
BRANCH   5  12
ATOM     12  C   UNL     1      -3.068   2.226  22.669  0.00  0.00    +0.116 C 
BRANCH  12  15
ATOM     15  C   UNL     1      -3.268   2.930  23.985  0.00  0.00    -0.030 A 
ATOM     19  C   UNL     1      -4.465   2.775  24.685  0.00  0.00    +0.050 A 
ATOM     20  C   UNL     1      -2.255   3.736  24.505  0.00  0.00    +0.005 A 
ATOM     21  C   UNL     1      -4.649   3.427  25.905  0.00  0.00    +0.120 A 
ATOM     22  C   UNL     1      -2.440   4.388  25.724  0.00  0.00    +0.004 A 
ATOM     23  C   UNL     1      -3.637   4.234  26.424  0.00  0.00    +0.045 A 
BRANCH  21   4
ATOM      4  O   UNL     1      -5.817   3.275  26.587  0.00  0.00    -0.495 OA
ATOM     25  C   UNL     1      -6.430   1.988  26.548  0.00  0.00    +0.277 C 
ENDBRANCH  21   4
ENDBRANCH  12  15
ENDBRANCH   5  12
ENDBRANCH   6   5
TORSDOF 8
ENDMDL
MODEL 8
REMARK VINA RESULT:      -1.5     19.165     20.735
REMARK  Name = 75536104
REMARK  10 active torsions:
REMARK  status: ('A' for Active; 'I' for Inactive)
REMARK    1  A    between atoms: O_1  and  C_8
REMARK    2  A    between atoms: O_2  and  C_10
REMARK    3  A    between atoms: O_3  and  C_18
REMARK    4  A    between atoms: O_3  and  C_24
REMARK    5  A    between atoms: O_4  and  C_21
REMARK    6  A    between atoms: O_4  and  C_25
REMARK    7  A    between atoms: N_5  and  C_6
REMARK    8  A    between atoms: N_5  and  C_12
REMARK    9  A    between atoms: C_7  and  C_11
REMARK   10  A    between atoms: C_12  and  C_15
REMARK                            x       y       z     vdW  Elec       q    Type
REMARK                         _______ _______ _______ _____ _____    ______ ____
ROOT
ATOM      6  C   UNL     1      16.518  -3.652  26.134  0.00  0.00    +0.092 C 
ATOM      7  C   UNL     1      17.405  -4.564  25.230  0.00  0.00    +0.041 C 
ATOM      8  C   UNL     1      16.021  -2.529  25.209  0.00  0.00    +0.160 C 
ATOM      9  C   UNL     1      17.390  -3.913  23.833  0.00  0.00    +0.043 C 
ATOM     10  C   UNL     1      17.090  -2.449  24.123  0.00  0.00    +0.145 C 
ENDROOT
BRANCH   7  11
ATOM     11  C   UNL     1      16.982  -6.017  25.216  0.00  0.00    -0.042 A 
ATOM     13  C   UNL     1      17.369  -6.845  24.163  0.00  0.00    +0.007 A 
ATOM     14  C   UNL     1      16.207  -6.528  26.257  0.00  0.00    +0.007 A 
ATOM     16  C   UNL     1      16.980  -8.184  24.149  0.00  0.00    +0.046 A 
ATOM     17  C   UNL     1      15.818  -7.867  26.243  0.00  0.00    +0.046 A 
ATOM     18  C   UNL     1      16.205  -8.696  25.190  0.00  0.00    +0.120 A 
BRANCH  18   3
ATOM      3  O   UNL     1      15.825 -10.002  25.177  0.00  0.00    -0.495 OA
ATOM     24  C   UNL     1      16.023 -10.748  26.376  0.00  0.00    +0.277 C 
ENDBRANCH  18   3
ENDBRANCH   7  11
BRANCH   8   1
ATOM      1  O   UNL     1      14.767  -2.925  24.656  0.00  0.00    -0.388 OA
ATOM     27  H   UNL     1      14.250  -2.117  24.498  0.00  0.00    +0.210 HD
ENDBRANCH   8   1
BRANCH  10   2
ATOM      2  O   UNL     1      16.639  -1.775  22.965  0.00  0.00    -0.389 OA
ATOM     28  H   UNL     1      16.430  -0.861  23.221  0.00  0.00    +0.210 HD
ENDBRANCH  10   2
BRANCH   6   5
ATOM      5  N   UNL     1      17.334  -3.086  27.211  0.00  0.00    -0.306 NA
ATOM     26  H   UNL     1      16.925  -2.201  27.512  0.00  0.00    +0.123 HD
BRANCH   5  12
ATOM     12  C   UNL     1      17.383  -3.987  28.353  0.00  0.00    +0.116 C 
BRANCH  12  15
ATOM     15  C   UNL     1      17.011  -3.288  29.635  0.00  0.00    -0.030 A 
ATOM     19  C   UNL     1      17.384  -1.960  29.839  0.00  0.00    +0.050 A 
ATOM     20  C   UNL     1      16.293  -3.971  30.617  0.00  0.00    +0.005 A 
ATOM     21  C   UNL     1      17.038  -1.314  31.027  0.00  0.00    +0.120 A 
ATOM     22  C   UNL     1      15.948  -3.324  31.804  0.00  0.00    +0.004 A 
ATOM     23  C   UNL     1      16.321  -1.996  32.009  0.00  0.00    +0.045 A 
BRANCH  21   4
ATOM      4  O   UNL     1      17.403  -0.017  31.226  0.00  0.00    -0.495 OA
ATOM     25  C   UNL     1      16.707   0.703  32.242  0.00  0.00    +0.277 C 
ENDBRANCH  21   4
ENDBRANCH  12  15
ENDBRANCH   5  12
ENDBRANCH   6   5
TORSDOF 8
ENDMDL
MODEL 9
REMARK VINA RESULT:      -1.5      2.253      6.580
REMARK  Name = 75536104
REMARK  10 active torsions:
REMARK  status: ('A' for Active; 'I' for Inactive)
REMARK    1  A    between atoms: O_1  and  C_8
REMARK    2  A    between atoms: O_2  and  C_10
REMARK    3  A    between atoms: O_3  and  C_18
REMARK    4  A    between atoms: O_3  and  C_24
REMARK    5  A    between atoms: O_4  and  C_21
REMARK    6  A    between atoms: O_4  and  C_25
REMARK    7  A    between atoms: N_5  and  C_6
REMARK    8  A    between atoms: N_5  and  C_12
REMARK    9  A    between atoms: C_7  and  C_11
REMARK   10  A    between atoms: C_12  and  C_15
REMARK                            x       y       z     vdW  Elec       q    Type
REMARK                         _______ _______ _______ _____ _____    ______ ____
ROOT
ATOM      6  C   UNL     1      -2.040  -0.700  25.083  0.00  0.00    +0.092 C 
ATOM      7  C   UNL     1      -0.953   0.027  24.233  0.00  0.00    +0.041 C 
ATOM      8  C   UNL     1      -1.282  -1.786  25.864  0.00  0.00    +0.160 C 
ATOM      9  C   UNL     1       0.376  -0.686  24.552  0.00  0.00    +0.043 C 
ATOM     10  C   UNL     1      -0.059  -2.075  24.997  0.00  0.00    +0.145 C 
ENDROOT
BRANCH   7  11
ATOM     11  C   UNL     1      -0.896   1.523  24.454  0.00  0.00    -0.042 A 
ATOM     13  C   UNL     1      -0.377   2.355  23.461  0.00  0.00    +0.007 A 
ATOM     14  C   UNL     1      -1.362   2.070  25.649  0.00  0.00    +0.007 A 
ATOM     16  C   UNL     1      -0.324   3.734  23.664  0.00  0.00    +0.046 A 
ATOM     17  C   UNL     1      -1.309   3.449  25.852  0.00  0.00    +0.046 A 
ATOM     18  C   UNL     1      -0.790   4.281  24.859  0.00  0.00    +0.120 A 
BRANCH  18   3
ATOM      3  O   UNL     1      -0.739   5.626  25.057  0.00  0.00    -0.495 OA
ATOM     24  C   UNL     1      -1.975   6.337  25.018  0.00  0.00    +0.277 C 
ENDBRANCH  18   3
ENDBRANCH   7  11
BRANCH   8   1
ATOM      1  O   UNL     1      -0.891  -1.243  27.124  0.00  0.00    -0.388 OA
ATOM     27  H   UNL     1      -0.898  -0.275  27.040  0.00  0.00    +0.210 HD
ENDBRANCH   8   1
BRANCH  10   2
ATOM      2  O   UNL     1       0.968  -2.735  25.708  0.00  0.00    -0.389 OA
ATOM     28  H   UNL     1       1.398  -2.076  26.281  0.00  0.00    +0.210 HD
ENDBRANCH  10   2
BRANCH   6   5
ATOM      5  N   UNL     1      -3.024  -1.322  24.194  0.00  0.00    -0.306 NA
ATOM     26  H   UNL     1      -3.041  -2.328  24.363  0.00  0.00    +0.123 HD
BRANCH   5  12
ATOM     12  C   UNL     1      -4.356  -0.788  24.440  0.00  0.00    +0.116 C 
BRANCH  12  15
ATOM     15  C   UNL     1      -4.396   0.710  24.289  0.00  0.00    -0.030 A 
ATOM     19  C   UNL     1      -5.023   1.493  25.259  0.00  0.00    +0.050 A 
ATOM     20  C   UNL     1      -3.805   1.315  23.179  0.00  0.00    +0.005 A 
ATOM     21  C   UNL     1      -5.060   2.880  25.119  0.00  0.00    +0.120 A 
ATOM     22  C   UNL     1      -3.843   2.702  23.040  0.00  0.00    +0.004 A 
ATOM     23  C   UNL     1      -4.470   3.485  24.009  0.00  0.00    +0.045 A 
BRANCH  21   4
ATOM      4  O   UNL     1      -5.672   3.643  26.066  0.00  0.00    -0.495 OA
ATOM     25  C   UNL     1      -6.045   4.968  25.690  0.00  0.00    +0.277 C 
ENDBRANCH  21   4
ENDBRANCH  12  15
ENDBRANCH   5  12
ENDBRANCH   6   5
TORSDOF 8
ENDMDL
MODEL 10
REMARK VINA RESULT:      -1.4      2.276      4.418
REMARK  Name = 75536104
REMARK  10 active torsions:
REMARK  status: ('A' for Active; 'I' for Inactive)
REMARK    1  A    between atoms: O_1  and  C_8
REMARK    2  A    between atoms: O_2  and  C_10
REMARK    3  A    between atoms: O_3  and  C_18
REMARK    4  A    between atoms: O_3  and  C_24
REMARK    5  A    between atoms: O_4  and  C_21
REMARK    6  A    between atoms: O_4  and  C_25
REMARK    7  A    between atoms: N_5  and  C_6
REMARK    8  A    between atoms: N_5  and  C_12
REMARK    9  A    between atoms: C_7  and  C_11
REMARK   10  A    between atoms: C_12  and  C_15
REMARK                            x       y       z     vdW  Elec       q    Type
REMARK                         _______ _______ _______ _____ _____    ______ ____
ROOT
ATOM      6  C   UNL     1      -0.902   1.914  24.459  0.00  0.00    +0.092 C 
ATOM      7  C   UNL     1      -2.113   2.720  23.895  0.00  0.00    +0.041 C 
ATOM      8  C   UNL     1       0.106   2.977  24.926  0.00  0.00    +0.160 C 
ATOM      9  C   UNL     1      -1.738   4.207  24.049  0.00  0.00    +0.043 C 
ATOM     10  C   UNL     1      -0.215   4.193  24.062  0.00  0.00    +0.145 C 
ENDROOT
BRANCH   7  11
ATOM     11  C   UNL     1      -3.439   2.370  24.535  0.00  0.00    -0.042 A 
ATOM     13  C   UNL     1      -4.018   1.122  24.302  0.00  0.00    +0.007 A 
ATOM     14  C   UNL     1      -4.081   3.294  25.359  0.00  0.00    +0.007 A 
ATOM     16  C   UNL     1      -5.240   0.799  24.892  0.00  0.00    +0.046 A 
ATOM     17  C   UNL     1      -5.303   2.970  25.949  0.00  0.00    +0.046 A 
ATOM     18  C   UNL     1      -5.882   1.723  25.716  0.00  0.00    +0.120 A 
BRANCH  18   3
ATOM      3  O   UNL     1      -7.074   1.407  26.292  0.00  0.00    -0.495 OA
ATOM     24  C   UNL     1      -7.076   1.186  27.701  0.00  0.00    +0.277 C 
ENDBRANCH  18   3
ENDBRANCH   7  11
BRANCH   8   1
ATOM      1  O   UNL     1      -0.142   3.256  26.303  0.00  0.00    -0.388 OA
ATOM     27  H   UNL     1       0.715   3.246  26.761  0.00  0.00    +0.210 HD
ENDBRANCH   8   1
BRANCH  10   2
ATOM      2  O   UNL     1       0.307   5.393  24.595  0.00  0.00    -0.389 OA
ATOM     28  H   UNL     1       0.613   5.936  23.848  0.00  0.00    +0.210 HD
ENDBRANCH  10   2
BRANCH   6   5
ATOM      5  N   UNL     1      -0.312   1.104  23.391  0.00  0.00    -0.306 NA
ATOM     26  H   UNL     1       0.527   1.568  23.041  0.00  0.00    +0.123 HD
BRANCH   5  12
ATOM     12  C   UNL     1       0.059  -0.214  23.885  0.00  0.00    +0.116 C 
BRANCH  12  15
ATOM     15  C   UNL     1      -1.055  -0.853  24.670  0.00  0.00    -0.030 A 
ATOM     19  C   UNL     1      -1.924  -1.749  24.048  0.00  0.00    +0.050 A 
ATOM     20  C   UNL     1      -1.216  -0.550  26.023  0.00  0.00    +0.005 A 
ATOM     21  C   UNL     1      -2.956  -2.340  24.776  0.00  0.00    +0.120 A 
ATOM     22  C   UNL     1      -2.248  -1.142  26.751  0.00  0.00    +0.004 A 
ATOM     23  C   UNL     1      -3.118  -2.037  26.128  0.00  0.00    +0.045 A 
BRANCH  21   4
ATOM      4  O   UNL     1      -3.804  -3.214  24.168  0.00  0.00    -0.495 OA
ATOM     25  C   UNL     1      -4.876  -2.656  23.408  0.00  0.00    +0.277 C 
ENDBRANCH  21   4
ENDBRANCH  12  15
ENDBRANCH   5  12
ENDBRANCH   6   5
TORSDOF 8
ENDMDL
