MODEL 1
REMARK VINA RESULT:      -4.8      0.000      0.000
REMARK  Name = 40779854
REMARK  8 active torsions:
REMARK  status: ('A' for Active; 'I' for Inactive)
REMARK    1  A    between atoms: S_1  and  N_6
REMARK    2  A    between atoms: S_1  and  C_18
REMARK    3  A    between atoms: N_5  and  C_14
REMARK    4  A    between atoms: N_5  and  C_16
REMARK    5  A    between atoms: N_5  and  C_17
REMARK    6  A    between atoms: N_6  and  C_15
REMARK    7  A    between atoms: C_8  and  C_14
REMARK    8  A    between atoms: C_9  and  C_15
REMARK                            x       y       z     vdW  Elec       q    Type
REMARK                         _______ _______ _______ _____ _____    ______ ____
ROOT
ATOM      4  N   UNL     1      -2.710  -2.422  24.337  0.00  0.00    -0.298 NA
ATOM      7  C   UNL     1      -3.115  -0.245  25.703  0.00  0.00    -0.002 C 
ATOM      8  C   UNL     1      -3.928  -0.230  24.388  0.00  0.00    +0.023 C 
ATOM      9  C   UNL     1      -1.409  -1.795  24.695  0.00  0.00    +0.072 C 
ATOM     10  C   UNL     1      -1.622  -0.426  25.377  0.00  0.00    +0.024 C 
ATOM     11  C   UNL     1      -3.539  -1.472  23.555  0.00  0.00    +0.090 C 
ATOM     12  C   UNL     1      -3.564  -1.490  26.492  0.00  0.00    +0.019 C 
ATOM     13  C   UNL     1      -3.430  -2.734  25.596  0.00  0.00    +0.085 C 
ENDROOT
BRANCH   8  14
ATOM     14  C   UNL     1      -3.757   1.060  23.589  0.00  0.00    +0.109 C 
BRANCH  14   5
ATOM      5  N   UNL     1      -3.967   2.196  24.448  0.00  0.00    -0.333 N 
ATOM     16  C   UNL     1      -5.268   2.351  25.105  0.00  0.00    +0.129 C 
BRANCH   5  17
ATOM     17  C   UNL     1      -2.961   3.153  24.662  0.00  0.00    +0.029 A 
ATOM     19  C   UNL     1      -3.273   4.367  25.274  0.00  0.00    +0.023 A 
ATOM     20  C   UNL     1      -1.651   2.889  24.264  0.00  0.00    +0.023 A 
ATOM     21  C   UNL     1      -2.275   5.318  25.487  0.00  0.00    +0.002 A 
ATOM     22  C   UNL     1      -0.653   3.839  24.476  0.00  0.00    +0.002 A 
ATOM     25  C   UNL     1      -0.964   5.054  25.088  0.00  0.00    +0.000 A 
ENDBRANCH   5  17
ENDBRANCH  14   5
ENDBRANCH   8  14
BRANCH   9  15
ATOM     15  C   UNL     1      -0.460  -1.694  23.499  0.00  0.00    +0.124 C 
BRANCH  15   6
ATOM      6  N   UNL     1       0.711  -0.949  23.873  0.00  0.00    -0.188 NA
ATOM     29  H   UNL     1       0.817  -0.721  24.870  0.00  0.00    +0.148 HD
BRANCH   6   1
ATOM      1  S   UNL     1       1.488   0.106  22.758  0.00  0.00    +0.058 S 
ATOM      2  O   UNL     1       1.138   1.473  23.090  0.00  0.00    -0.153 OA
ATOM      3  O   UNL     1       1.313  -0.384  21.404  0.00  0.00    -0.153 OA
BRANCH   1  18
ATOM     18  C   UNL     1       3.188  -0.138  23.179  0.00  0.00    +0.105 A 
ATOM     23  C   UNL     1       3.618  -1.377  23.655  0.00  0.00    +0.028 A 
ATOM     24  C   UNL     1       4.099   0.909  23.040  0.00  0.00    +0.028 A 
ATOM     26  C   UNL     1       4.957  -1.568  23.991  0.00  0.00    +0.002 A 
ATOM     27  C   UNL     1       5.438   0.717  23.375  0.00  0.00    +0.002 A 
ATOM     28  C   UNL     1       5.868  -0.522  23.852  0.00  0.00    +0.000 A 
ENDBRANCH   1  18
ENDBRANCH   6   1
ENDBRANCH  15   6
ENDBRANCH   9  15
TORSDOF 7
ENDMDL
MODEL 2
REMARK VINA RESULT:      -4.6      2.975      7.123
REMARK  Name = 40779854
REMARK  8 active torsions:
REMARK  status: ('A' for Active; 'I' for Inactive)
REMARK    1  A    between atoms: S_1  and  N_6
REMARK    2  A    between atoms: S_1  and  C_18
REMARK    3  A    between atoms: N_5  and  C_14
REMARK    4  A    between atoms: N_5  and  C_16
REMARK    5  A    between atoms: N_5  and  C_17
REMARK    6  A    between atoms: N_6  and  C_15
REMARK    7  A    between atoms: C_8  and  C_14
REMARK    8  A    between atoms: C_9  and  C_15
REMARK                            x       y       z     vdW  Elec       q    Type
REMARK                         _______ _______ _______ _____ _____    ______ ____
ROOT
ATOM      4  N   UNL     1      -1.020   3.293  23.965  0.00  0.00    -0.298 NA
ATOM      7  C   UNL     1      -0.193   1.453  25.609  0.00  0.00    -0.002 C 
ATOM      8  C   UNL     1       0.508   1.323  24.237  0.00  0.00    +0.023 C 
ATOM      9  C   UNL     1      -2.182   2.570  24.548  0.00  0.00    +0.072 C 
ATOM     10  C   UNL     1      -1.718   1.377  25.412  0.00  0.00    +0.024 C 
ATOM     11  C   UNL     1      -0.123   2.343  23.263  0.00  0.00    +0.090 C 
ATOM     12  C   UNL     1       0.128   2.863  26.143  0.00  0.00    +0.019 C 
ATOM     13  C   UNL     1      -0.258   3.908  25.080  0.00  0.00    +0.085 C 
ENDROOT
BRANCH   8  14
ATOM     14  C   UNL     1       0.467  -0.096  23.672  0.00  0.00    +0.109 C 
BRANCH  14   5
ATOM      5  N   UNL     1       1.505  -0.257  22.688  0.00  0.00    -0.333 N 
ATOM     16  C   UNL     1       1.123  -0.480  21.290  0.00  0.00    +0.129 C 
BRANCH   5  17
ATOM     17  C   UNL     1       2.865  -0.212  23.039  0.00  0.00    +0.029 A 
ATOM     19  C   UNL     1       3.606   0.947  22.810  0.00  0.00    +0.023 A 
ATOM     20  C   UNL     1       3.473  -1.327  23.615  0.00  0.00    +0.023 A 
ATOM     21  C   UNL     1       4.956   0.992  23.158  0.00  0.00    +0.002 A 
ATOM     22  C   UNL     1       4.823  -1.282  23.963  0.00  0.00    +0.002 A 
ATOM     25  C   UNL     1       5.565  -0.123  23.735  0.00  0.00    +0.000 A 
ENDBRANCH   5  17
ENDBRANCH  14   5
ENDBRANCH   8  14
BRANCH   9  15
ATOM     15  C   UNL     1      -3.197   2.143  23.485  0.00  0.00    +0.124 C 
BRANCH  15   6
ATOM      6  N   UNL     1      -4.510   2.589  23.863  0.00  0.00    -0.188 NA
ATOM     29  H   UNL     1      -4.698   3.596  23.784  0.00  0.00    +0.148 HD
BRANCH   6   1
ATOM      1  S   UNL     1      -5.448   1.721  25.016  0.00  0.00    +0.058 S 
ATOM      2  O   UNL     1      -6.792   1.565  24.497  0.00  0.00    -0.153 OA
ATOM      3  O   UNL     1      -5.236   2.268  26.343  0.00  0.00    -0.153 OA
BRANCH   1  18
ATOM     18  C   UNL     1      -4.662   0.138  24.978  0.00  0.00    +0.105 A 
ATOM     23  C   UNL     1      -4.721  -0.643  23.825  0.00  0.00    +0.028 A 
ATOM     24  C   UNL     1      -3.985  -0.331  26.104  0.00  0.00    +0.028 A 
ATOM     26  C   UNL     1      -4.105  -1.894  23.796  0.00  0.00    +0.002 A 
ATOM     27  C   UNL     1      -3.368  -1.581  26.076  0.00  0.00    +0.002 A 
ATOM     28  C   UNL     1      -3.428  -2.364  24.921  0.00  0.00    +0.000 A 
ENDBRANCH   1  18
ENDBRANCH   6   1
ENDBRANCH  15   6
ENDBRANCH   9  15
TORSDOF 7
ENDMDL
MODEL 3
REMARK VINA RESULT:      -4.1      1.495      4.424
REMARK  Name = 40779854
REMARK  8 active torsions:
REMARK  status: ('A' for Active; 'I' for Inactive)
REMARK    1  A    between atoms: S_1  and  N_6
REMARK    2  A    between atoms: S_1  and  C_18
REMARK    3  A    between atoms: N_5  and  C_14
REMARK    4  A    between atoms: N_5  and  C_16
REMARK    5  A    between atoms: N_5  and  C_17
REMARK    6  A    between atoms: N_6  and  C_15
REMARK    7  A    between atoms: C_8  and  C_14
REMARK    8  A    between atoms: C_9  and  C_15
REMARK                            x       y       z     vdW  Elec       q    Type
REMARK                         _______ _______ _______ _____ _____    ______ ____
ROOT
ATOM      4  N   UNL     1      -1.423   3.347  25.813  0.00  0.00    -0.298 NA
ATOM      7  C   UNL     1      -2.727   4.030  23.668  0.00  0.00    -0.002 C 
ATOM      8  C   UNL     1      -3.601   3.144  24.585  0.00  0.00    +0.023 C 
ATOM      9  C   UNL     1      -0.622   3.020  24.603  0.00  0.00    +0.072 C 
ATOM     10  C   UNL     1      -1.432   3.278  23.314  0.00  0.00    +0.024 C 
ATOM     11  C   UNL     1      -2.732   2.651  25.765  0.00  0.00    +0.090 C 
ATOM     12  C   UNL     1      -2.325   5.268  24.494  0.00  0.00    +0.019 C 
ATOM     13  C   UNL     1      -1.676   4.808  25.812  0.00  0.00    +0.085 C 
ENDROOT
BRANCH   8  14
ATOM     14  C   UNL     1      -4.260   1.980  23.848  0.00  0.00    +0.109 C 
BRANCH  14   5
ATOM      5  N   UNL     1      -4.750   1.018  24.799  0.00  0.00    -0.333 N 
ATOM     16  C   UNL     1      -5.765   1.440  25.769  0.00  0.00    +0.129 C 
BRANCH   5  17
ATOM     17  C   UNL     1      -4.275  -0.304  24.821  0.00  0.00    +0.029 A 
ATOM     19  C   UNL     1      -3.554  -0.768  25.922  0.00  0.00    +0.023 A 
ATOM     20  C   UNL     1      -4.524  -1.152  23.742  0.00  0.00    +0.023 A 
ATOM     21  C   UNL     1      -3.082  -2.080  25.944  0.00  0.00    +0.002 A 
ATOM     22  C   UNL     1      -4.052  -2.464  23.764  0.00  0.00    +0.002 A 
ATOM     25  C   UNL     1      -3.331  -2.929  24.864  0.00  0.00    +0.000 A 
ENDBRANCH   5  17
ENDBRANCH  14   5
ENDBRANCH   8  14
BRANCH   9  15
ATOM     15  C   UNL     1      -0.055   1.599  24.644  0.00  0.00    +0.124 C 
BRANCH  15   6
ATOM      6  N   UNL     1       0.829   1.398  23.527  0.00  0.00    -0.188 NA
ATOM     29  H   UNL     1       0.876   2.154  22.832  0.00  0.00    +0.148 HD
BRANCH   6   1
ATOM      1  S   UNL     1       1.215  -0.183  22.970  0.00  0.00    +0.058 S 
ATOM      2  O   UNL     1       0.981  -0.241  21.540  0.00  0.00    -0.153 OA
ATOM      3  O   UNL     1       0.626  -1.178  23.847  0.00  0.00    -0.153 OA
BRANCH   1  18
ATOM     18  C   UNL     1       2.962  -0.227  23.238  0.00  0.00    +0.105 A 
ATOM     23  C   UNL     1       3.739   0.897  22.957  0.00  0.00    +0.028 A 
ATOM     24  C   UNL     1       3.563  -1.387  23.728  0.00  0.00    +0.028 A 
ATOM     26  C   UNL     1       5.117   0.861  23.166  0.00  0.00    +0.002 A 
ATOM     27  C   UNL     1       4.941  -1.422  23.937  0.00  0.00    +0.002 A 
ATOM     28  C   UNL     1       5.719  -0.298  23.655  0.00  0.00    +0.000 A 
ENDBRANCH   1  18
ENDBRANCH   6   1
ENDBRANCH  15   6
ENDBRANCH   9  15
TORSDOF 7
ENDMDL
MODEL 4
REMARK VINA RESULT:      -3.2      2.837      6.623
REMARK  Name = 40779854
REMARK  8 active torsions:
REMARK  status: ('A' for Active; 'I' for Inactive)
REMARK    1  A    between atoms: S_1  and  N_6
REMARK    2  A    between atoms: S_1  and  C_18
REMARK    3  A    between atoms: N_5  and  C_14
REMARK    4  A    between atoms: N_5  and  C_16
REMARK    5  A    between atoms: N_5  and  C_17
REMARK    6  A    between atoms: N_6  and  C_15
REMARK    7  A    between atoms: C_8  and  C_14
REMARK    8  A    between atoms: C_9  and  C_15
REMARK                            x       y       z     vdW  Elec       q    Type
REMARK                         _______ _______ _______ _____ _____    ______ ____
ROOT
ATOM      4  N   UNL     1      -1.924  -0.197  25.955  0.00  0.00    -0.298 NA
ATOM      7  C   UNL     1      -0.371  -1.495  24.320  0.00  0.00    -0.002 C 
ATOM      8  C   UNL     1       0.108  -0.035  24.493  0.00  0.00    +0.023 C 
ATOM      9  C   UNL     1      -2.734  -0.847  24.890  0.00  0.00    +0.072 C 
ATOM     10  C   UNL     1      -1.828  -1.499  23.823  0.00  0.00    +0.024 C 
ATOM     11  C   UNL     1      -0.928   0.723  25.354  0.00  0.00    +0.090 C 
ATOM     12  C   UNL     1      -0.366  -2.137  25.721  0.00  0.00    +0.019 C 
ATOM     13  C   UNL     1      -1.189  -1.261  26.683  0.00  0.00    +0.085 C 
ENDROOT
BRANCH   8  14
ATOM     14  C   UNL     1       0.365   0.675  23.166  0.00  0.00    +0.109 C 
BRANCH  14   5
ATOM      5  N   UNL     1       1.380  -0.028  22.427  0.00  0.00    -0.333 N 
ATOM     16  C   UNL     1       1.002  -0.715  21.188  0.00  0.00    +0.129 C 
BRANCH   5  17
ATOM     17  C   UNL     1       2.713  -0.075  22.869  0.00  0.00    +0.029 A 
ATOM     19  C   UNL     1       3.218  -1.245  23.436  0.00  0.00    +0.023 A 
ATOM     20  C   UNL     1       3.530   1.048  22.740  0.00  0.00    +0.023 A 
ATOM     21  C   UNL     1       4.541  -1.292  23.875  0.00  0.00    +0.002 A 
ATOM     22  C   UNL     1       4.853   1.001  23.179  0.00  0.00    +0.002 A 
ATOM     25  C   UNL     1       5.359  -0.169  23.746  0.00  0.00    +0.000 A 
ENDBRANCH   5  17
ENDBRANCH  14   5
ENDBRANCH   8  14
BRANCH   9  15
ATOM     15  C   UNL     1      -3.751   0.111  24.264  0.00  0.00    +0.124 C 
BRANCH  15   6
ATOM      6  N   UNL     1      -4.718   0.503  25.253  0.00  0.00    -0.188 NA
ATOM     29  H   UNL     1      -5.339  -0.233  25.612  0.00  0.00    +0.148 HD
BRANCH   6   1
ATOM      1  S   UNL     1      -5.318   2.114  25.322  0.00  0.00    +0.058 S 
ATOM      2  O   UNL     1      -5.841   2.358  26.652  0.00  0.00    -0.153 OA
ATOM      3  O   UNL     1      -6.133   2.393  24.155  0.00  0.00    -0.153 OA
BRANCH   1  18
ATOM     18  C   UNL     1      -3.826   3.046  25.144  0.00  0.00    +0.105 A 
ATOM     23  C   UNL     1      -3.105   2.987  23.952  0.00  0.00    +0.028 A 
ATOM     24  C   UNL     1      -3.367   3.837  26.198  0.00  0.00    +0.028 A 
ATOM     26  C   UNL     1      -1.926   3.719  23.812  0.00  0.00    +0.002 A 
ATOM     27  C   UNL     1      -2.189   4.569  26.058  0.00  0.00    +0.002 A 
ATOM     28  C   UNL     1      -1.467   4.510  24.865  0.00  0.00    +0.000 A 
ENDBRANCH   1  18
ENDBRANCH   6   1
ENDBRANCH  15   6
ENDBRANCH   9  15
TORSDOF 7
ENDMDL
MODEL 5
REMARK VINA RESULT:      -3.1      2.721      6.762
REMARK  Name = 40779854
REMARK  8 active torsions:
REMARK  status: ('A' for Active; 'I' for Inactive)
REMARK    1  A    between atoms: S_1  and  N_6
REMARK    2  A    between atoms: S_1  and  C_18
REMARK    3  A    between atoms: N_5  and  C_14
REMARK    4  A    between atoms: N_5  and  C_16
REMARK    5  A    between atoms: N_5  and  C_17
REMARK    6  A    between atoms: N_6  and  C_15
REMARK    7  A    between atoms: C_8  and  C_14
REMARK    8  A    between atoms: C_9  and  C_15
REMARK                            x       y       z     vdW  Elec       q    Type
REMARK                         _______ _______ _______ _____ _____    ______ ____
ROOT
ATOM      4  N   UNL     1      -2.186   4.712  24.615  0.00  0.00    -0.298 NA
ATOM      7  C   UNL     1      -0.498   2.899  25.409  0.00  0.00    -0.002 C 
ATOM      8  C   UNL     1      -0.976   2.613  23.967  0.00  0.00    +0.023 C 
ATOM      9  C   UNL     1      -2.619   4.151  25.923  0.00  0.00    +0.072 C 
ATOM     10  C   UNL     1      -1.717   2.970  26.346  0.00  0.00    +0.024 C 
ATOM     11  C   UNL     1      -2.079   3.633  23.603  0.00  0.00    +0.090 C 
ATOM     12  C   UNL     1       0.150   4.297  25.397  0.00  0.00    +0.019 C 
ATOM     13  C   UNL     1      -0.841   5.310  24.796  0.00  0.00    +0.085 C 
ENDROOT
BRANCH   8  14
ATOM     14  C   UNL     1      -1.449   1.176  23.763  0.00  0.00    +0.109 C 
BRANCH  14   5
ATOM      5  N   UNL     1      -0.371   0.265  24.049  0.00  0.00    -0.333 N 
ATOM     16  C   UNL     1      -0.523  -0.677  25.162  0.00  0.00    +0.129 C 
BRANCH   5  17
ATOM     17  C   UNL     1       0.813   0.265  23.295  0.00  0.00    +0.029 A 
ATOM     19  C   UNL     1       1.916   1.002  23.728  0.00  0.00    +0.023 A 
ATOM     20  C   UNL     1       0.887  -0.471  22.112  0.00  0.00    +0.023 A 
ATOM     21  C   UNL     1       3.093   1.003  22.980  0.00  0.00    +0.002 A 
ATOM     22  C   UNL     1       2.064  -0.470  21.364  0.00  0.00    +0.002 A 
ATOM     25  C   UNL     1       3.167   0.267  21.797  0.00  0.00    +0.000 A 
ENDBRANCH   5  17
ENDBRANCH  14   5
ENDBRANCH   8  14
BRANCH   9  15
ATOM     15  C   UNL     1      -4.101   3.768  25.933  0.00  0.00    +0.124 C 
BRANCH  15   6
ATOM      6  N   UNL     1      -4.230   2.337  25.912  0.00  0.00    -0.188 NA
ATOM     29  H   UNL     1      -3.488   1.797  26.375  0.00  0.00    +0.148 HD
BRANCH   6   1
ATOM      1  S   UNL     1      -5.086   1.539  24.651  0.00  0.00    +0.058 S 
ATOM      2  O   UNL     1      -4.657   2.087  23.379  0.00  0.00    -0.153 OA
ATOM      3  O   UNL     1      -6.498   1.467  24.976  0.00  0.00    -0.153 OA
BRANCH   1  18
ATOM     18  C   UNL     1      -4.442  -0.103  24.782  0.00  0.00    +0.105 A 
ATOM     23  C   UNL     1      -4.514  -0.969  23.691  0.00  0.00    +0.028 A 
ATOM     24  C   UNL     1      -3.865  -0.532  25.977  0.00  0.00    +0.028 A 
ATOM     26  C   UNL     1      -4.009  -2.265  23.796  0.00  0.00    +0.002 A 
ATOM     27  C   UNL     1      -3.359  -1.827  26.081  0.00  0.00    +0.002 A 
ATOM     28  C   UNL     1      -3.432  -2.695  24.990  0.00  0.00    +0.000 A 
ENDBRANCH   1  18
ENDBRANCH   6   1
ENDBRANCH  15   6
ENDBRANCH   9  15
TORSDOF 7
ENDMDL
MODEL 6
REMARK VINA RESULT:      -1.8     18.023     19.500
REMARK  Name = 40779854
REMARK  8 active torsions:
REMARK  status: ('A' for Active; 'I' for Inactive)
REMARK    1  A    between atoms: S_1  and  N_6
REMARK    2  A    between atoms: S_1  and  C_18
REMARK    3  A    between atoms: N_5  and  C_14
REMARK    4  A    between atoms: N_5  and  C_16
REMARK    5  A    between atoms: N_5  and  C_17
REMARK    6  A    between atoms: N_6  and  C_15
REMARK    7  A    between atoms: C_8  and  C_14
REMARK    8  A    between atoms: C_9  and  C_15
REMARK                            x       y       z     vdW  Elec       q    Type
REMARK                         _______ _______ _______ _____ _____    ______ ____
ROOT
ATOM      4  N   UNL     1      15.318  -6.745  27.142  0.00  0.00    -0.298 NA
ATOM      7  C   UNL     1      17.135  -8.406  26.301  0.00  0.00    -0.002 C 
ATOM      8  C   UNL     1      15.726  -9.036  26.207  0.00  0.00    +0.023 C 
ATOM      9  C   UNL     1      16.391  -6.886  28.163  0.00  0.00    +0.072 C 
ATOM     10  C   UNL     1      17.405  -7.977  27.755  0.00  0.00    +0.024 C 
ATOM     11  C   UNL     1      14.710  -8.065  26.850  0.00  0.00    +0.090 C 
ATOM     12  C   UNL     1      17.111  -7.126  25.445  0.00  0.00    +0.019 C 
ATOM     13  C   UNL     1      15.938  -6.237  25.894  0.00  0.00    +0.085 C 
ENDROOT
BRANCH   8  14
ATOM     14  C   UNL     1      15.646 -10.429  26.827  0.00  0.00    +0.109 C 
BRANCH  14   5
ATOM      5  N   UNL     1      14.455 -10.536  27.628  0.00  0.00    -0.333 N 
ATOM     16  C   UNL     1      13.174 -10.778  26.957  0.00  0.00    +0.129 C 
BRANCH   5  17
ATOM     17  C   UNL     1      14.494 -10.406  29.026  0.00  0.00    +0.029 A 
ATOM     19  C   UNL     1      15.695 -10.594  29.711  0.00  0.00    +0.023 A 
ATOM     20  C   UNL     1      13.331 -10.090  29.730  0.00  0.00    +0.023 A 
ATOM     21  C   UNL     1      15.734 -10.465  31.099  0.00  0.00    +0.002 A 
ATOM     22  C   UNL     1      13.371  -9.962  31.118  0.00  0.00    +0.002 A 
ATOM     25  C   UNL     1      14.571 -10.149  31.803  0.00  0.00    +0.000 A 
ENDBRANCH   5  17
ENDBRANCH  14   5
ENDBRANCH   8  14
BRANCH   9  15
ATOM     15  C   UNL     1      15.833  -7.125  29.568  0.00  0.00    +0.124 C 
BRANCH  15   6
ATOM      6  N   UNL     1      14.788  -6.177  29.840  0.00  0.00    -0.188 NA
ATOM     29  H   UNL     1      14.429  -5.640  29.041  0.00  0.00    +0.148 HD
BRANCH   6   1
ATOM      1  S   UNL     1      14.632  -5.443  31.389  0.00  0.00    +0.058 S 
ATOM      2  O   UNL     1      15.340  -6.254  32.361  0.00  0.00    -0.153 OA
ATOM      3  O   UNL     1      13.252  -5.063  31.623  0.00  0.00    -0.153 OA
BRANCH   1  18
ATOM     18  C   UNL     1      15.547  -3.949  31.157  0.00  0.00    +0.105 A 
ATOM     23  C   UNL     1      15.562  -2.977  32.158  0.00  0.00    +0.028 A 
ATOM     24  C   UNL     1      16.251  -3.739  29.971  0.00  0.00    +0.028 A 
ATOM     26  C   UNL     1      16.281  -1.797  31.973  0.00  0.00    +0.002 A 
ATOM     27  C   UNL     1      16.971  -2.559  29.787  0.00  0.00    +0.002 A 
ATOM     28  C   UNL     1      16.985  -1.586  30.788  0.00  0.00    +0.000 A 
ENDBRANCH   1  18
ENDBRANCH   6   1
ENDBRANCH  15   6
ENDBRANCH   9  15
TORSDOF 7
ENDMDL
MODEL 7
REMARK VINA RESULT:      -1.7      2.876      6.269
REMARK  Name = 40779854
REMARK  8 active torsions:
REMARK  status: ('A' for Active; 'I' for Inactive)
REMARK    1  A    between atoms: S_1  and  N_6
REMARK    2  A    between atoms: S_1  and  C_18
REMARK    3  A    between atoms: N_5  and  C_14
REMARK    4  A    between atoms: N_5  and  C_16
REMARK    5  A    between atoms: N_5  and  C_17
REMARK    6  A    between atoms: N_6  and  C_15
REMARK    7  A    between atoms: C_8  and  C_14
REMARK    8  A    between atoms: C_9  and  C_15
REMARK                            x       y       z     vdW  Elec       q    Type
REMARK                         _______ _______ _______ _____ _____    ______ ____
ROOT
ATOM      4  N   UNL     1      -2.907  -0.151  25.758  0.00  0.00    -0.298 NA
ATOM      7  C   UNL     1      -2.518  -2.171  24.164  0.00  0.00    -0.002 C 
ATOM      8  C   UNL     1      -1.194  -1.418  24.434  0.00  0.00    +0.023 C 
ATOM      9  C   UNL     1      -3.858  -0.090  24.615  0.00  0.00    +0.072 C 
ATOM     10  C   UNL     1      -3.551  -1.192  23.578  0.00  0.00    +0.024 C 
ATOM     11  C   UNL     1      -1.509  -0.152  25.263  0.00  0.00    +0.090 C 
ATOM     12  C   UNL     1      -3.055  -2.635  25.532  0.00  0.00    +0.019 C 
ATOM     13  C   UNL     1      -3.141  -1.426  26.480  0.00  0.00    +0.085 C 
ENDROOT
BRANCH   8  14
ATOM     14  C   UNL     1      -0.424  -1.079  23.159  0.00  0.00    +0.109 C 
BRANCH  14   5
ATOM      5  N   UNL     1       0.395   0.083  23.382  0.00  0.00    -0.333 N 
ATOM     16  C   UNL     1      -0.261   1.360  23.683  0.00  0.00    +0.129 C 
BRANCH   5  17
ATOM     17  C   UNL     1       1.796   0.022  23.309  0.00  0.00    +0.029 A 
ATOM     19  C   UNL     1       2.524   1.144  22.911  0.00  0.00    +0.023 A 
ATOM     20  C   UNL     1       2.460  -1.161  23.635  0.00  0.00    +0.023 A 
ATOM     21  C   UNL     1       3.915   1.083  22.839  0.00  0.00    +0.002 A 
ATOM     22  C   UNL     1       3.851  -1.221  23.564  0.00  0.00    +0.002 A 
ATOM     25  C   UNL     1       4.580  -0.100  23.166  0.00  0.00    +0.000 A 
ENDBRANCH   5  17
ENDBRANCH  14   5
ENDBRANCH   8  14
BRANCH   9  15
ATOM     15  C   UNL     1      -3.910   1.298  23.973  0.00  0.00    +0.124 C 
BRANCH  15   6
ATOM      6  N   UNL     1      -5.101   1.982  24.395  0.00  0.00    -0.188 NA
ATOM     29  H   UNL     1      -5.869   2.040  23.714  0.00  0.00    +0.148 HD
BRANCH   6   1
ATOM      1  S   UNL     1      -5.042   3.217  25.593  0.00  0.00    +0.058 S 
ATOM      2  O   UNL     1      -5.217   2.608  26.896  0.00  0.00    -0.153 OA
ATOM      3  O   UNL     1      -5.872   4.338  25.193  0.00  0.00    -0.153 OA
BRANCH   1  18
ATOM     18  C   UNL     1      -3.361   3.747  25.460  0.00  0.00    +0.105 A 
ATOM     23  C   UNL     1      -3.025   4.793  24.601  0.00  0.00    +0.028 A 
ATOM     24  C   UNL     1      -2.370   3.115  26.212  0.00  0.00    +0.028 A 
ATOM     26  C   UNL     1      -1.698   5.208  24.493  0.00  0.00    +0.002 A 
ATOM     27  C   UNL     1      -1.043   3.532  26.105  0.00  0.00    +0.002 A 
ATOM     28  C   UNL     1      -0.707   4.578  25.244  0.00  0.00    +0.000 A 
ENDBRANCH   1  18
ENDBRANCH   6   1
ENDBRANCH  15   6
ENDBRANCH   9  15
TORSDOF 7
ENDMDL
MODEL 8
REMARK VINA RESULT:      -1.4     16.442     19.533
REMARK  Name = 40779854
REMARK  8 active torsions:
REMARK  status: ('A' for Active; 'I' for Inactive)
REMARK    1  A    between atoms: S_1  and  N_6
REMARK    2  A    between atoms: S_1  and  C_18
REMARK    3  A    between atoms: N_5  and  C_14
REMARK    4  A    between atoms: N_5  and  C_16
REMARK    5  A    between atoms: N_5  and  C_17
REMARK    6  A    between atoms: N_6  and  C_15
REMARK    7  A    between atoms: C_8  and  C_14
REMARK    8  A    between atoms: C_9  and  C_15
REMARK                            x       y       z     vdW  Elec       q    Type
REMARK                         _______ _______ _______ _____ _____    ______ ____
ROOT
ATOM      4  N   UNL     1      14.926  -6.464  27.035  0.00  0.00    -0.298 NA
ATOM      7  C   UNL     1      17.403  -7.081  26.530  0.00  0.00    -0.002 C 
ATOM      8  C   UNL     1      16.441  -8.147  25.956  0.00  0.00    +0.023 C 
ATOM      9  C   UNL     1      15.725  -6.435  28.290  0.00  0.00    +0.072 C 
ATOM     10  C   UNL     1      17.164  -6.940  28.044  0.00  0.00    +0.024 C 
ATOM     11  C   UNL     1      15.003  -7.806  26.409  0.00  0.00    +0.090 C 
ATOM     12  C   UNL     1      17.019  -5.737  25.881  0.00  0.00    +0.019 C 
ATOM     13  C   UNL     1      15.516  -5.482  26.094  0.00  0.00    +0.085 C 
ENDROOT
BRANCH   8  14
ATOM     14  C   UNL     1      16.828  -9.575  26.337  0.00  0.00    +0.109 C 
BRANCH  14   5
ATOM      5  N   UNL     1      15.683 -10.261  26.875  0.00  0.00    -0.333 N 
ATOM     16  C   UNL     1      14.673 -10.781  25.947  0.00  0.00    +0.129 C 
BRANCH   5  17
ATOM     17  C   UNL     1      15.511 -10.435  28.258  0.00  0.00    +0.029 A 
ATOM     19  C   UNL     1      14.232 -10.608  28.786  0.00  0.00    +0.023 A 
ATOM     20  C   UNL     1      16.621 -10.435  29.103  0.00  0.00    +0.023 A 
ATOM     21  C   UNL     1      14.061 -10.781  30.159  0.00  0.00    +0.002 A 
ATOM     22  C   UNL     1      16.450 -10.608  30.476  0.00  0.00    +0.002 A 
ATOM     25  C   UNL     1      15.171 -10.781  31.005  0.00  0.00    +0.000 A 
ENDBRANCH   5  17
ENDBRANCH  14   5
ENDBRANCH   8  14
BRANCH   9  15
ATOM     15  C   UNL     1      15.044  -7.189  29.434  0.00  0.00    +0.124 C 
BRANCH  15   6
ATOM      6  N   UNL     1      14.159  -6.302  30.138  0.00  0.00    -0.188 NA
ATOM     29  H   UNL     1      13.887  -5.437  29.655  0.00  0.00    +0.148 HD
BRANCH   6   1
ATOM      1  S   UNL     1      14.119  -6.265  31.858  0.00  0.00    +0.058 S 
ATOM      2  O   UNL     1      14.153  -4.882  32.293  0.00  0.00    -0.153 OA
ATOM      3  O   UNL     1      15.064  -7.223  32.399  0.00  0.00    -0.153 OA
BRANCH   1  18
ATOM     18  C   UNL     1      12.501  -6.898  32.180  0.00  0.00    +0.105 A 
ATOM     23  C   UNL     1      12.231  -8.253  31.990  0.00  0.00    +0.028 A 
ATOM     24  C   UNL     1      11.492  -6.041  32.622  0.00  0.00    +0.028 A 
ATOM     26  C   UNL     1      10.953  -8.752  32.240  0.00  0.00    +0.002 A 
ATOM     27  C   UNL     1      10.214  -6.540  32.873  0.00  0.00    +0.002 A 
ATOM     28  C   UNL     1       9.944  -7.896  32.681  0.00  0.00    +0.000 A 
ENDBRANCH   1  18
ENDBRANCH   6   1
ENDBRANCH  15   6
ENDBRANCH   9  15
TORSDOF 7
ENDMDL
MODEL 9
REMARK VINA RESULT:      -1.4      2.069      4.594
REMARK  Name = 40779854
REMARK  8 active torsions:
REMARK  status: ('A' for Active; 'I' for Inactive)
REMARK    1  A    between atoms: S_1  and  N_6
REMARK    2  A    between atoms: S_1  and  C_18
REMARK    3  A    between atoms: N_5  and  C_14
REMARK    4  A    between atoms: N_5  and  C_16
REMARK    5  A    between atoms: N_5  and  C_17
REMARK    6  A    between atoms: N_6  and  C_15
REMARK    7  A    between atoms: C_8  and  C_14
REMARK    8  A    between atoms: C_9  and  C_15
REMARK                            x       y       z     vdW  Elec       q    Type
REMARK                         _______ _______ _______ _____ _____    ______ ____
ROOT
ATOM      4  N   UNL     1      -2.072   4.413  25.705  0.00  0.00    -0.298 NA
ATOM      7  C   UNL     1      -3.960   3.359  24.257  0.00  0.00    -0.002 C 
ATOM      8  C   UNL     1      -4.443   3.595  25.706  0.00  0.00    +0.023 C 
ATOM      9  C   UNL     1      -1.569   3.189  25.023  0.00  0.00    +0.072 C 
ATOM     10  C   UNL     1      -2.709   2.462  24.276  0.00  0.00    +0.024 C 
ATOM     11  C   UNL     1      -3.245   4.084  26.551  0.00  0.00    +0.090 C 
ATOM     12  C   UNL     1      -3.529   4.730  23.700  0.00  0.00    +0.019 C 
ATOM     13  C   UNL     1      -2.511   5.370  24.661  0.00  0.00    +0.085 C 
ENDROOT
BRANCH   8  14
ATOM     14  C   UNL     1      -5.107   2.368  26.328  0.00  0.00    +0.109 C 
BRANCH  14   5
ATOM      5  N   UNL     1      -5.449   1.426  25.295  0.00  0.00    -0.333 N 
ATOM     16  C   UNL     1      -6.584   1.725  24.416  0.00  0.00    +0.129 C 
BRANCH   5  17
ATOM     17  C   UNL     1      -4.729   0.233  25.118  0.00  0.00    +0.029 A 
ATOM     19  C   UNL     1      -3.902  -0.240  26.137  0.00  0.00    +0.023 A 
ATOM     20  C   UNL     1      -4.841  -0.479  23.924  0.00  0.00    +0.023 A 
ATOM     21  C   UNL     1      -3.186  -1.424  25.962  0.00  0.00    +0.002 A 
ATOM     22  C   UNL     1      -4.125  -1.663  23.749  0.00  0.00    +0.002 A 
ATOM     25  C   UNL     1      -3.298  -2.137  24.768  0.00  0.00    +0.000 A 
ENDBRANCH   5  17
ENDBRANCH  14   5
ENDBRANCH   8  14
BRANCH   9  15
ATOM     15  C   UNL     1      -0.826   2.252  25.978  0.00  0.00    +0.124 C 
BRANCH  15   6
ATOM      6  N   UNL     1       0.241   1.593  25.275  0.00  0.00    -0.188 NA
ATOM     29  H   UNL     1       1.082   2.151  25.080  0.00  0.00    +0.148 HD
BRANCH   6   1
ATOM      1  S   UNL     1      -0.074   0.280  24.209  0.00  0.00    +0.058 S 
ATOM      2  O   UNL     1      -1.207   0.623  23.371  0.00  0.00    -0.153 OA
ATOM      3  O   UNL     1      -0.061  -0.971  24.943  0.00  0.00    -0.153 OA
BRANCH   1  18
ATOM     18  C   UNL     1       1.377   0.300  23.198  0.00  0.00    +0.105 A 
ATOM     23  C   UNL     1       1.401  -0.410  21.998  0.00  0.00    +0.028 A 
ATOM     24  C   UNL     1       2.498   1.024  23.604  0.00  0.00    +0.028 A 
ATOM     26  C   UNL     1       2.547  -0.397  21.203  0.00  0.00    +0.002 A 
ATOM     27  C   UNL     1       3.644   1.038  22.808  0.00  0.00    +0.002 A 
ATOM     28  C   UNL     1       3.669   0.326  21.607  0.00  0.00    +0.000 A 
ENDBRANCH   1  18
ENDBRANCH   6   1
ENDBRANCH  15   6
ENDBRANCH   9  15
TORSDOF 7
ENDMDL
MODEL 10
REMARK VINA RESULT:      -1.3      2.829      4.718
REMARK  Name = 40779854
REMARK  8 active torsions:
REMARK  status: ('A' for Active; 'I' for Inactive)
REMARK    1  A    between atoms: S_1  and  N_6
REMARK    2  A    between atoms: S_1  and  C_18
REMARK    3  A    between atoms: N_5  and  C_14
REMARK    4  A    between atoms: N_5  and  C_16
REMARK    5  A    between atoms: N_5  and  C_17
REMARK    6  A    between atoms: N_6  and  C_15
REMARK    7  A    between atoms: C_8  and  C_14
REMARK    8  A    between atoms: C_9  and  C_15
REMARK                            x       y       z     vdW  Elec       q    Type
REMARK                         _______ _______ _______ _____ _____    ______ ____
ROOT
ATOM      4  N   UNL     1      -2.256  -1.716  23.875  0.00  0.00    -0.298 NA
ATOM      7  C   UNL     1      -3.356  -1.762  26.232  0.00  0.00    -0.002 C 
ATOM      8  C   UNL     1      -4.131  -0.821  25.280  0.00  0.00    +0.023 C 
ATOM      9  C   UNL     1      -1.235  -1.434  24.920  0.00  0.00    +0.072 C 
ATOM     10  C   UNL     1      -1.888  -1.308  26.314  0.00  0.00    +0.024 C 
ATOM     11  C   UNL     1      -3.354  -0.722  23.948  0.00  0.00    +0.090 C 
ATOM     12  C   UNL     1      -3.366  -3.160  25.585  0.00  0.00    +0.019 C 
ATOM     13  C   UNL     1      -2.829  -3.057  24.146  0.00  0.00    +0.085 C 
ENDROOT
BRANCH   8  14
ATOM     14  C   UNL     1      -4.398   0.557  25.881  0.00  0.00    +0.109 C 
BRANCH  14   5
ATOM      5  N   UNL     1      -5.021   1.403  24.897  0.00  0.00    -0.333 N 
ATOM     16  C   UNL     1      -6.469   1.623  24.972  0.00  0.00    +0.129 C 
BRANCH   5  17
ATOM     17  C   UNL     1      -4.278   2.011  23.872  0.00  0.00    +0.029 A 
ATOM     19  C   UNL     1      -3.157   1.366  23.346  0.00  0.00    +0.023 A 
ATOM     20  C   UNL     1      -4.660   3.258  23.379  0.00  0.00    +0.023 A 
ATOM     21  C   UNL     1      -2.419   1.970  22.328  0.00  0.00    +0.002 A 
ATOM     22  C   UNL     1      -3.922   3.861  22.361  0.00  0.00    +0.002 A 
ATOM     25  C   UNL     1      -2.801   3.218  21.835  0.00  0.00    +0.000 A 
ENDBRANCH   5  17
ENDBRANCH  14   5
ENDBRANCH   8  14
BRANCH   9  15
ATOM     15  C   UNL     1      -0.375  -0.214  24.582  0.00  0.00    +0.124 C 
BRANCH  15   6
ATOM      6  N   UNL     1      -0.538   0.789  25.599  0.00  0.00    -0.188 NA
ATOM     29  H   UNL     1      -1.447   0.821  26.077  0.00  0.00    +0.148 HD
BRANCH   6   1
ATOM      1  S   UNL     1       0.358   2.257  25.553  0.00  0.00    +0.058 S 
ATOM      2  O   UNL     1       1.023   2.356  24.268  0.00  0.00    -0.153 OA
ATOM      3  O   UNL     1       1.115   2.417  26.780  0.00  0.00    -0.153 OA
BRANCH   1  18
ATOM     18  C   UNL     1      -0.941   3.455  25.588  0.00  0.00    +0.105 A 
ATOM     23  C   UNL     1      -0.811   4.647  24.874  0.00  0.00    +0.028 A 
ATOM     24  C   UNL     1      -2.096   3.211  26.332  0.00  0.00    +0.028 A 
ATOM     26  C   UNL     1      -1.834   5.593  24.904  0.00  0.00    +0.002 A 
ATOM     27  C   UNL     1      -3.119   4.157  26.361  0.00  0.00    +0.002 A 
ATOM     28  C   UNL     1      -2.988   5.350  25.648  0.00  0.00    +0.000 A 
ENDBRANCH   1  18
ENDBRANCH   6   1
ENDBRANCH  15   6
ENDBRANCH   9  15
TORSDOF 7
ENDMDL
