MODEL 1
REMARK VINA RESULT:      -6.7      0.000      0.000
REMARK  Name = 75536656
REMARK  7 active torsions:
REMARK  status: ('A' for Active; 'I' for Inactive)
REMARK    1  A    between atoms: S_1  and  N_9
REMARK    2  A    between atoms: S_1  and  C_21
REMARK    3  A    between atoms: O_5  and  C_12
REMARK    4  A    between atoms: N_8  and  C_10
REMARK    5  A    between atoms: N_8  and  C_11
REMARK    6  A    between atoms: N_9  and  C_20
REMARK    7  A    between atoms: C_13  and  C_20
REMARK                            x       y       z     vdW  Elec       q    Type
REMARK                         _______ _______ _______ _____ _____    ______ ____
ROOT
ATOM      4  O   UNL     1      -0.855   3.907  25.734  0.00  0.00    -0.371 OA
ATOM     10  C   UNL     1      -0.419   1.638  25.181  0.00  0.00    +0.111 C 
ATOM     12  C   UNL     1      -1.606   2.126  24.370  0.00  0.00    +0.164 C 
ATOM     13  C   UNL     1      -1.404   3.633  24.434  0.00  0.00    +0.164 C 
ATOM     16  C   UNL     1      -0.368   2.673  26.292  0.00  0.00    +0.181 C 
ENDROOT
BRANCH  12   5
ATOM      5  O   UNL     1      -1.591   1.648  23.039  0.00  0.00    -0.388 OA
ATOM     23  H   UNL     1      -2.423   1.172  22.875  0.00  0.00    +0.210 HD
ENDBRANCH  12   5
BRANCH  10   8
ATOM      8  N   UNL     1      -0.572   0.280  25.678  0.00  0.00    -0.306 NA
ATOM     22  H   UNL     1      -0.873   0.292  26.652  0.00  0.00    +0.123 HD
BRANCH   8  11
ATOM      2  F   UNL     1      -4.405  -3.281  23.783  0.00  0.00    -0.206 F 
ATOM      3  F   UNL     1      -3.557  -3.202  25.784  0.00  0.00    -0.206 F 
ATOM     11  C   UNL     1      -1.534  -0.463  24.867  0.00  0.00    +0.054 C 
ATOM     14  C   UNL     1      -2.935  -0.338  25.477  0.00  0.00    +0.024 C 
ATOM     15  C   UNL     1      -1.102  -1.930  24.762  0.00  0.00    +0.024 C 
ATOM     17  C   UNL     1      -3.957  -1.162  24.695  0.00  0.00    +0.077 C 
ATOM     18  C   UNL     1      -2.124  -2.755  23.979  0.00  0.00    +0.077 C 
ATOM     19  C   UNL     1      -3.519  -2.611  24.562  0.00  0.00    +0.249 C 
ENDBRANCH   8  11
ENDBRANCH  10   8
BRANCH  13  20
ATOM     20  C   UNL     1      -2.689   4.420  24.245  0.00  0.00    +0.139 C 
BRANCH  20   9
ATOM      9  N   UNL     1      -3.832   3.491  24.166  0.00  0.00    -0.192 NA
ATOM     24  H   UNL     1      -3.601   2.596  23.713  0.00  0.00    +0.148 HD
BRANCH   9   1
ATOM      1  S   UNL     1      -4.932   3.414  25.467  0.00  0.00    +0.027 S 
ATOM      6  O   UNL     1      -5.869   4.519  25.387  0.00  0.00    -0.158 OA
ATOM      7  O   UNL     1      -4.185   3.163  26.685  0.00  0.00    -0.158 OA
ATOM     21  C   UNL     1      -5.811   1.921  25.066  0.00  0.00    +0.214 C 
ENDBRANCH   9   1
ENDBRANCH  20   9
ENDBRANCH  13  20
TORSDOF 6
ENDMDL
MODEL 2
REMARK VINA RESULT:      -6.4      3.540      5.377
REMARK  Name = 75536656
REMARK  7 active torsions:
REMARK  status: ('A' for Active; 'I' for Inactive)
REMARK    1  A    between atoms: S_1  and  N_9
REMARK    2  A    between atoms: S_1  and  C_21
REMARK    3  A    between atoms: O_5  and  C_12
REMARK    4  A    between atoms: N_8  and  C_10
REMARK    5  A    between atoms: N_8  and  C_11
REMARK    6  A    between atoms: N_9  and  C_20
REMARK    7  A    between atoms: C_13  and  C_20
REMARK                            x       y       z     vdW  Elec       q    Type
REMARK                         _______ _______ _______ _____ _____    ______ ____
ROOT
ATOM      4  O   UNL     1       0.095  -0.723  23.383  0.00  0.00    -0.371 OA
ATOM     10  C   UNL     1      -0.045   1.518  24.160  0.00  0.00    +0.111 C 
ATOM     12  C   UNL     1      -0.668   0.595  25.193  0.00  0.00    +0.164 C 
ATOM     13  C   UNL     1      -0.035  -0.737  24.814  0.00  0.00    +0.164 C 
ATOM     16  C   UNL     1      -0.052   0.633  22.924  0.00  0.00    +0.181 C 
ENDROOT
BRANCH  12   5
ATOM      5  O   UNL     1      -0.352   0.970  26.520  0.00  0.00    -0.388 OA
ATOM     23  H   UNL     1      -0.305   1.941  26.561  0.00  0.00    +0.210 HD
ENDBRANCH  12   5
BRANCH  10   8
ATOM      8  N   UNL     1      -0.778   2.759  23.971  0.00  0.00    -0.306 NA
ATOM     22  H   UNL     1      -0.924   2.936  22.978  0.00  0.00    +0.123 HD
BRANCH   8  11
ATOM      2  F   UNL     1      -5.922   3.743  25.852  0.00  0.00    -0.206 F 
ATOM      3  F   UNL     1      -4.806   4.913  24.399  0.00  0.00    -0.206 F 
ATOM     11  C   UNL     1      -2.064   2.711  24.664  0.00  0.00    +0.054 C 
ATOM     14  C   UNL     1      -3.199   2.561  23.643  0.00  0.00    +0.024 C 
ATOM     15  C   UNL     1      -2.245   3.974  25.514  0.00  0.00    +0.024 C 
ATOM     17  C   UNL     1      -4.566   2.579  24.326  0.00  0.00    +0.077 C 
ATOM     18  C   UNL     1      -3.612   3.993  26.198  0.00  0.00    +0.077 C 
ATOM     19  C   UNL     1      -4.738   3.814  25.194  0.00  0.00    +0.249 C 
ENDBRANCH   8  11
ENDBRANCH  10   8
BRANCH  13  20
ATOM     20  C   UNL     1      -0.860  -1.937  25.242  0.00  0.00    +0.139 C 
BRANCH  20   9
ATOM      9  N   UNL     1      -1.783  -2.317  24.155  0.00  0.00    -0.192 NA
ATOM     24  H   UNL     1      -1.573  -3.238  23.746  0.00  0.00    +0.148 HD
BRANCH   9   1
ATOM      1  S   UNL     1      -3.434  -1.910  24.286  0.00  0.00    +0.027 S 
ATOM      6  O   UNL     1      -4.250  -3.098  24.123  0.00  0.00    -0.158 OA
ATOM      7  O   UNL     1      -3.679  -0.726  23.484  0.00  0.00    -0.158 OA
ATOM     21  C   UNL     1      -3.516  -1.420  25.994  0.00  0.00    +0.214 C 
ENDBRANCH   9   1
ENDBRANCH  20   9
ENDBRANCH  13  20
TORSDOF 6
ENDMDL
MODEL 3
REMARK VINA RESULT:      -5.5      3.129      4.805
REMARK  Name = 75536656
REMARK  7 active torsions:
REMARK  status: ('A' for Active; 'I' for Inactive)
REMARK    1  A    between atoms: S_1  and  N_9
REMARK    2  A    between atoms: S_1  and  C_21
REMARK    3  A    between atoms: O_5  and  C_12
REMARK    4  A    between atoms: N_8  and  C_10
REMARK    5  A    between atoms: N_8  and  C_11
REMARK    6  A    between atoms: N_9  and  C_20
REMARK    7  A    between atoms: C_13  and  C_20
REMARK                            x       y       z     vdW  Elec       q    Type
REMARK                         _______ _______ _______ _____ _____    ______ ____
ROOT
ATOM      4  O   UNL     1      -0.280   2.477  23.209  0.00  0.00    -0.371 OA
ATOM     10  C   UNL     1      -0.954   3.460  25.264  0.00  0.00    +0.111 C 
ATOM     12  C   UNL     1      -0.293   2.123  25.547  0.00  0.00    +0.164 C 
ATOM     13  C   UNL     1       0.510   1.917  24.271  0.00  0.00    +0.164 C 
ATOM     16  C   UNL     1      -1.290   3.322  23.788  0.00  0.00    +0.181 C 
ENDROOT
BRANCH  12   5
ATOM      5  O   UNL     1       0.536   2.156  26.692  0.00  0.00    -0.388 OA
ATOM     23  H   UNL     1       1.082   2.960  26.652  0.00  0.00    +0.210 HD
ENDBRANCH  12   5
BRANCH  10   8
ATOM      8  N   UNL     1      -2.122   3.720  26.089  0.00  0.00    -0.306 NA
ATOM     22  H   UNL     1      -2.157   4.703  26.353  0.00  0.00    +0.123 HD
BRANCH   8  11
ATOM      2  F   UNL     1      -7.098   1.698  24.632  0.00  0.00    -0.206 F 
ATOM      3  F   UNL     1      -6.110   1.499  26.558  0.00  0.00    -0.206 F 
ATOM     11  C   UNL     1      -3.347   3.350  25.382  0.00  0.00    +0.054 C 
ATOM     14  C   UNL     1      -4.562   3.963  26.090  0.00  0.00    +0.024 C 
ATOM     15  C   UNL     1      -3.462   1.822  25.305  0.00  0.00    +0.024 C 
ATOM     17  C   UNL     1      -5.867   3.538  25.421  0.00  0.00    +0.077 C 
ATOM     18  C   UNL     1      -4.768   1.396  24.635  0.00  0.00    +0.077 C 
ATOM     19  C   UNL     1      -5.972   2.026  25.315  0.00  0.00    +0.249 C 
ENDBRANCH   8  11
ENDBRANCH  10   8
BRANCH  13  20
ATOM     20  C   UNL     1       0.804   0.457  23.976  0.00  0.00    +0.139 C 
BRANCH  20   9
ATOM      9  N   UNL     1      -0.460  -0.303  23.924  0.00  0.00    -0.192 NA
ATOM     24  H   UNL     1      -0.698  -0.635  22.979  0.00  0.00    +0.148 HD
BRANCH   9   1
ATOM      1  S   UNL     1      -0.853  -1.351  25.211  0.00  0.00    +0.027 S 
ATOM      6  O   UNL     1      -1.370  -0.586  26.329  0.00  0.00    -0.158 OA
ATOM      7  O   UNL     1       0.242  -2.284  25.394  0.00  0.00    -0.158 OA
ATOM     21  C   UNL     1      -2.207  -2.255  24.495  0.00  0.00    +0.214 C 
ENDBRANCH   9   1
ENDBRANCH  20   9
ENDBRANCH  13  20
TORSDOF 6
ENDMDL
MODEL 4
REMARK VINA RESULT:      -5.4      4.639      6.708
REMARK  Name = 75536656
REMARK  7 active torsions:
REMARK  status: ('A' for Active; 'I' for Inactive)
REMARK    1  A    between atoms: S_1  and  N_9
REMARK    2  A    between atoms: S_1  and  C_21
REMARK    3  A    between atoms: O_5  and  C_12
REMARK    4  A    between atoms: N_8  and  C_10
REMARK    5  A    between atoms: N_8  and  C_11
REMARK    6  A    between atoms: N_9  and  C_20
REMARK    7  A    between atoms: C_13  and  C_20
REMARK                            x       y       z     vdW  Elec       q    Type
REMARK                         _______ _______ _______ _____ _____    ______ ____
ROOT
ATOM      4  O   UNL     1       0.475  -0.984  23.133  0.00  0.00    -0.371 OA
ATOM     10  C   UNL     1      -0.430   0.760  24.468  0.00  0.00    +0.111 C 
ATOM     12  C   UNL     1       0.901   1.214  23.896  0.00  0.00    +0.164 C 
ATOM     13  C   UNL     1       1.051   0.265  22.715  0.00  0.00    +0.164 C 
ATOM     16  C   UNL     1      -0.330  -0.747  24.301  0.00  0.00    +0.181 C 
ENDROOT
BRANCH  12   5
ATOM      5  O   UNL     1       0.885   2.567  23.485  0.00  0.00    -0.388 OA
ATOM     23  H   UNL     1       1.784   2.927  23.580  0.00  0.00    +0.210 HD
ENDBRANCH  12   5
BRANCH  10   8
ATOM      8  N   UNL     1      -0.639   1.165  25.848  0.00  0.00    -0.306 NA
ATOM     22  H   UNL     1       0.122   1.767  26.159  0.00  0.00    +0.123 HD
BRANCH   8  11
ATOM      2  F   UNL     1      -5.236   4.206  25.083  0.00  0.00    -0.206 F 
ATOM      3  F   UNL     1      -3.637   3.857  23.652  0.00  0.00    -0.206 F 
ATOM     11  C   UNL     1      -1.917   1.859  25.996  0.00  0.00    +0.054 C 
ATOM     14  C   UNL     1      -2.924   1.320  24.973  0.00  0.00    +0.024 C 
ATOM     15  C   UNL     1      -1.710   3.370  25.829  0.00  0.00    +0.024 C 
ATOM     17  C   UNL     1      -4.251   2.073  25.049  0.00  0.00    +0.077 C 
ATOM     18  C   UNL     1      -3.037   4.124  25.906  0.00  0.00    +0.077 C 
ATOM     19  C   UNL     1      -4.048   3.573  24.915  0.00  0.00    +0.249 C 
ENDBRANCH   8  11
ENDBRANCH  10   8
BRANCH  13  20
ATOM     20  C   UNL     1       2.494   0.049  22.298  0.00  0.00    +0.139 C 
BRANCH  20   9
ATOM      9  N   UNL     1       3.391   0.771  23.221  0.00  0.00    -0.192 NA
ATOM     24  H   UNL     1       2.892   1.262  23.974  0.00  0.00    +0.148 HD
BRANCH   9   1
ATOM      1  S   UNL     1       4.889   0.072  23.641  0.00  0.00    +0.027 S 
ATOM      6  O   UNL     1       5.353   0.619  24.901  0.00  0.00    -0.158 OA
ATOM      7  O   UNL     1       5.745   0.081  22.469  0.00  0.00    -0.158 OA
ATOM     21  C   UNL     1       4.395  -1.613  23.924  0.00  0.00    +0.214 C 
ENDBRANCH   9   1
ENDBRANCH  20   9
ENDBRANCH  13  20
TORSDOF 6
ENDMDL
MODEL 5
REMARK VINA RESULT:      -5.4      3.153      4.847
REMARK  Name = 75536656
REMARK  7 active torsions:
REMARK  status: ('A' for Active; 'I' for Inactive)
REMARK    1  A    between atoms: S_1  and  N_9
REMARK    2  A    between atoms: S_1  and  C_21
REMARK    3  A    between atoms: O_5  and  C_12
REMARK    4  A    between atoms: N_8  and  C_10
REMARK    5  A    between atoms: N_8  and  C_11
REMARK    6  A    between atoms: N_9  and  C_20
REMARK    7  A    between atoms: C_13  and  C_20
REMARK                            x       y       z     vdW  Elec       q    Type
REMARK                         _______ _______ _______ _____ _____    ______ ____
ROOT
ATOM      4  O   UNL     1      -0.892   0.630  23.317  0.00  0.00    -0.371 OA
ATOM     10  C   UNL     1      -0.957   2.646  24.572  0.00  0.00    +0.111 C 
ATOM     12  C   UNL     1      -0.797   1.474  25.525  0.00  0.00    +0.164 C 
ATOM     13  C   UNL     1      -0.254   0.406  24.586  0.00  0.00    +0.164 C 
ATOM     16  C   UNL     1      -1.466   1.949  23.322  0.00  0.00    +0.181 C 
ENDROOT
BRANCH  12   5
ATOM      5  O   UNL     1       0.099   1.750  26.583  0.00  0.00    -0.388 OA
ATOM     23  H   UNL     1       0.380   0.905  26.975  0.00  0.00    +0.210 HD
ENDBRANCH  12   5
BRANCH  10   8
ATOM      8  N   UNL     1      -1.864   3.672  25.058  0.00  0.00    -0.306 NA
ATOM     22  H   UNL     1      -1.613   4.580  24.668  0.00  0.00    +0.123 HD
BRANCH   8  11
ATOM      2  F   UNL     1      -7.195   2.077  25.112  0.00  0.00    -0.206 F 
ATOM      3  F   UNL     1      -5.806   2.080  26.784  0.00  0.00    -0.206 F 
ATOM     11  C   UNL     1      -3.246   3.346  24.714  0.00  0.00    +0.054 C 
ATOM     14  C   UNL     1      -4.206   4.217  25.534  0.00  0.00    +0.024 C 
ATOM     15  C   UNL     1      -3.505   1.854  24.956  0.00  0.00    +0.024 C 
ATOM     17  C   UNL     1      -5.663   3.854  25.253  0.00  0.00    +0.077 C 
ATOM     18  C   UNL     1      -4.962   1.490  24.675  0.00  0.00    +0.077 C 
ATOM     19  C   UNL     1      -5.918   2.370  25.463  0.00  0.00    +0.249 C 
ENDBRANCH   8  11
ENDBRANCH  10   8
BRANCH  13  20
ATOM     20  C   UNL     1      -0.537  -1.009  25.059  0.00  0.00    +0.139 C 
BRANCH  20   9
ATOM      9  N   UNL     1      -1.614  -1.599  24.241  0.00  0.00    -0.192 NA
ATOM     24  H   UNL     1      -1.270  -2.237  23.511  0.00  0.00    +0.148 HD
BRANCH   9   1
ATOM      1  S   UNL     1      -3.082  -2.037  24.992  0.00  0.00    +0.027 S 
ATOM      6  O   UNL     1      -3.310  -1.201  26.155  0.00  0.00    -0.158 OA
ATOM      7  O   UNL     1      -3.129  -3.483  25.098  0.00  0.00    -0.158 OA
ATOM     21  C   UNL     1      -4.247  -1.559  23.737  0.00  0.00    +0.214 C 
ENDBRANCH   9   1
ENDBRANCH  20   9
ENDBRANCH  13  20
TORSDOF 6
ENDMDL
MODEL 6
REMARK VINA RESULT:      -5.2      4.537      6.521
REMARK  Name = 75536656
REMARK  7 active torsions:
REMARK  status: ('A' for Active; 'I' for Inactive)
REMARK    1  A    between atoms: S_1  and  N_9
REMARK    2  A    between atoms: S_1  and  C_21
REMARK    3  A    between atoms: O_5  and  C_12
REMARK    4  A    between atoms: N_8  and  C_10
REMARK    5  A    between atoms: N_8  and  C_11
REMARK    6  A    between atoms: N_9  and  C_20
REMARK    7  A    between atoms: C_13  and  C_20
REMARK                            x       y       z     vdW  Elec       q    Type
REMARK                         _______ _______ _______ _____ _____    ______ ____
ROOT
ATOM      4  O   UNL     1       0.576   1.966  23.546  0.00  0.00    -0.371 OA
ATOM     10  C   UNL     1      -1.141   0.767  24.668  0.00  0.00    +0.111 C 
ATOM     12  C   UNL     1      -0.114  -0.218  24.137  0.00  0.00    +0.164 C 
ATOM     13  C   UNL     1       1.095   0.689  23.955  0.00  0.00    +0.164 C 
ATOM     16  C   UNL     1      -0.833   2.000  23.834  0.00  0.00    +0.181 C 
ENDROOT
BRANCH  12   5
ATOM      5  O   UNL     1       0.150  -1.272  25.042  0.00  0.00    -0.388 OA
ATOM     23  H   UNL     1      -0.402  -2.034  24.794  0.00  0.00    +0.210 HD
ENDBRANCH  12   5
BRANCH  10   8
ATOM      8  N   UNL     1      -2.514   0.312  24.521  0.00  0.00    -0.306 NA
ATOM     22  H   UNL     1      -2.772  -0.287  25.303  0.00  0.00    +0.123 HD
BRANCH   8  11
ATOM      2  F   UNL     1      -6.257   4.297  25.557  0.00  0.00    -0.206 F 
ATOM      3  F   UNL     1      -5.542   2.774  26.933  0.00  0.00    -0.206 F 
ATOM     11  C   UNL     1      -3.429   1.449  24.440  0.00  0.00    +0.054 C 
ATOM     14  C   UNL     1      -3.010   2.528  25.446  0.00  0.00    +0.024 C 
ATOM     15  C   UNL     1      -4.866   0.979  24.696  0.00  0.00    +0.024 C 
ATOM     17  C   UNL     1      -3.987   3.702  25.440  0.00  0.00    +0.077 C 
ATOM     18  C   UNL     1      -5.844   2.153  24.690  0.00  0.00    +0.077 C 
ATOM     19  C   UNL     1      -5.416   3.238  25.664  0.00  0.00    +0.249 C 
ENDBRANCH   8  11
ENDBRANCH  10   8
BRANCH  13  20
ATOM     20  C   UNL     1       2.077   0.179  22.916  0.00  0.00    +0.139 C 
BRANCH  20   9
ATOM      9  N   UNL     1       3.337   0.943  23.007  0.00  0.00    -0.192 NA
ATOM     24  H   UNL     1       3.209   1.900  23.362  0.00  0.00    +0.148 HD
BRANCH   9   1
ATOM      1  S   UNL     1       4.761   0.142  23.497  0.00  0.00    +0.027 S 
ATOM      6  O   UNL     1       5.225   0.688  24.758  0.00  0.00    -0.158 OA
ATOM      7  O   UNL     1       5.652   0.051  22.356  0.00  0.00    -0.158 OA
ATOM     21  C   UNL     1       4.128  -1.490  23.807  0.00  0.00    +0.214 C 
ENDBRANCH   9   1
ENDBRANCH  20   9
ENDBRANCH  13  20
TORSDOF 6
ENDMDL
MODEL 7
REMARK VINA RESULT:      -4.3      3.716      5.955
REMARK  Name = 75536656
REMARK  7 active torsions:
REMARK  status: ('A' for Active; 'I' for Inactive)
REMARK    1  A    between atoms: S_1  and  N_9
REMARK    2  A    between atoms: S_1  and  C_21
REMARK    3  A    between atoms: O_5  and  C_12
REMARK    4  A    between atoms: N_8  and  C_10
REMARK    5  A    between atoms: N_8  and  C_11
REMARK    6  A    between atoms: N_9  and  C_20
REMARK    7  A    between atoms: C_13  and  C_20
REMARK                            x       y       z     vdW  Elec       q    Type
REMARK                         _______ _______ _______ _____ _____    ______ ____
ROOT
ATOM      4  O   UNL     1      -2.635  -2.019  25.724  0.00  0.00    -0.371 OA
ATOM     10  C   UNL     1      -4.209  -0.406  24.974  0.00  0.00    +0.111 C 
ATOM     12  C   UNL     1      -2.964  -0.322  24.109  0.00  0.00    +0.164 C 
ATOM     13  C   UNL     1      -2.345  -1.691  24.355  0.00  0.00    +0.164 C 
ATOM     16  C   UNL     1      -3.681  -1.148  26.190  0.00  0.00    +0.181 C 
ENDROOT
BRANCH  12   5
ATOM      5  O   UNL     1      -3.262  -0.117  22.742  0.00  0.00    -0.388 OA
ATOM     23  H   UNL     1      -3.973  -0.730  22.488  0.00  0.00    +0.210 HD
ENDBRANCH  12   5
BRANCH  10   8
ATOM      8  N   UNL     1      -4.777   0.891  25.304  0.00  0.00    -0.306 NA
ATOM     22  H   UNL     1      -4.954   0.955  26.305  0.00  0.00    +0.123 HD
BRANCH   8  11
ATOM      2  F   UNL     1      -1.694   5.514  24.986  0.00  0.00    -0.206 F 
ATOM      3  F   UNL     1      -2.946   4.878  26.646  0.00  0.00    -0.206 F 
ATOM     11  C   UNL     1      -3.882   1.969  24.886  0.00  0.00    +0.054 C 
ATOM     14  C   UNL     1      -2.687   2.054  25.844  0.00  0.00    +0.024 C 
ATOM     15  C   UNL     1      -4.652   3.295  24.838  0.00  0.00    +0.024 C 
ATOM     17  C   UNL     1      -1.766   3.217  25.480  0.00  0.00    +0.077 C 
ATOM     18  C   UNL     1      -3.730   4.459  24.474  0.00  0.00    +0.077 C 
ATOM     19  C   UNL     1      -2.529   4.529  25.402  0.00  0.00    +0.249 C 
ENDBRANCH   8  11
ENDBRANCH  10   8
BRANCH  13  20
ATOM     20  C   UNL     1      -0.844  -1.721  24.128  0.00  0.00    +0.139 C 
BRANCH  20   9
ATOM      9  N   UNL     1      -0.226  -0.526  24.735  0.00  0.00    -0.192 NA
ATOM     24  H   UNL     1       0.357  -0.741  25.555  0.00  0.00    +0.148 HD
BRANCH   9   1
ATOM      1  S   UNL     1       0.331   0.727  23.722  0.00  0.00    +0.027 S 
ATOM      6  O   UNL     1       1.085   1.691  24.499  0.00  0.00    -0.158 OA
ATOM      7  O   UNL     1      -0.766   1.154  22.874  0.00  0.00    -0.158 OA
ATOM     21  C   UNL     1       1.477  -0.166  22.696  0.00  0.00    +0.214 C 
ENDBRANCH   9   1
ENDBRANCH  20   9
ENDBRANCH  13  20
TORSDOF 6
ENDMDL
MODEL 8
REMARK VINA RESULT:      -3.9     19.763     20.778
REMARK  Name = 75536656
REMARK  7 active torsions:
REMARK  status: ('A' for Active; 'I' for Inactive)
REMARK    1  A    between atoms: S_1  and  N_9
REMARK    2  A    between atoms: S_1  and  C_21
REMARK    3  A    between atoms: O_5  and  C_12
REMARK    4  A    between atoms: N_8  and  C_10
REMARK    5  A    between atoms: N_8  and  C_11
REMARK    6  A    between atoms: N_9  and  C_20
REMARK    7  A    between atoms: C_13  and  C_20
REMARK                            x       y       z     vdW  Elec       q    Type
REMARK                         _______ _______ _______ _____ _____    ______ ____
ROOT
ATOM      4  O   UNL     1      16.964  -5.609  28.907  0.00  0.00    -0.371 OA
ATOM     10  C   UNL     1      16.507  -5.662  26.576  0.00  0.00    +0.111 C 
ATOM     12  C   UNL     1      16.178  -7.017  27.176  0.00  0.00    +0.164 C 
ATOM     13  C   UNL     1      16.013  -6.654  28.645  0.00  0.00    +0.164 C 
ATOM     16  C   UNL     1      17.405  -5.069  27.649  0.00  0.00    +0.181 C 
ENDROOT
BRANCH  12   5
ATOM      5  O   UNL     1      14.999  -7.581  26.637  0.00  0.00    -0.388 OA
ATOM     23  H   UNL     1      14.778  -7.105  25.819  0.00  0.00    +0.210 HD
ENDBRANCH  12   5
BRANCH  10   8
ATOM      8  N   UNL     1      17.153  -5.742  25.276  0.00  0.00    -0.306 NA
ATOM     22  H   UNL     1      16.621  -6.349  24.655  0.00  0.00    +0.123 HD
BRANCH   8  11
ATOM      2  F   UNL     1      16.423  -1.020  22.424  0.00  0.00    -0.206 F 
ATOM      3  F   UNL     1      15.095  -2.740  22.483  0.00  0.00    -0.206 F 
ATOM     11  C   UNL     1      17.286  -4.413  24.682  0.00  0.00    +0.054 C 
ATOM     14  C   UNL     1      16.122  -3.522  25.132  0.00  0.00    +0.024 C 
ATOM     15  C   UNL     1      17.338  -4.530  23.154  0.00  0.00    +0.024 C 
ATOM     17  C   UNL     1      16.188  -2.146  24.473  0.00  0.00    +0.077 C 
ATOM     18  C   UNL     1      17.405  -3.153  22.494  0.00  0.00    +0.077 C 
ATOM     19  C   UNL     1      16.270  -2.257  22.960  0.00  0.00    +0.249 C 
ENDBRANCH   8  11
ENDBRANCH  10   8
BRANCH  13  20
ATOM     20  C   UNL     1      16.262  -7.821  29.584  0.00  0.00    +0.139 C 
BRANCH  20   9
ATOM      9  N   UNL     1      15.305  -8.905  29.294  0.00  0.00    -0.192 NA
ATOM     24  H   UNL     1      15.743  -9.735  28.872  0.00  0.00    +0.148 HD
BRANCH   9   1
ATOM      1  S   UNL     1      14.029  -9.202  30.387  0.00  0.00    +0.027 S 
ATOM      6  O   UNL     1      13.153 -10.229  29.855  0.00  0.00    -0.158 OA
ATOM      7  O   UNL     1      13.495  -7.927  30.826  0.00  0.00    -0.158 OA
ATOM     21  C   UNL     1      14.925  -9.901  31.754  0.00  0.00    +0.214 C 
ENDBRANCH   9   1
ENDBRANCH  20   9
ENDBRANCH  13  20
TORSDOF 6
ENDMDL
MODEL 9
REMARK VINA RESULT:      -3.6      3.460      5.482
REMARK  Name = 75536656
REMARK  7 active torsions:
REMARK  status: ('A' for Active; 'I' for Inactive)
REMARK    1  A    between atoms: S_1  and  N_9
REMARK    2  A    between atoms: S_1  and  C_21
REMARK    3  A    between atoms: O_5  and  C_12
REMARK    4  A    between atoms: N_8  and  C_10
REMARK    5  A    between atoms: N_8  and  C_11
REMARK    6  A    between atoms: N_9  and  C_20
REMARK    7  A    between atoms: C_13  and  C_20
REMARK                            x       y       z     vdW  Elec       q    Type
REMARK                         _______ _______ _______ _____ _____    ______ ____
ROOT
ATOM      4  O   UNL     1      -2.136  -2.100  25.167  0.00  0.00    -0.371 OA
ATOM     10  C   UNL     1      -3.700  -0.780  23.961  0.00  0.00    +0.111 C 
ATOM     12  C   UNL     1      -2.449   0.043  24.216  0.00  0.00    +0.164 C 
ATOM     13  C   UNL     1      -1.427  -1.054  24.482  0.00  0.00    +0.164 C 
ATOM     16  C   UNL     1      -3.548  -1.885  24.993  0.00  0.00    +0.181 C 
ENDROOT
BRANCH  12   5
ATOM      5  O   UNL     1      -2.087   0.842  23.107  0.00  0.00    -0.388 OA
ATOM     23  H   UNL     1      -2.687   1.607  23.071  0.00  0.00    +0.210 HD
ENDBRANCH  12   5
BRANCH  10   8
ATOM      8  N   UNL     1      -4.933  -0.027  24.115  0.00  0.00    -0.306 NA
ATOM     22  H   UNL     1      -5.630  -0.587  24.605  0.00  0.00    +0.123 HD
BRANCH   8  11
ATOM      2  F   UNL     1      -5.227   5.096  26.269  0.00  0.00    -0.206 F 
ATOM      3  F   UNL     1      -6.643   4.155  24.914  0.00  0.00    -0.206 F 
ATOM     11  C   UNL     1      -4.692   1.218  24.842  0.00  0.00    +0.054 C 
ATOM     14  C   UNL     1      -5.837   1.473  25.831  0.00  0.00    +0.024 C 
ATOM     15  C   UNL     1      -4.545   2.379  23.851  0.00  0.00    +0.024 C 
ATOM     17  C   UNL     1      -5.656   2.803  26.559  0.00  0.00    +0.077 C 
ATOM     18  C   UNL     1      -4.363   3.711  24.580  0.00  0.00    +0.077 C 
ATOM     19  C   UNL     1      -5.479   3.953  25.582  0.00  0.00    +0.249 C 
ENDBRANCH   8  11
ENDBRANCH  10   8
BRANCH  13  20
ATOM     20  C   UNL     1      -0.256  -0.590  25.329  0.00  0.00    +0.139 C 
BRANCH  20   9
ATOM      9  N   UNL     1      -0.630   0.631  26.068  0.00  0.00    -0.192 NA
ATOM     24  H   UNL     1      -0.764   0.473  27.076  0.00  0.00    +0.148 HD
BRANCH   9   1
ATOM      1  S   UNL     1       0.076   2.120  25.627  0.00  0.00    +0.027 S 
ATOM      6  O   UNL     1       0.567   2.047  24.264  0.00  0.00    -0.158 OA
ATOM      7  O   UNL     1       0.943   2.554  26.706  0.00  0.00    -0.158 OA
ATOM     21  C   UNL     1      -1.355   3.176  25.638  0.00  0.00    +0.214 C 
ENDBRANCH   9   1
ENDBRANCH  20   9
ENDBRANCH  13  20
TORSDOF 6
ENDMDL
MODEL 10
REMARK VINA RESULT:      -3.4      3.776      5.858
REMARK  Name = 75536656
REMARK  7 active torsions:
REMARK  status: ('A' for Active; 'I' for Inactive)
REMARK    1  A    between atoms: S_1  and  N_9
REMARK    2  A    between atoms: S_1  and  C_21
REMARK    3  A    between atoms: O_5  and  C_12
REMARK    4  A    between atoms: N_8  and  C_10
REMARK    5  A    between atoms: N_8  and  C_11
REMARK    6  A    between atoms: N_9  and  C_20
REMARK    7  A    between atoms: C_13  and  C_20
REMARK                            x       y       z     vdW  Elec       q    Type
REMARK                         _______ _______ _______ _____ _____    ______ ____
ROOT
ATOM      4  O   UNL     1      -1.798  -1.395  26.160  0.00  0.00    -0.371 OA
ATOM     10  C   UNL     1      -4.007  -1.058  25.355  0.00  0.00    +0.111 C 
ATOM     12  C   UNL     1      -3.127  -1.519  24.207  0.00  0.00    +0.164 C 
ATOM     13  C   UNL     1      -1.978  -2.171  24.964  0.00  0.00    +0.164 C 
ATOM     16  C   UNL     1      -2.969  -0.583  26.358  0.00  0.00    +0.181 C 
ENDROOT
BRANCH  12   5
ATOM      5  O   UNL     1      -3.781  -2.435  23.351  0.00  0.00    -0.388 OA
ATOM     23  H   UNL     1      -3.123  -2.808  22.741  0.00  0.00    +0.210 HD
ENDBRANCH  12   5
BRANCH  10   8
ATOM      8  N   UNL     1      -4.952  -0.018  24.983  0.00  0.00    -0.306 NA
ATOM     22  H   UNL     1      -5.817  -0.120  25.513  0.00  0.00    +0.123 HD
BRANCH   8  11
ATOM      2  F   UNL     1      -3.265   5.268  24.556  0.00  0.00    -0.206 F 
ATOM      3  F   UNL     1      -4.339   4.105  23.065  0.00  0.00    -0.206 F 
ATOM     11  C   UNL     1      -4.380   1.307  25.213  0.00  0.00    +0.054 C 
ATOM     14  C   UNL     1      -5.485   2.369  25.153  0.00  0.00    +0.024 C 
ATOM     15  C   UNL     1      -3.284   1.587  24.177  0.00  0.00    +0.024 C 
ATOM     17  C   UNL     1      -4.913   3.776  25.317  0.00  0.00    +0.077 C 
ATOM     18  C   UNL     1      -2.711   2.995  24.341  0.00  0.00    +0.077 C 
ATOM     19  C   UNL     1      -3.806   4.048  24.313  0.00  0.00    +0.249 C 
ENDBRANCH   8  11
ENDBRANCH  10   8
BRANCH  13  20
ATOM     20  C   UNL     1      -0.681  -2.204  24.175  0.00  0.00    +0.139 C 
BRANCH  20   9
ATOM      9  N   UNL     1       0.170  -1.065  24.570  0.00  0.00    -0.192 NA
ATOM     24  H   UNL     1       0.976  -1.339  25.147  0.00  0.00    +0.148 HD
BRANCH   9   1
ATOM      1  S   UNL     1       0.435   0.200  23.456  0.00  0.00    +0.027 S 
ATOM      6  O   UNL     1      -0.747   0.394  22.640  0.00  0.00    -0.158 OA
ATOM      7  O   UNL     1       1.736   0.006  22.844  0.00  0.00    -0.158 OA
ATOM     21  C   UNL     1       0.571   1.586  24.562  0.00  0.00    +0.214 C 
ENDBRANCH   9   1
ENDBRANCH  20   9
ENDBRANCH  13  20
TORSDOF 6
ENDMDL
