MODEL 1
REMARK VINA RESULT:       2.1      0.000      0.000
REMARK  Name = 11879572
REMARK  9 active torsions:
REMARK  status: ('A' for Active; 'I' for Inactive)
REMARK    1  A    between atoms: O_3  and  C_19
REMARK    2  A    between atoms: O_3  and  C_21
REMARK    3  A    between atoms: N_5  and  C_15
REMARK    4  A    between atoms: N_6  and  C_16
REMARK    5  A    between atoms: N_10  and  C_22
REMARK    6  A    between atoms: N_11  and  C_27
REMARK    7  A    between atoms: N_11  and  C_33
REMARK    8  A    between atoms: N_11  and  C_34
REMARK    9  A    between atoms: C_30  and  C_35
REMARK                            x       y       z     vdW  Elec       q    Type
REMARK                         _______ _______ _______ _____ _____    ______ ____
ROOT
ATOM      1  O   UNL     1      -3.706   5.016  26.567  0.00  0.00    -0.370 OA
ATOM      2  O   UNL     1      -3.030   4.002  23.668  0.00  0.00    -0.370 OA
ATOM     13  C   UNL     1      -3.506   3.359  24.864  0.00  0.00    +0.176 C 
ATOM     14  C   UNL     1      -2.812   4.025  26.037  0.00  0.00    +0.172 C 
ATOM     15  C   UNL     1      -4.978   3.667  25.063  0.00  0.00    +0.171 C 
ATOM     16  C   UNL     1      -1.597   4.687  25.425  0.00  0.00    +0.131 C 
ATOM     17  C   UNL     1      -4.952   4.966  25.859  0.00  0.00    +0.190 C 
ATOM     18  C   UNL     1      -2.080   5.016  24.024  0.00  0.00    +0.185 C 
ENDROOT
BRANCH  16   6
ATOM      4  O   UNL     1      -0.870   2.931  23.282  0.00  0.00    -0.252 OA
ATOM      6  N   UNL     1      -0.471   3.785  25.394  0.00  0.00    -0.292 N 
ATOM     10  N   UNL     1       0.960   2.197  24.556  0.00  0.00    -0.269 N 
ATOM     20  C   UNL     1      -0.185   2.958  24.302  0.00  0.00    +0.304 C 
ATOM     36  H   UNL     1       0.102   3.697  26.227  0.00  0.00    +0.151 HD
ATOM     37  H   UNL     1       1.412   2.341  25.456  0.00  0.00    +0.156 HD
BRANCH  10  22
ATOM     22  C   UNL     1       1.576   1.246  23.709  0.00  0.00    +0.036 A 
ATOM     25  C   UNL     1       2.954   1.107  23.732  0.00  0.00    +0.042 A 
ATOM     26  C   UNL     1       0.787   0.474  22.871  0.00  0.00    +0.023 A 
ATOM     30  C   UNL     1       3.560   0.171  22.895  0.00  0.00    +0.054 A 
ATOM     31  C   UNL     1       1.394  -0.463  22.035  0.00  0.00    +0.003 A 
ATOM     32  C   UNL     1       2.781  -0.614  22.047  0.00  0.00    +0.019 A 
BRANCH  30  35
ATOM     12  N   UNL     1       6.136  -0.113  22.920  0.00  0.00    -0.191 NA
ATOM     35  C   UNL     1       4.980   0.014  22.908  0.00  0.00    +0.099 C 
ENDBRANCH  30  35
ENDBRANCH  10  22
ENDBRANCH  16   6
BRANCH  15   5
ATOM      5  N   UNL     1      -5.702   2.563  25.700  0.00  0.00    -0.187 N 
ATOM      7  N   UNL     1      -6.426   2.764  26.804  0.00  0.00    -0.041 NA
ATOM      8  N   UNL     1      -6.526   0.625  26.184  0.00  0.00    -0.071 NA
ATOM      9  N   UNL     1      -6.931   1.572  27.098  0.00  0.00    -0.020 NA
ATOM     19  C   UNL     1      -5.765   1.264  25.325  0.00  0.00    +0.342 A 
BRANCH  19   3
ATOM      3  O   UNL     1      -5.156   0.746  24.276  0.00  0.00    -0.423 OA
BRANCH   3  21
ATOM     21  C   UNL     1      -4.305  -0.347  24.368  0.00  0.00    +0.134 A 
ATOM     23  C   UNL     1      -3.064  -0.184  24.951  0.00  0.00    +0.069 A 
ATOM     24  C   UNL     1      -4.726  -1.567  23.873  0.00  0.00    +0.046 A 
ATOM     27  C   UNL     1      -2.209  -1.283  25.042  0.00  0.00    +0.033 A 
ATOM     28  C   UNL     1      -3.871  -2.665  23.965  0.00  0.00    +0.005 A 
ATOM     29  C   UNL     1      -2.613  -2.524  24.549  0.00  0.00    +0.023 A 
BRANCH  27  11
ATOM     11  N   UNL     1      -0.936  -1.138  25.632  0.00  0.00    -0.336 N 
ATOM     33  C   UNL     1      -0.636   0.015  26.457  0.00  0.00    +0.129 C 
ATOM     34  C   UNL     1       0.094  -2.132  25.408  0.00  0.00    +0.129 C 
ENDBRANCH  27  11
ENDBRANCH   3  21
ENDBRANCH  19   3
ENDBRANCH  15   5
TORSDOF 7
ENDMDL
MODEL 2
REMARK VINA RESULT:       5.8      1.766      4.358
REMARK  Name = 11879572
REMARK  9 active torsions:
REMARK  status: ('A' for Active; 'I' for Inactive)
REMARK    1  A    between atoms: O_3  and  C_19
REMARK    2  A    between atoms: O_3  and  C_21
REMARK    3  A    between atoms: N_5  and  C_15
REMARK    4  A    between atoms: N_6  and  C_16
REMARK    5  A    between atoms: N_10  and  C_22
REMARK    6  A    between atoms: N_11  and  C_27
REMARK    7  A    between atoms: N_11  and  C_33
REMARK    8  A    between atoms: N_11  and  C_34
REMARK    9  A    between atoms: C_30  and  C_35
REMARK                            x       y       z     vdW  Elec       q    Type
REMARK                         _______ _______ _______ _____ _____    ______ ____
ROOT
ATOM      1  O   UNL     1      -4.406  -0.924  23.396  0.00  0.00    -0.370 OA
ATOM      2  O   UNL     1      -3.473  -1.569  26.329  0.00  0.00    -0.370 OA
ATOM     13  C   UNL     1      -3.542  -0.364  25.546  0.00  0.00    +0.176 C 
ATOM     14  C   UNL     1      -3.181  -0.734  24.120  0.00  0.00    +0.172 C 
ATOM     15  C   UNL     1      -4.979   0.118  25.466  0.00  0.00    +0.171 C 
ATOM     16  C   UNL     1      -2.440  -2.046  24.251  0.00  0.00    +0.131 C 
ATOM     17  C   UNL     1      -5.519  -0.619  24.246  0.00  0.00    +0.190 C 
ATOM     18  C   UNL     1      -3.084  -2.659  25.482  0.00  0.00    +0.185 C 
ENDROOT
BRANCH  16   6
ATOM      4  O   UNL     1      -0.773  -0.193  22.839  0.00  0.00    -0.252 OA
ATOM      6  N   UNL     1      -1.027  -1.830  24.452  0.00  0.00    -0.292 N 
ATOM     10  N   UNL     1       1.053  -0.911  24.128  0.00  0.00    -0.269 N 
ATOM     20  C   UNL     1      -0.283  -0.900  23.716  0.00  0.00    +0.304 C 
ATOM     36  H   UNL     1      -0.535  -2.426  25.111  0.00  0.00    +0.151 HD
ATOM     37  H   UNL     1       1.294  -1.561  24.872  0.00  0.00    +0.156 HD
BRANCH  10  22
ATOM     22  C   UNL     1       2.119  -0.124  23.635  0.00  0.00    +0.036 A 
ATOM     25  C   UNL     1       3.403  -0.645  23.632  0.00  0.00    +0.042 A 
ATOM     26  C   UNL     1       1.858   1.154  23.168  0.00  0.00    +0.023 A 
ATOM     30  C   UNL     1       4.454   0.134  23.149  0.00  0.00    +0.054 A 
ATOM     31  C   UNL     1       2.910   1.932  22.684  0.00  0.00    +0.003 A 
ATOM     32  C   UNL     1       4.208   1.422  22.674  0.00  0.00    +0.019 A 
BRANCH  30  35
ATOM     12  N   UNL     1       6.866  -0.815  23.128  0.00  0.00    -0.191 NA
ATOM     35  C   UNL     1       5.784  -0.389  23.138  0.00  0.00    +0.099 C 
ENDBRANCH  30  35
ENDBRANCH  10  22
ENDBRANCH  16   6
BRANCH  15   5
ATOM      5  N   UNL     1      -5.079   1.578  25.405  0.00  0.00    -0.187 N 
ATOM      7  N   UNL     1      -6.126   2.216  25.937  0.00  0.00    -0.041 NA
ATOM      8  N   UNL     1      -4.704   3.672  25.026  0.00  0.00    -0.071 NA
ATOM      9  N   UNL     1      -5.892   3.501  25.703  0.00  0.00    -0.020 NA
ATOM     19  C   UNL     1      -4.219   2.464  24.853  0.00  0.00    +0.342 A 
BRANCH  19   3
ATOM      3  O   UNL     1      -3.090   2.149  24.247  0.00  0.00    -0.423 OA
BRANCH   3  21
ATOM     21  C   UNL     1      -1.866   2.691  24.615  0.00  0.00    +0.134 A 
ATOM     23  C   UNL     1      -1.261   2.252  25.776  0.00  0.00    +0.069 A 
ATOM     24  C   UNL     1      -1.290   3.655  23.810  0.00  0.00    +0.046 A 
ATOM     27  C   UNL     1      -0.031   2.798  26.146  0.00  0.00    +0.033 A 
ATOM     28  C   UNL     1      -0.062   4.200  24.180  0.00  0.00    +0.005 A 
ATOM     29  C   UNL     1       0.569   3.772  25.348  0.00  0.00    +0.023 A 
BRANCH  27  11
ATOM     11  N   UNL     1       0.604   2.365  27.329  0.00  0.00    -0.336 N 
ATOM     33  C   UNL     1       0.140   1.179  28.019  0.00  0.00    +0.129 C 
ATOM     34  C   UNL     1       1.721   3.109  27.877  0.00  0.00    +0.129 C 
ENDBRANCH  27  11
ENDBRANCH   3  21
ENDBRANCH  19   3
ENDBRANCH  15   5
TORSDOF 7
ENDMDL
