MODEL 1
REMARK VINA RESULT:       2.5      0.000      0.000
REMARK  Name = 75368621
REMARK  8 active torsions:
REMARK  status: ('A' for Active; 'I' for Inactive)
REMARK    1  A    between atoms: O_2  and  C_17
REMARK    2  A    between atoms: O_2  and  C_27
REMARK    3  A    between atoms: O_3  and  C_26
REMARK    4  A    between atoms: O_3  and  C_28
REMARK    5  A    between atoms: N_5  and  C_13
REMARK    6  A    between atoms: N_6  and  C_14
REMARK    7  A    between atoms: C_13  and  C_15
REMARK    8  A    between atoms: C_14  and  C_16
REMARK                            x       y       z     vdW  Elec       q    Type
REMARK                         _______ _______ _______ _____ _____    ______ ____
ROOT
ATOM      1  O   UNL     1      -2.119  -3.265  23.567  0.00  0.00    -0.252 OA
ATOM      4  N   UNL     1      -3.209  -1.555  24.752  0.00  0.00    -0.278 N 
ATOM      5  N   UNL     1      -4.841   0.689  25.217  0.00  0.00    -0.295 NA
ATOM      6  N   UNL     1      -1.052  -1.968  25.223  0.00  0.00    -0.279 N 
ATOM      7  C   UNL     1      -2.910  -0.688  25.873  0.00  0.00    +0.109 C 
ATOM      8  C   UNL     1      -3.415   0.728  25.601  0.00  0.00    +0.109 C 
ATOM      9  C   UNL     1      -1.395  -0.810  26.030  0.00  0.00    +0.133 C 
ATOM     10  C   UNL     1      -4.547  -1.560  24.198  0.00  0.00    +0.125 C 
ATOM     11  C   UNL     1      -5.035  -0.123  23.998  0.00  0.00    +0.104 C 
ATOM     12  C   UNL     1      -2.127  -2.378  24.410  0.00  0.00    +0.305 C 
ENDROOT
BRANCH   5  13
ATOM     13  C   UNL     1      -5.351   2.044  25.014  0.00  0.00    +0.123 C 
BRANCH  13  15
ATOM     15  C   UNL     1      -4.267   3.076  25.130  0.00  0.00    +0.008 A 
ATOM     17  C   UNL     1      -3.459   3.387  24.035  0.00  0.00    +0.124 A 
ATOM     18  C   UNL     1      -4.072   3.727  26.347  0.00  0.00    +0.008 A 
ATOM     21  C   UNL     1      -2.456   4.348  24.159  0.00  0.00    +0.046 A 
ATOM     22  C   UNL     1      -3.069   4.689  26.472  0.00  0.00    +0.001 A 
ATOM     25  C   UNL     1      -2.261   4.999  25.378  0.00  0.00    +0.004 A 
BRANCH  17   2
ATOM      2  O   UNL     1      -3.636   2.761  22.838  0.00  0.00    -0.495 OA
ATOM     27  C   UNL     1      -2.528   2.027  22.321  0.00  0.00    +0.277 C 
ENDBRANCH  17   2
ENDBRANCH  13  15
ENDBRANCH   5  13
BRANCH   6  14
ATOM     14  C   UNL     1       0.291  -2.503  25.181  0.00  0.00    +0.144 C 
BRANCH  14  16
ATOM     16  C   UNL     1       1.213  -1.644  24.363  0.00  0.00    -0.030 A 
ATOM     19  C   UNL     1       2.581  -1.912  24.345  0.00  0.00    +0.009 A 
ATOM     20  C   UNL     1       0.700  -0.581  23.621  0.00  0.00    +0.009 A 
ATOM     23  C   UNL     1       3.438  -1.114  23.585  0.00  0.00    +0.046 A 
ATOM     24  C   UNL     1       1.556   0.216  22.861  0.00  0.00    +0.046 A 
ATOM     26  C   UNL     1       2.925  -0.051  22.843  0.00  0.00    +0.120 A 
BRANCH  26   3
ATOM      3  O   UNL     1       3.760   0.728  22.103  0.00  0.00    -0.495 OA
ATOM     28  C   UNL     1       5.024   1.054  22.679  0.00  0.00    +0.277 C 
ENDBRANCH  26   3
ENDBRANCH  14  16
ENDBRANCH   6  14
TORSDOF 6
ENDMDL
MODEL 2
REMARK VINA RESULT:       3.4      2.070      3.341
REMARK  Name = 75368621
REMARK  8 active torsions:
REMARK  status: ('A' for Active; 'I' for Inactive)
REMARK    1  A    between atoms: O_2  and  C_17
REMARK    2  A    between atoms: O_2  and  C_27
REMARK    3  A    between atoms: O_3  and  C_26
REMARK    4  A    between atoms: O_3  and  C_28
REMARK    5  A    between atoms: N_5  and  C_13
REMARK    6  A    between atoms: N_6  and  C_14
REMARK    7  A    between atoms: C_13  and  C_15
REMARK    8  A    between atoms: C_14  and  C_16
REMARK                            x       y       z     vdW  Elec       q    Type
REMARK                         _______ _______ _______ _____ _____    ______ ____
ROOT
ATOM      1  O   UNL     1       0.037  -1.598  24.219  0.00  0.00    -0.252 OA
ATOM      4  N   UNL     1      -0.470   0.542  25.043  0.00  0.00    -0.278 N 
ATOM      5  N   UNL     1      -2.021   2.717  25.924  0.00  0.00    -0.295 NA
ATOM      6  N   UNL     1       1.092   0.362  23.439  0.00  0.00    -0.279 N 
ATOM      7  C   UNL     1       0.052   1.885  24.892  0.00  0.00    +0.109 C 
ATOM      8  C   UNL     1      -1.092   2.892  24.789  0.00  0.00    +0.109 C 
ATOM      9  C   UNL     1       0.939   1.791  23.651  0.00  0.00    +0.133 C 
ATOM     10  C   UNL     1      -1.498   0.288  26.030  0.00  0.00    +0.125 C 
ATOM     11  C   UNL     1      -2.593   1.355  25.931  0.00  0.00    +0.104 C 
ATOM     12  C   UNL     1       0.201  -0.386  24.234  0.00  0.00    +0.305 C 
ENDROOT
BRANCH   5  13
ATOM     13  C   UNL     1      -3.087   3.716  25.868  0.00  0.00    +0.123 C 
BRANCH  13  15
ATOM     15  C   UNL     1      -4.412   3.106  25.513  0.00  0.00    +0.008 A 
ATOM     17  C   UNL     1      -4.729   2.812  24.186  0.00  0.00    +0.124 A 
ATOM     18  C   UNL     1      -5.331   2.832  26.526  0.00  0.00    +0.008 A 
ATOM     21  C   UNL     1      -5.964   2.245  23.873  0.00  0.00    +0.046 A 
ATOM     22  C   UNL     1      -6.566   2.265  26.213  0.00  0.00    +0.001 A 
ATOM     25  C   UNL     1      -6.883   1.971  24.887  0.00  0.00    +0.004 A 
BRANCH  17   2
ATOM      2  O   UNL     1      -3.842   3.072  23.184  0.00  0.00    -0.495 OA
ATOM     27  C   UNL     1      -3.164   1.954  22.614  0.00  0.00    +0.277 C 
ENDBRANCH  17   2
ENDBRANCH  13  15
ENDBRANCH   5  13
BRANCH   6  14
ATOM     14  C   UNL     1       1.960  -0.172  22.413  0.00  0.00    +0.144 C 
BRANCH  14  16
ATOM     16  C   UNL     1       3.395  -0.216  22.857  0.00  0.00    -0.030 A 
ATOM     19  C   UNL     1       3.892  -1.353  23.492  0.00  0.00    +0.009 A 
ATOM     20  C   UNL     1       4.227   0.880  22.635  0.00  0.00    +0.009 A 
ATOM     23  C   UNL     1       5.225  -1.394  23.906  0.00  0.00    +0.046 A 
ATOM     24  C   UNL     1       5.559   0.840  23.049  0.00  0.00    +0.046 A 
ATOM     26  C   UNL     1       6.057  -0.298  23.683  0.00  0.00    +0.120 A 
BRANCH  26   3
ATOM      3  O   UNL     1       7.356  -0.337  24.087  0.00  0.00    -0.495 OA
ATOM     28  C   UNL     1       8.354  -0.351  23.066  0.00  0.00    +0.277 C 
ENDBRANCH  26   3
ENDBRANCH  14  16
ENDBRANCH   6  14
TORSDOF 6
ENDMDL
MODEL 3
REMARK VINA RESULT:       4.4      1.935      3.061
REMARK  Name = 75368621
REMARK  8 active torsions:
REMARK  status: ('A' for Active; 'I' for Inactive)
REMARK    1  A    between atoms: O_2  and  C_17
REMARK    2  A    between atoms: O_2  and  C_27
REMARK    3  A    between atoms: O_3  and  C_26
REMARK    4  A    between atoms: O_3  and  C_28
REMARK    5  A    between atoms: N_5  and  C_13
REMARK    6  A    between atoms: N_6  and  C_14
REMARK    7  A    between atoms: C_13  and  C_15
REMARK    8  A    between atoms: C_14  and  C_16
REMARK                            x       y       z     vdW  Elec       q    Type
REMARK                         _______ _______ _______ _____ _____    ______ ____
ROOT
ATOM      1  O   UNL     1      -0.137  -2.669  22.605  0.00  0.00    -0.252 OA
ATOM      4  N   UNL     1      -1.289  -1.325  24.150  0.00  0.00    -0.278 N 
ATOM      5  N   UNL     1      -3.454  -0.213  25.561  0.00  0.00    -0.295 NA
ATOM      6  N   UNL     1       0.363  -0.389  22.950  0.00  0.00    -0.279 N 
ATOM      7  C   UNL     1      -1.164   0.014  24.687  0.00  0.00    +0.109 C 
ATOM      8  C   UNL     1      -2.539   0.669  24.807  0.00  0.00    +0.109 C 
ATOM      9  C   UNL     1      -0.207   0.704  23.717  0.00  0.00    +0.133 C 
ATOM     10  C   UNL     1      -2.266  -2.229  24.720  0.00  0.00    +0.125 C 
ATOM     11  C   UNL     1      -3.610  -1.514  24.879  0.00  0.00    +0.104 C 
ATOM     12  C   UNL     1      -0.328  -1.598  23.167  0.00  0.00    +0.305 C 
ENDROOT
BRANCH   5  13
ATOM     13  C   UNL     1      -4.755   0.431  25.735  0.00  0.00    +0.123 C 
BRANCH  13  15
ATOM     15  C   UNL     1      -4.753   1.846  25.234  0.00  0.00    +0.008 A 
ATOM     17  C   UNL     1      -5.378   2.860  25.960  0.00  0.00    +0.124 A 
ATOM     18  C   UNL     1      -4.118   2.142  24.028  0.00  0.00    +0.008 A 
ATOM     21  C   UNL     1      -5.367   4.170  25.481  0.00  0.00    +0.046 A 
ATOM     22  C   UNL     1      -4.107   3.452  23.548  0.00  0.00    +0.001 A 
ATOM     25  C   UNL     1      -4.731   4.466  24.274  0.00  0.00    +0.004 A 
BRANCH  17   2
ATOM      2  O   UNL     1      -6.002   2.589  27.141  0.00  0.00    -0.495 OA
ATOM     27  C   UNL     1      -6.955   1.528  27.140  0.00  0.00    +0.277 C 
ENDBRANCH  17   2
ENDBRANCH  13  15
ENDBRANCH   5  13
BRANCH   6  14
ATOM     14  C   UNL     1       1.415  -0.180  21.980  0.00  0.00    +0.144 C 
BRANCH  14  16
ATOM     16  C   UNL     1       2.776  -0.195  22.615  0.00  0.00    -0.030 A 
ATOM     19  C   UNL     1       3.592   0.934  22.539  0.00  0.00    +0.009 A 
ATOM     20  C   UNL     1       3.223  -1.336  23.279  0.00  0.00    +0.009 A 
ATOM     23  C   UNL     1       4.857   0.920  23.129  0.00  0.00    +0.046 A 
ATOM     24  C   UNL     1       4.488  -1.350  23.868  0.00  0.00    +0.046 A 
ATOM     26  C   UNL     1       5.304  -0.221  23.794  0.00  0.00    +0.120 A 
BRANCH  26   3
ATOM      3  O   UNL     1       6.538  -0.235  24.368  0.00  0.00    -0.495 OA
ATOM     28  C   UNL     1       7.662  -0.249  23.489  0.00  0.00    +0.277 C 
ENDBRANCH  26   3
ENDBRANCH  14  16
ENDBRANCH   6  14
TORSDOF 6
ENDMDL
MODEL 4
REMARK VINA RESULT:       4.5      1.478      2.205
REMARK  Name = 75368621
REMARK  8 active torsions:
REMARK  status: ('A' for Active; 'I' for Inactive)
REMARK    1  A    between atoms: O_2  and  C_17
REMARK    2  A    between atoms: O_2  and  C_27
REMARK    3  A    between atoms: O_3  and  C_26
REMARK    4  A    between atoms: O_3  and  C_28
REMARK    5  A    between atoms: N_5  and  C_13
REMARK    6  A    between atoms: N_6  and  C_14
REMARK    7  A    between atoms: C_13  and  C_15
REMARK    8  A    between atoms: C_14  and  C_16
REMARK                            x       y       z     vdW  Elec       q    Type
REMARK                         _______ _______ _______ _____ _____    ______ ____
ROOT
ATOM      1  O   UNL     1      -0.910  -2.717  23.140  0.00  0.00    -0.252 OA
ATOM      4  N   UNL     1      -1.520  -0.897  24.494  0.00  0.00    -0.278 N 
ATOM      5  N   UNL     1      -3.166   1.016  25.735  0.00  0.00    -0.295 NA
ATOM      6  N   UNL     1       0.307  -0.697  23.201  0.00  0.00    -0.279 N 
ATOM      7  C   UNL     1      -0.954   0.385  24.860  0.00  0.00    +0.109 C 
ATOM      8  C   UNL     1      -2.041   1.458  24.885  0.00  0.00    +0.109 C 
ATOM      9  C   UNL     1       0.143   0.607  23.820  0.00  0.00    +0.133 C 
ATOM     10  C   UNL     1      -2.716  -1.362  25.164  0.00  0.00    +0.125 C 
ATOM     11  C   UNL     1      -3.754  -0.237  25.219  0.00  0.00    +0.104 C 
ATOM     12  C   UNL     1      -0.729  -1.582  23.561  0.00  0.00    +0.305 C 
ENDROOT
BRANCH   5  13
ATOM     13  C   UNL     1      -4.185   2.062  25.815  0.00  0.00    +0.123 C 
BRANCH  13  15
ATOM     15  C   UNL     1      -3.640   3.409  25.439  0.00  0.00    +0.008 A 
ATOM     17  C   UNL     1      -3.645   3.835  24.111  0.00  0.00    +0.124 A 
ATOM     18  C   UNL     1      -3.124   4.238  26.435  0.00  0.00    +0.008 A 
ATOM     21  C   UNL     1      -3.135   5.090  23.778  0.00  0.00    +0.046 A 
ATOM     22  C   UNL     1      -2.613   5.493  26.103  0.00  0.00    +0.001 A 
ATOM     25  C   UNL     1      -2.618   5.919  24.774  0.00  0.00    +0.004 A 
BRANCH  17   2
ATOM      2  O   UNL     1      -4.147   3.038  23.125  0.00  0.00    -0.495 OA
ATOM     27  C   UNL     1      -3.210   2.470  22.213  0.00  0.00    +0.277 C 
ENDBRANCH  17   2
ENDBRANCH  13  15
ENDBRANCH   5  13
BRANCH   6  14
ATOM     14  C   UNL     1       1.338  -0.957  22.221  0.00  0.00    +0.144 C 
BRANCH  14  16
ATOM     16  C   UNL     1       2.697  -0.552  22.716  0.00  0.00    -0.030 A 
ATOM     19  C   UNL     1       3.210   0.704  22.391  0.00  0.00    +0.009 A 
ATOM     20  C   UNL     1       3.445  -1.429  23.499  0.00  0.00    +0.009 A 
ATOM     23  C   UNL     1       4.473   1.081  22.850  0.00  0.00    +0.046 A 
ATOM     24  C   UNL     1       4.707  -1.053  23.958  0.00  0.00    +0.046 A 
ATOM     26  C   UNL     1       5.221   0.203  23.634  0.00  0.00    +0.120 A 
BRANCH  26   3
ATOM      3  O   UNL     1       6.453   0.570  24.081  0.00  0.00    -0.495 OA
ATOM     28  C   UNL     1       7.576  -0.099  23.508  0.00  0.00    +0.277 C 
ENDBRANCH  26   3
ENDBRANCH  14  16
ENDBRANCH   6  14
TORSDOF 6
ENDMDL
MODEL 5
REMARK VINA RESULT:       4.9      2.219      3.645
REMARK  Name = 75368621
REMARK  8 active torsions:
REMARK  status: ('A' for Active; 'I' for Inactive)
REMARK    1  A    between atoms: O_2  and  C_17
REMARK    2  A    between atoms: O_2  and  C_27
REMARK    3  A    between atoms: O_3  and  C_26
REMARK    4  A    between atoms: O_3  and  C_28
REMARK    5  A    between atoms: N_5  and  C_13
REMARK    6  A    between atoms: N_6  and  C_14
REMARK    7  A    between atoms: C_13  and  C_15
REMARK    8  A    between atoms: C_14  and  C_16
REMARK                            x       y       z     vdW  Elec       q    Type
REMARK                         _______ _______ _______ _____ _____    ______ ____
ROOT
ATOM      1  O   UNL     1       1.197   1.335  25.343  0.00  0.00    -0.252 OA
ATOM      4  N   UNL     1      -0.553   2.252  24.073  0.00  0.00    -0.278 N 
ATOM      5  N   UNL     1      -3.038   3.438  23.498  0.00  0.00    -0.295 NA
ATOM      6  N   UNL     1       0.416   0.362  23.340  0.00  0.00    -0.279 N 
ATOM      7  C   UNL     1      -1.170   2.002  22.786  0.00  0.00    +0.109 C 
ATOM      8  C   UNL     1      -2.688   2.138  22.890  0.00  0.00    +0.109 C 
ATOM      9  C   UNL     1      -0.674   0.607  22.412  0.00  0.00    +0.133 C 
ATOM     10  C   UNL     1      -0.936   3.427  24.827  0.00  0.00    +0.125 C 
ATOM     11  C   UNL     1      -2.462   3.556  24.853  0.00  0.00    +0.104 C 
ATOM     12  C   UNL     1       0.451   1.321  24.373  0.00  0.00    +0.305 C 
ENDROOT
BRANCH   5  13
ATOM     13  C   UNL     1      -4.490   3.604  23.545  0.00  0.00    +0.123 C 
BRANCH  13  15
ATOM     15  C   UNL     1      -5.104   2.857  24.694  0.00  0.00    +0.008 A 
ATOM     17  C   UNL     1      -5.039   1.464  24.755  0.00  0.00    +0.124 A 
ATOM     18  C   UNL     1      -5.745   3.569  25.706  0.00  0.00    +0.008 A 
ATOM     21  C   UNL     1      -5.614   0.785  25.829  0.00  0.00    +0.046 A 
ATOM     22  C   UNL     1      -6.321   2.891  26.781  0.00  0.00    +0.001 A 
ATOM     25  C   UNL     1      -6.256   1.498  26.842  0.00  0.00    +0.004 A 
BRANCH  17   2
ATOM      2  O   UNL     1      -4.415   0.752  23.774  0.00  0.00    -0.495 OA
ATOM     27  C   UNL     1      -4.108  -0.611  24.060  0.00  0.00    +0.277 C 
ENDBRANCH  17   2
ENDBRANCH  13  15
ENDBRANCH   5  13
BRANCH   6  14
ATOM     14  C   UNL     1       1.244  -0.821  23.258  0.00  0.00    +0.144 C 
BRANCH  14  16
ATOM     16  C   UNL     1       2.708  -0.486  23.299  0.00  0.00    -0.030 A 
ATOM     19  C   UNL     1       3.610  -1.379  23.876  0.00  0.00    +0.009 A 
ATOM     20  C   UNL     1       3.164   0.717  22.762  0.00  0.00    +0.009 A 
ATOM     23  C   UNL     1       4.970  -1.069  23.915  0.00  0.00    +0.046 A 
ATOM     24  C   UNL     1       4.523   1.028  22.801  0.00  0.00    +0.046 A 
ATOM     26  C   UNL     1       5.426   0.134  23.377  0.00  0.00    +0.120 A 
BRANCH  26   3
ATOM      3  O   UNL     1       6.752   0.438  23.416  0.00  0.00    -0.495 OA
ATOM     28  C   UNL     1       7.657  -0.541  22.906  0.00  0.00    +0.277 C 
ENDBRANCH  26   3
ENDBRANCH  14  16
ENDBRANCH   6  14
TORSDOF 6
ENDMDL
MODEL 6
REMARK VINA RESULT:       5.1      1.081      1.680
REMARK  Name = 75368621
REMARK  8 active torsions:
REMARK  status: ('A' for Active; 'I' for Inactive)
REMARK    1  A    between atoms: O_2  and  C_17
REMARK    2  A    between atoms: O_2  and  C_27
REMARK    3  A    between atoms: O_3  and  C_26
REMARK    4  A    between atoms: O_3  and  C_28
REMARK    5  A    between atoms: N_5  and  C_13
REMARK    6  A    between atoms: N_6  and  C_14
REMARK    7  A    between atoms: C_13  and  C_15
REMARK    8  A    between atoms: C_14  and  C_16
REMARK                            x       y       z     vdW  Elec       q    Type
REMARK                         _______ _______ _______ _____ _____    ______ ____
ROOT
ATOM      1  O   UNL     1      -1.861  -3.454  23.591  0.00  0.00    -0.252 OA
ATOM      4  N   UNL     1      -2.879  -1.607  24.626  0.00  0.00    -0.278 N 
ATOM      5  N   UNL     1      -4.411   0.736  24.896  0.00  0.00    -0.295 NA
ATOM      6  N   UNL     1      -0.745  -2.076  25.148  0.00  0.00    -0.279 N 
ATOM      7  C   UNL     1      -2.547  -0.668  25.677  0.00  0.00    +0.109 C 
ATOM      8  C   UNL     1      -2.987   0.743  25.288  0.00  0.00    +0.109 C 
ATOM      9  C   UNL     1      -1.041  -0.844  25.857  0.00  0.00    +0.133 C 
ATOM     10  C   UNL     1      -4.212  -1.598  24.061  0.00  0.00    +0.125 C 
ATOM     11  C   UNL     1      -4.635  -0.160  23.743  0.00  0.00    +0.104 C 
ATOM     12  C   UNL     1      -1.833  -2.502  24.360  0.00  0.00    +0.305 C 
ENDROOT
BRANCH   5  13
ATOM     13  C   UNL     1      -4.859   2.092  24.580  0.00  0.00    +0.123 C 
BRANCH  13  15
ATOM     15  C   UNL     1      -3.775   3.107  24.799  0.00  0.00    +0.008 A 
ATOM     17  C   UNL     1      -3.963   4.172  25.681  0.00  0.00    +0.124 A 
ATOM     18  C   UNL     1      -2.569   2.978  24.111  0.00  0.00    +0.008 A 
ATOM     21  C   UNL     1      -2.946   5.106  25.874  0.00  0.00    +0.046 A 
ATOM     22  C   UNL     1      -1.551   3.912  24.303  0.00  0.00    +0.001 A 
ATOM     25  C   UNL     1      -1.740   4.977  25.185  0.00  0.00    +0.004 A 
BRANCH  17   2
ATOM      2  O   UNL     1      -5.135   4.314  26.363  0.00  0.00    -0.495 OA
ATOM     27  C   UNL     1      -6.220   4.923  25.666  0.00  0.00    +0.277 C 
ENDBRANCH  17   2
ENDBRANCH  13  15
ENDBRANCH   5  13
BRANCH   6  14
ATOM     14  C   UNL     1       0.572  -2.673  25.161  0.00  0.00    +0.144 C 
BRANCH  14  16
ATOM     16  C   UNL     1       1.579  -1.825  24.437  0.00  0.00    -0.030 A 
ATOM     19  C   UNL     1       2.934  -2.151  24.496  0.00  0.00    +0.009 A 
ATOM     20  C   UNL     1       1.160  -0.713  23.708  0.00  0.00    +0.009 A 
ATOM     23  C   UNL     1       3.870  -1.363  23.824  0.00  0.00    +0.046 A 
ATOM     24  C   UNL     1       2.095   0.075  23.037  0.00  0.00    +0.046 A 
ATOM     26  C   UNL     1       3.450  -0.252  23.094  0.00  0.00    +0.120 A 
BRANCH  26   3
ATOM      3  O   UNL     1       4.363   0.517  22.440  0.00  0.00    -0.495 OA
ATOM     28  C   UNL     1       5.710   0.468  22.911  0.00  0.00    +0.277 C 
ENDBRANCH  26   3
ENDBRANCH  14  16
ENDBRANCH   6  14
TORSDOF 6
ENDMDL
MODEL 7
REMARK VINA RESULT:       5.1      2.592      3.977
REMARK  Name = 75368621
REMARK  8 active torsions:
REMARK  status: ('A' for Active; 'I' for Inactive)
REMARK    1  A    between atoms: O_2  and  C_17
REMARK    2  A    between atoms: O_2  and  C_27
REMARK    3  A    between atoms: O_3  and  C_26
REMARK    4  A    between atoms: O_3  and  C_28
REMARK    5  A    between atoms: N_5  and  C_13
REMARK    6  A    between atoms: N_6  and  C_14
REMARK    7  A    between atoms: C_13  and  C_15
REMARK    8  A    between atoms: C_14  and  C_16
REMARK                            x       y       z     vdW  Elec       q    Type
REMARK                         _______ _______ _______ _____ _____    ______ ____
ROOT
ATOM      1  O   UNL     1       1.293   1.529  25.232  0.00  0.00    -0.252 OA
ATOM      4  N   UNL     1      -0.513   2.461  24.053  0.00  0.00    -0.278 N 
ATOM      5  N   UNL     1      -2.988   3.721  23.609  0.00  0.00    -0.295 NA
ATOM      6  N   UNL     1       0.326   0.502  23.341  0.00  0.00    -0.279 N 
ATOM      7  C   UNL     1      -1.235   2.179  22.830  0.00  0.00    +0.109 C 
ATOM      8  C   UNL     1      -2.735   2.382  23.039  0.00  0.00    +0.109 C 
ATOM      9  C   UNL     1      -0.822   0.749  22.486  0.00  0.00    +0.133 C 
ATOM     10  C   UNL     1      -0.793   3.683  24.777  0.00  0.00    +0.125 C 
ATOM     11  C   UNL     1      -2.306   3.876  24.910  0.00  0.00    +0.104 C 
ATOM     12  C   UNL     1       0.475   1.503  24.322  0.00  0.00    +0.305 C 
ENDROOT
BRANCH   5  13
ATOM     13  C   UNL     1      -4.425   3.948  23.756  0.00  0.00    +0.123 C 
BRANCH  13  15
ATOM     15  C   UNL     1      -5.062   2.945  24.672  0.00  0.00    +0.008 A 
ATOM     17  C   UNL     1      -5.722   3.356  25.831  0.00  0.00    +0.124 A 
ATOM     18  C   UNL     1      -4.990   1.589  24.355  0.00  0.00    +0.008 A 
ATOM     21  C   UNL     1      -6.309   2.410  26.672  0.00  0.00    +0.046 A 
ATOM     22  C   UNL     1      -5.577   0.643  25.196  0.00  0.00    +0.001 A 
ATOM     25  C   UNL     1      -6.236   1.053  26.355  0.00  0.00    +0.004 A 
BRANCH  17   2
ATOM      2  O   UNL     1      -5.803   4.677  26.156  0.00  0.00    -0.495 OA
ATOM     27  C   UNL     1      -6.636   5.494  25.337  0.00  0.00    +0.277 C 
ENDBRANCH  17   2
ENDBRANCH  13  15
ENDBRANCH   5  13
BRANCH   6  14
ATOM     14  C   UNL     1       1.100  -0.717  23.254  0.00  0.00    +0.144 C 
BRANCH  14  16
ATOM     16  C   UNL     1       2.577  -0.446  23.274  0.00  0.00    -0.030 A 
ATOM     19  C   UNL     1       3.447  -1.374  23.846  0.00  0.00    +0.009 A 
ATOM     20  C   UNL     1       3.079   0.731  22.720  0.00  0.00    +0.009 A 
ATOM     23  C   UNL     1       4.820  -1.123  23.865  0.00  0.00    +0.046 A 
ATOM     24  C   UNL     1       4.450   0.982  22.739  0.00  0.00    +0.046 A 
ATOM     26  C   UNL     1       5.321   0.054  23.311  0.00  0.00    +0.120 A 
BRANCH  26   3
ATOM      3  O   UNL     1       6.659   0.299  23.330  0.00  0.00    -0.495 OA
ATOM     28  C   UNL     1       7.512  -0.709  22.788  0.00  0.00    +0.277 C 
ENDBRANCH  26   3
ENDBRANCH  14  16
ENDBRANCH   6  14
TORSDOF 6
ENDMDL
