MODEL 1
REMARK VINA RESULT:       4.8      0.000      0.000
REMARK  Name = 45783524
REMARK  5 active torsions:
REMARK  status: ('A' for Active; 'I' for Inactive)
REMARK    1  A    between atoms: N_3  and  C_13
REMARK    2  A    between atoms: N_4  and  C_22
REMARK    3  A    between atoms: C_9  and  C_14
REMARK    4  A    between atoms: C_13  and  C_15
REMARK    5  A    between atoms: C_20  and  C_23
REMARK                            x       y       z     vdW  Elec       q    Type
REMARK                         _______ _______ _______ _____ _____    ______ ____
ROOT
ATOM      1  O   UNL     1      -3.322   1.724  22.221  0.00  0.00    -0.336 OA
ATOM      5  N   UNL     1      -1.964   1.990  23.983  0.00  0.00    -0.190 NA
ATOM      6  N   UNL     1      -2.069   1.241  21.824  0.00  0.00    -0.056 NA
ATOM     14  C   UNL     1      -3.173   2.146  23.504  0.00  0.00    +0.245 A 
ATOM     20  C   UNL     1      -1.323   1.430  22.916  0.00  0.00    +0.204 A 
ENDROOT
BRANCH  20  23
ATOM      2  O   UNL     1       6.850  -0.286  23.357  0.00  0.00    -0.377 OA
ATOM      7  N   UNL     1       4.074   0.117  23.201  0.00  0.00    -0.311 N 
ATOM      8  N   UNL     1       2.270   1.494  23.873  0.00  0.00    -0.240 NA
ATOM     23  C   UNL     1       0.065   1.074  22.974  0.00  0.00    +0.041 A 
ATOM     26  C   UNL     1       4.897   0.154  21.987  0.00  0.00    +0.134 C 
ATOM     27  C   UNL     1       4.793   0.383  24.453  0.00  0.00    +0.134 C 
ATOM     28  C   UNL     1       2.718   0.454  23.134  0.00  0.00    +0.121 A 
ATOM     29  C   UNL     1       6.146  -0.698  22.186  0.00  0.00    +0.178 C 
ATOM     30  C   UNL     1       6.047  -0.481  24.521  0.00  0.00    +0.178 C 
ATOM     31  C   UNL     1       0.563   0.010  22.229  0.00  0.00    +0.016 A 
ATOM     32  C   UNL     1       0.951   1.777  23.773  0.00  0.00    +0.124 A 
ATOM     33  C   UNL     1       1.914  -0.312  22.304  0.00  0.00    +0.044 A 
ENDBRANCH  20  23
BRANCH  14   9
ATOM      3  N   UNL     1      -4.647   2.142  25.509  0.00  0.00    -0.287 NA
ATOM      9  C   UNL     1      -4.404   2.721  24.173  0.00  0.00    +0.146 C 
ATOM     10  C   UNL     1      -4.292   4.237  24.419  0.00  0.00    +0.030 C 
ATOM     11  C   UNL     1      -5.325   3.176  26.291  0.00  0.00    +0.085 C 
ATOM     12  C   UNL     1      -4.548   4.419  25.908  0.00  0.00    +0.017 C 
BRANCH   3  13
ATOM     13  C   UNL     1      -5.407   0.899  25.467  0.00  0.00    +0.122 C 
BRANCH  13  15
ATOM      4  N   UNL     1      -3.943  -2.099  23.915  0.00  0.00    -0.349 N 
ATOM     15  C   UNL     1      -4.572  -0.252  24.974  0.00  0.00    -0.008 A 
ATOM     16  C   UNL     1      -3.212  -0.515  25.306  0.00  0.00    +0.004 A 
ATOM     17  C   UNL     1      -4.993  -1.243  24.118  0.00  0.00    +0.091 A 
ATOM     18  C   UNL     1      -2.843  -1.679  24.628  0.00  0.00    +0.049 A 
ATOM     19  C   UNL     1      -2.259   0.128  26.120  0.00  0.00    +0.010 A 
ATOM     21  C   UNL     1      -1.562  -2.234  24.723  0.00  0.00    +0.026 A 
ATOM     22  C   UNL     1      -3.999  -3.271  23.069  0.00  0.00    +0.149 C 
ATOM     24  C   UNL     1      -0.973  -0.417  26.226  0.00  0.00    +0.001 A 
ATOM     25  C   UNL     1      -0.633  -1.579  25.537  0.00  0.00    +0.002 A 
ENDBRANCH  13  15
ENDBRANCH   3  13
ENDBRANCH  14   9
TORSDOF 4
ENDMDL
MODEL 2
REMARK VINA RESULT:       5.5     13.492     15.870
REMARK  Name = 45783524
REMARK  5 active torsions:
REMARK  status: ('A' for Active; 'I' for Inactive)
REMARK    1  A    between atoms: N_3  and  C_13
REMARK    2  A    between atoms: N_4  and  C_22
REMARK    3  A    between atoms: C_9  and  C_14
REMARK    4  A    between atoms: C_13  and  C_15
REMARK    5  A    between atoms: C_20  and  C_23
REMARK                            x       y       z     vdW  Elec       q    Type
REMARK                         _______ _______ _______ _____ _____    ______ ____
ROOT
ATOM      1  O   UNL     1      -7.513  -9.522   9.366  0.00  0.00    -0.336 OA
ATOM      5  N   UNL     1      -6.532  -9.367  11.375  0.00  0.00    -0.190 NA
ATOM      6  N   UNL     1      -6.151  -9.313   9.120  0.00  0.00    -0.056 NA
ATOM     14  C   UNL     1      -7.652  -9.541  10.718  0.00  0.00    +0.245 A 
ATOM     20  C   UNL     1      -5.639  -9.232  10.352  0.00  0.00    +0.204 A 
ENDROOT
BRANCH  20  23
ATOM      2  O   UNL     1       2.467  -7.618  11.626  0.00  0.00    -0.377 OA
ATOM      7  N   UNL     1      -0.239  -8.303  11.300  0.00  0.00    -0.311 N 
ATOM      8  N   UNL     1      -2.432  -7.466  11.001  0.00  0.00    -0.240 NA
ATOM     23  C   UNL     1      -4.243  -9.017  10.595  0.00  0.00    +0.041 A 
ATOM     26  C   UNL     1       0.758  -8.732  10.312  0.00  0.00    +0.134 C 
ATOM     27  C   UNL     1       0.140  -7.133  12.103  0.00  0.00    +0.134 C 
ATOM     28  C   UNL     1      -1.598  -8.529  11.061  0.00  0.00    +0.121 A 
ATOM     29  C   UNL     1       2.127  -8.842  10.976  0.00  0.00    +0.178 C 
ATOM     30  C   UNL     1       1.540  -7.330  12.672  0.00  0.00    +0.178 C 
ATOM     31  C   UNL     1      -3.354 -10.084  10.664  0.00  0.00    +0.016 A 
ATOM     32  C   UNL     1      -3.736  -7.739  10.769  0.00  0.00    +0.124 A 
ATOM     33  C   UNL     1      -2.004  -9.844  10.900  0.00  0.00    +0.044 A 
ENDBRANCH  20  23
BRANCH  14   9
ATOM      3  N   UNL     1      -9.140  -9.574  12.712  0.00  0.00    -0.287 NA
ATOM      9  C   UNL     1      -9.053  -9.756  11.250  0.00  0.00    +0.146 C 
ATOM     10  C   UNL     1     -10.069  -8.753  10.671  0.00  0.00    +0.030 C 
ATOM     11  C   UNL     1     -10.499  -9.109  12.992  0.00  0.00    +0.085 C 
ATOM     12  C   UNL     1     -10.719  -8.101  11.882  0.00  0.00    +0.017 C 
BRANCH   3  13
ATOM     13  C   UNL     1      -8.808 -10.780  13.462  0.00  0.00    +0.122 C 
BRANCH  13  15
ATOM      4  N   UNL     1      -7.411  -9.920  16.755  0.00  0.00    -0.349 N 
ATOM     15  C   UNL     1      -7.983 -10.471  14.682  0.00  0.00    -0.008 A 
ATOM     16  C   UNL     1      -6.562 -10.492  14.773  0.00  0.00    +0.004 A 
ATOM     17  C   UNL     1      -8.476 -10.116  15.917  0.00  0.00    +0.091 A 
ATOM     18  C   UNL     1      -6.230 -10.143  16.084  0.00  0.00    +0.049 A 
ATOM     19  C   UNL     1      -5.525 -10.776  13.862  0.00  0.00    +0.010 A 
ATOM     21  C   UNL     1      -4.907 -10.063  16.531  0.00  0.00    +0.026 A 
ATOM     22  C   UNL     1      -7.527  -9.535  18.145  0.00  0.00    +0.149 C 
ATOM     24  C   UNL     1      -4.196 -10.699  14.296  0.00  0.00    +0.001 A 
ATOM     25  C   UNL     1      -3.895 -10.349  15.610  0.00  0.00    +0.002 A 
ENDBRANCH  13  15
ENDBRANCH   3  13
ENDBRANCH  14   9
TORSDOF 4
ENDMDL
MODEL 3
REMARK VINA RESULT:       7.0      0.721      1.848
REMARK  Name = 45783524
REMARK  5 active torsions:
REMARK  status: ('A' for Active; 'I' for Inactive)
REMARK    1  A    between atoms: N_3  and  C_13
REMARK    2  A    between atoms: N_4  and  C_22
REMARK    3  A    between atoms: C_9  and  C_14
REMARK    4  A    between atoms: C_13  and  C_15
REMARK    5  A    between atoms: C_20  and  C_23
REMARK                            x       y       z     vdW  Elec       q    Type
REMARK                         _______ _______ _______ _____ _____    ______ ____
ROOT
ATOM      1  O   UNL     1      -3.243   1.973  22.075  0.00  0.00    -0.336 OA
ATOM      5  N   UNL     1      -2.076   1.650  23.961  0.00  0.00    -0.190 NA
ATOM      6  N   UNL     1      -1.946   1.629  21.677  0.00  0.00    -0.056 NA
ATOM     14  C   UNL     1      -3.234   1.963  23.435  0.00  0.00    +0.245 A 
ATOM     20  C   UNL     1      -1.318   1.453  22.843  0.00  0.00    +0.204 A 
ENDROOT
BRANCH  20  23
ATOM      2  O   UNL     1       6.826  -0.347  23.458  0.00  0.00    -0.377 OA
ATOM      7  N   UNL     1       4.058   0.085  23.234  0.00  0.00    -0.311 N 
ATOM      8  N   UNL     1       2.242   1.439  23.919  0.00  0.00    -0.240 NA
ATOM     23  C   UNL     1       0.065   1.084  22.927  0.00  0.00    +0.041 A 
ATOM     26  C   UNL     1       4.921   0.179  22.051  0.00  0.00    +0.134 C 
ATOM     27  C   UNL     1       4.738   0.280  24.521  0.00  0.00    +0.134 C 
ATOM     28  C   UNL     1       2.707   0.436  23.140  0.00  0.00    +0.121 A 
ATOM     29  C   UNL     1       6.158  -0.691  22.245  0.00  0.00    +0.178 C 
ATOM     30  C   UNL     1       5.984  -0.597  24.583  0.00  0.00    +0.178 C 
ATOM     31  C   UNL     1       0.581   0.057  22.143  0.00  0.00    +0.016 A 
ATOM     32  C   UNL     1       0.929   1.737  23.791  0.00  0.00    +0.124 A 
ATOM     33  C   UNL     1       1.927  -0.279  22.246  0.00  0.00    +0.044 A 
ENDBRANCH  20  23
BRANCH  14   9
ATOM      3  N   UNL     1      -4.503   2.043  25.573  0.00  0.00    -0.287 NA
ATOM      9  C   UNL     1      -4.539   2.307  24.121  0.00  0.00    +0.146 C 
ATOM     10  C   UNL     1      -4.895   3.801  24.005  0.00  0.00    +0.030 C 
ATOM     11  C   UNL     1      -5.423   2.999  26.190  0.00  0.00    +0.085 C 
ATOM     12  C   UNL     1      -5.101   4.274  25.437  0.00  0.00    +0.017 C 
BRANCH   3  13
ATOM     13  C   UNL     1      -4.835   0.665  25.915  0.00  0.00    +0.122 C 
BRANCH  13  15
ATOM      4  N   UNL     1      -1.684  -1.206  25.590  0.00  0.00    -0.349 N 
ATOM     15  C   UNL     1      -3.699  -0.275  25.615  0.00  0.00    -0.008 A 
ATOM     16  C   UNL     1      -3.755  -1.440  24.797  0.00  0.00    +0.004 A 
ATOM     17  C   UNL     1      -2.412  -0.159  26.088  0.00  0.00    +0.091 A 
ATOM     18  C   UNL     1      -2.478  -2.004  24.799  0.00  0.00    +0.049 A 
ATOM     19  C   UNL     1      -4.774  -2.068  24.054  0.00  0.00    +0.010 A 
ATOM     21  C   UNL     1      -2.167  -3.171  24.092  0.00  0.00    +0.026 A 
ATOM     22  C   UNL     1      -0.281  -1.427  25.868  0.00  0.00    +0.149 C 
ATOM     24  C   UNL     1      -4.477  -3.236  23.341  0.00  0.00    +0.001 A 
ATOM     25  C   UNL     1      -3.194  -3.777  23.362  0.00  0.00    +0.002 A 
ENDBRANCH  13  15
ENDBRANCH   3  13
ENDBRANCH  14   9
TORSDOF 4
ENDMDL
MODEL 4
REMARK VINA RESULT:       8.5     12.928     14.809
REMARK  Name = 45783524
REMARK  5 active torsions:
REMARK  status: ('A' for Active; 'I' for Inactive)
REMARK    1  A    between atoms: N_3  and  C_13
REMARK    2  A    between atoms: N_4  and  C_22
REMARK    3  A    between atoms: C_9  and  C_14
REMARK    4  A    between atoms: C_13  and  C_15
REMARK    5  A    between atoms: C_20  and  C_23
REMARK                            x       y       z     vdW  Elec       q    Type
REMARK                         _______ _______ _______ _____ _____    ______ ____
ROOT
ATOM      1  O   UNL     1      -3.588  -9.205   9.979  0.00  0.00    -0.336 OA
ATOM      5  N   UNL     1      -2.483  -9.649  11.877  0.00  0.00    -0.190 NA
ATOM      6  N   UNL     1      -2.319  -8.630   9.835  0.00  0.00    -0.056 NA
ATOM     14  C   UNL     1      -3.601  -9.784  11.209  0.00  0.00    +0.245 A 
ATOM     20  C   UNL     1      -1.726  -8.935  10.993  0.00  0.00    +0.204 A 
ENDROOT
BRANCH  20  23
ATOM      2  O   UNL     1       5.970  -6.333  12.979  0.00  0.00    -0.377 OA
ATOM      7  N   UNL     1       3.455  -7.360  12.259  0.00  0.00    -0.311 N 
ATOM      8  N   UNL     1       1.144  -7.374  12.769  0.00  0.00    -0.240 NA
ATOM     23  C   UNL     1      -0.382  -8.540  11.300  0.00  0.00    +0.041 A 
ATOM     26  C   UNL     1       4.215  -6.532  11.316  0.00  0.00    +0.134 C 
ATOM     27  C   UNL     1       3.805  -7.178  13.673  0.00  0.00    +0.134 C 
ATOM     28  C   UNL     1       2.149  -7.751  11.947  0.00  0.00    +0.121 A 
ATOM     29  C   UNL     1       5.706  -6.650  11.613  0.00  0.00    +0.178 C 
ATOM     30  C   UNL     1       5.318  -7.262  13.845  0.00  0.00    +0.178 C 
ATOM     31  C   UNL     1       0.678  -8.908  10.478  0.00  0.00    +0.016 A 
ATOM     32  C   UNL     1      -0.098  -7.780  12.423  0.00  0.00    +0.124 A 
ATOM     33  C   UNL     1       1.971  -8.510  10.801  0.00  0.00    +0.044 A 
ENDBRANCH  20  23
BRANCH  14   9
ATOM      3  N   UNL     1      -5.536  -9.848  12.771  0.00  0.00    -0.287 NA
ATOM      9  C   UNL     1      -4.881 -10.485  11.611  0.00  0.00    +0.146 C 
ATOM     10  C   UNL     1      -5.946 -10.461  10.499  0.00  0.00    +0.030 C 
ATOM     11  C   UNL     1      -6.971 -10.098  12.625  0.00  0.00    +0.085 C 
ATOM     12  C   UNL     1      -7.182  -9.851  11.144  0.00  0.00    +0.017 C 
BRANCH   3  13
ATOM     13  C   UNL     1      -5.025 -10.322  14.051  0.00  0.00    +0.122 C 
BRANCH  13  15
ATOM      4  N   UNL     1      -7.908  -9.673  16.245  0.00  0.00    -0.349 N 
ATOM     15  C   UNL     1      -6.025 -10.126  15.160  0.00  0.00    -0.008 A 
ATOM     16  C   UNL     1      -5.792 -10.311  16.553  0.00  0.00    +0.004 A 
ATOM     17  C   UNL     1      -7.334  -9.734  15.003  0.00  0.00    +0.091 A 
ATOM     18  C   UNL     1      -6.990 -10.020  17.210  0.00  0.00    +0.049 A 
ATOM     19  C   UNL     1      -4.675 -10.699  17.318  0.00  0.00    +0.010 A 
ATOM     21  C   UNL     1      -7.126 -10.099  18.600  0.00  0.00    +0.026 A 
ATOM     22  C   UNL     1      -9.283  -9.297  16.489  0.00  0.00    +0.149 C 
ATOM     24  C   UNL     1      -4.796 -10.781  18.710  0.00  0.00    +0.001 A 
ATOM     25  C   UNL     1      -6.004 -10.486  19.339  0.00  0.00    +0.002 A 
ENDBRANCH  13  15
ENDBRANCH   3  13
ENDBRANCH  14   9
TORSDOF 4
ENDMDL
