MODEL 1
REMARK VINA RESULT:      -1.3      0.000      0.000
REMARK  Name = 45783798
REMARK  7 active torsions:
REMARK  status: ('A' for Active; 'I' for Inactive)
REMARK    1  A    between atoms: N_3  and  C_12
REMARK    2  A    between atoms: N_7  and  C_25
REMARK    3  A    between atoms: N_7  and  C_26
REMARK    4  A    between atoms: N_7  and  C_27
REMARK    5  A    between atoms: C_8  and  C_13
REMARK    6  A    between atoms: C_12  and  C_14
REMARK    7  A    between atoms: C_17  and  C_18
REMARK                            x       y       z     vdW  Elec       q    Type
REMARK                         _______ _______ _______ _____ _____    ______ ____
ROOT
ATOM      2  O   UNL     1      -3.225   2.201  22.177  0.00  0.00    -0.336 OA
ATOM      4  N   UNL     1      -2.061   1.897  24.067  0.00  0.00    -0.190 NA
ATOM      5  N   UNL     1      -1.968   1.719  21.788  0.00  0.00    -0.056 NA
ATOM     13  C   UNL     1      -3.195   2.276  23.534  0.00  0.00    +0.245 A 
ATOM     17  C   UNL     1      -1.340   1.564  22.958  0.00  0.00    +0.204 A 
ENDROOT
BRANCH  17  18
ATOM      6  N   UNL     1       2.283   1.439  23.785  0.00  0.00    -0.240 NA
ATOM     18  C   UNL     1       0.007   1.081  23.052  0.00  0.00    +0.041 A 
ATOM     22  C   UNL     1       0.361  -0.160  22.535  0.00  0.00    +0.016 A 
ATOM     23  C   UNL     1       0.996   1.835  23.663  0.00  0.00    +0.124 A 
ATOM     24  C   UNL     1       1.675  -0.603  22.642  0.00  0.00    +0.044 A 
ATOM     25  C   UNL     1       2.589   0.228  23.270  0.00  0.00    +0.121 A 
BRANCH  25   7
ATOM      7  N   UNL     1       3.924  -0.238  23.373  0.00  0.00    -0.321 N 
ATOM     26  C   UNL     1       5.027   0.636  23.039  0.00  0.00    +0.130 C 
ATOM     27  C   UNL     1       4.190  -1.593  23.802  0.00  0.00    +0.130 C 
ENDBRANCH  25   7
ENDBRANCH  17  18
BRANCH  13   8
ATOM      3  N   UNL     1      -4.648   2.194  25.553  0.00  0.00    -0.287 NA
ATOM      8  C   UNL     1      -4.455   2.776  24.209  0.00  0.00    +0.146 C 
ATOM      9  C   UNL     1      -4.442   4.298  24.439  0.00  0.00    +0.030 C 
ATOM     10  C   UNL     1      -4.695   4.477  25.929  0.00  0.00    +0.017 C 
ATOM     11  C   UNL     1      -5.386   3.190  26.332  0.00  0.00    +0.085 C 
BRANCH   3  12
ATOM     12  C   UNL     1      -5.325   0.905  25.529  0.00  0.00    +0.120 C 
BRANCH  12  14
ATOM      1 CL   UNL     1      -1.603  -3.546  23.933  0.00  0.00    -0.084 Cl
ATOM     14  C   UNL     1      -4.393  -0.209  25.130  0.00  0.00    -0.033 A 
ATOM     15  C   UNL     1      -4.688  -1.000  24.019  0.00  0.00    +0.006 A 
ATOM     16  C   UNL     1      -3.236  -0.451  25.872  0.00  0.00    +0.006 A 
ATOM     19  C   UNL     1      -3.825  -2.032  23.650  0.00  0.00    +0.020 A 
ATOM     20  C   UNL     1      -2.374  -1.483  25.502  0.00  0.00    +0.020 A 
ATOM     21  C   UNL     1      -2.669  -2.274  24.391  0.00  0.00    +0.041 A 
ENDBRANCH  12  14
ENDBRANCH   3  12
ENDBRANCH  13   8
TORSDOF 5
ENDMDL
MODEL 2
REMARK VINA RESULT:      -1.1      1.107      1.464
REMARK  Name = 45783798
REMARK  7 active torsions:
REMARK  status: ('A' for Active; 'I' for Inactive)
REMARK    1  A    between atoms: N_3  and  C_12
REMARK    2  A    between atoms: N_7  and  C_25
REMARK    3  A    between atoms: N_7  and  C_26
REMARK    4  A    between atoms: N_7  and  C_27
REMARK    5  A    between atoms: C_8  and  C_13
REMARK    6  A    between atoms: C_12  and  C_14
REMARK    7  A    between atoms: C_17  and  C_18
REMARK                            x       y       z     vdW  Elec       q    Type
REMARK                         _______ _______ _______ _____ _____    ______ ____
ROOT
ATOM      2  O   UNL     1      -2.541   3.698  24.695  0.00  0.00    -0.336 OA
ATOM      4  N   UNL     1      -2.310   1.601  23.941  0.00  0.00    -0.190 NA
ATOM      5  N   UNL     1      -1.163   3.484  24.552  0.00  0.00    -0.056 NA
ATOM     13  C   UNL     1      -3.142   2.540  24.314  0.00  0.00    +0.245 A 
ATOM     17  C   UNL     1      -1.108   2.226  24.104  0.00  0.00    +0.204 A 
ENDROOT
BRANCH  17  18
ATOM      6  N   UNL     1       2.524   1.707  23.498  0.00  0.00    -0.240 NA
ATOM     18  C   UNL     1       0.131   1.565  23.811  0.00  0.00    +0.041 A 
ATOM     22  C   UNL     1       0.172   0.198  23.561  0.00  0.00    +0.016 A 
ATOM     23  C   UNL     1       1.324   2.268  23.768  0.00  0.00    +0.124 A 
ATOM     24  C   UNL     1       1.388  -0.416  23.279  0.00  0.00    +0.044 A 
ATOM     25  C   UNL     1       2.524   0.377  23.261  0.00  0.00    +0.121 A 
BRANCH  25   7
ATOM      7  N   UNL     1       3.756  -0.264  22.974  0.00  0.00    -0.321 N 
ATOM     26  C   UNL     1       4.124  -1.477  23.670  0.00  0.00    +0.130 C 
ATOM     27  C   UNL     1       4.656   0.298  21.991  0.00  0.00    +0.130 C 
ENDBRANCH  25   7
ENDBRANCH  17  18
BRANCH  13   8
ATOM      3  N   UNL     1      -5.166   1.467  25.286  0.00  0.00    -0.287 NA
ATOM      8  C   UNL     1      -4.655   2.514  24.378  0.00  0.00    +0.146 C 
ATOM      9  C   UNL     1      -5.250   3.826  24.918  0.00  0.00    +0.030 C 
ATOM     10  C   UNL     1      -6.128   3.411  26.090  0.00  0.00    +0.017 C 
ATOM     11  C   UNL     1      -6.444   1.958  25.803  0.00  0.00    +0.085 C 
BRANCH   3  12
ATOM     12  C   UNL     1      -5.297   0.165  24.646  0.00  0.00    +0.120 C 
BRANCH  12  14
ATOM      1 CL   UNL     1      -0.345  -3.182  25.347  0.00  0.00    -0.084 Cl
ATOM     14  C   UNL     1      -4.058  -0.673  24.822  0.00  0.00    -0.033 A 
ATOM     15  C   UNL     1      -3.760  -1.679  23.903  0.00  0.00    +0.006 A 
ATOM     16  C   UNL     1      -3.208  -0.444  25.905  0.00  0.00    +0.006 A 
ATOM     19  C   UNL     1      -2.613  -2.455  24.066  0.00  0.00    +0.020 A 
ATOM     20  C   UNL     1      -2.061  -1.220  26.067  0.00  0.00    +0.020 A 
ATOM     21  C   UNL     1      -1.764  -2.226  25.148  0.00  0.00    +0.041 A 
ENDBRANCH  12  14
ENDBRANCH   3  12
ENDBRANCH  13   8
TORSDOF 5
ENDMDL
MODEL 3
REMARK VINA RESULT:       0.8     13.629     15.180
REMARK  Name = 45783798
REMARK  7 active torsions:
REMARK  status: ('A' for Active; 'I' for Inactive)
REMARK    1  A    between atoms: N_3  and  C_12
REMARK    2  A    between atoms: N_7  and  C_25
REMARK    3  A    between atoms: N_7  and  C_26
REMARK    4  A    between atoms: N_7  and  C_27
REMARK    5  A    between atoms: C_8  and  C_13
REMARK    6  A    between atoms: C_12  and  C_14
REMARK    7  A    between atoms: C_17  and  C_18
REMARK                            x       y       z     vdW  Elec       q    Type
REMARK                         _______ _______ _______ _____ _____    ______ ____
ROOT
ATOM      2  O   UNL     1      -3.358  -9.622  10.313  0.00  0.00    -0.336 OA
ATOM      4  N   UNL     1      -2.223  -9.615  12.245  0.00  0.00    -0.190 NA
ATOM      5  N   UNL     1      -2.163  -8.934  10.061  0.00  0.00    -0.056 NA
ATOM     13  C   UNL     1      -3.313  -9.988  11.621  0.00  0.00    +0.245 A 
ATOM     17  C   UNL     1      -1.549  -8.972  11.248  0.00  0.00    +0.204 A 
ENDROOT
BRANCH  17  18
ATOM      6  N   UNL     1       2.099  -8.314  10.959  0.00  0.00    -0.240 NA
ATOM     18  C   UNL     1      -0.263  -8.377  11.470  0.00  0.00    +0.041 A 
ATOM     22  C   UNL     1      -0.105  -7.328  12.368  0.00  0.00    +0.016 A 
ATOM     23  C   UNL     1       0.860  -8.829  10.796  0.00  0.00    +0.124 A 
ATOM     24  C   UNL     1       1.155  -6.771  12.563  0.00  0.00    +0.044 A 
ATOM     25  C   UNL     1       2.214  -7.296  11.840  0.00  0.00    +0.121 A 
BRANCH  25   7
ATOM      7  N   UNL     1       3.490  -6.716  12.048  0.00  0.00    -0.321 N 
ATOM     26  C   UNL     1       4.670  -7.552  12.092  0.00  0.00    +0.130 C 
ATOM     27  C   UNL     1       3.620  -5.287  12.228  0.00  0.00    +0.130 C 
ENDBRANCH  25   7
ENDBRANCH  17  18
BRANCH  13   8
ATOM      3  N   UNL     1      -4.998 -10.229  13.436  0.00  0.00    -0.287 NA
ATOM      8  C   UNL     1      -4.505 -10.758  12.148  0.00  0.00    +0.146 C 
ATOM      9  C   UNL     1      -5.721 -10.690  11.205  0.00  0.00    +0.030 C 
ATOM     10  C   UNL     1      -6.862 -10.169  12.067  0.00  0.00    +0.017 C 
ATOM     11  C   UNL     1      -6.433 -10.515  13.478  0.00  0.00    +0.085 C 
BRANCH   3  12
ATOM     12  C   UNL     1      -4.296 -10.777  14.588  0.00  0.00    +0.120 C 
BRANCH  12  14
ATOM      1 CL   UNL     1      -7.644 -10.521  19.581  0.00  0.00    -0.084 Cl
ATOM     14  C   UNL     1      -5.134 -10.714  15.838  0.00  0.00    -0.033 A 
ATOM     15  C   UNL     1      -4.521 -10.732  17.090  0.00  0.00    +0.006 A 
ATOM     16  C   UNL     1      -6.524 -10.638  15.742  0.00  0.00    +0.006 A 
ATOM     19  C   UNL     1      -5.297 -10.673  18.247  0.00  0.00    +0.020 A 
ATOM     20  C   UNL     1      -7.300 -10.579  16.900  0.00  0.00    +0.020 A 
ATOM     21  C   UNL     1      -6.686 -10.597  18.152  0.00  0.00    +0.041 A 
ENDBRANCH  12  14
ENDBRANCH   3  12
ENDBRANCH  13   8
TORSDOF 5
ENDMDL
MODEL 4
REMARK VINA RESULT:       2.5      2.625      4.364
REMARK  Name = 45783798
REMARK  7 active torsions:
REMARK  status: ('A' for Active; 'I' for Inactive)
REMARK    1  A    between atoms: N_3  and  C_12
REMARK    2  A    between atoms: N_7  and  C_25
REMARK    3  A    between atoms: N_7  and  C_26
REMARK    4  A    between atoms: N_7  and  C_27
REMARK    5  A    between atoms: C_8  and  C_13
REMARK    6  A    between atoms: C_12  and  C_14
REMARK    7  A    between atoms: C_17  and  C_18
REMARK                            x       y       z     vdW  Elec       q    Type
REMARK                         _______ _______ _______ _____ _____    ______ ____
ROOT
ATOM      2  O   UNL     1      -1.239   0.137  23.147  0.00  0.00    -0.336 OA
ATOM      4  N   UNL     1       0.195  -1.125  24.317  0.00  0.00    -0.190 NA
ATOM      5  N   UNL     1       0.046   0.534  22.749  0.00  0.00    -0.056 NA
ATOM     13  C   UNL     1      -1.059  -0.842  24.071  0.00  0.00    +0.245 A 
ATOM     17  C   UNL     1       0.835  -0.255  23.483  0.00  0.00    +0.204 A 
ENDROOT
BRANCH  17  18
ATOM      6  N   UNL     1       4.398  -1.269  23.804  0.00  0.00    -0.240 NA
ATOM     18  C   UNL     1       2.266  -0.200  23.407  0.00  0.00    +0.041 A 
ATOM     22  C   UNL     1       2.914   0.915  22.889  0.00  0.00    +0.016 A 
ATOM     23  C   UNL     1       3.047  -1.257  23.847  0.00  0.00    +0.124 A 
ATOM     24  C   UNL     1       4.303   0.941  22.828  0.00  0.00    +0.044 A 
ATOM     25  C   UNL     1       4.992  -0.167  23.294  0.00  0.00    +0.121 A 
BRANCH  25   7
ATOM      7  N   UNL     1       6.407  -0.127  23.223  0.00  0.00    -0.321 N 
ATOM     26  C   UNL     1       7.141   0.904  23.924  0.00  0.00    +0.130 C 
ATOM     27  C   UNL     1       7.124  -1.110  22.443  0.00  0.00    +0.130 C 
ENDBRANCH  25   7
ENDBRANCH  17  18
BRANCH  13   8
ATOM      3  N   UNL     1      -3.461  -0.516  24.637  0.00  0.00    -0.287 NA
ATOM      8  C   UNL     1      -2.315  -1.447  24.664  0.00  0.00    +0.146 C 
ATOM      9  C   UNL     1      -2.799  -2.688  23.893  0.00  0.00    +0.030 C 
ATOM     10  C   UNL     1      -4.245  -2.387  23.524  0.00  0.00    +0.017 C 
ATOM     11  C   UNL     1      -4.663  -1.344  24.540  0.00  0.00    +0.085 C 
BRANCH   3  12
ATOM     12  C   UNL     1      -3.502   0.379  25.785  0.00  0.00    +0.120 C 
BRANCH  12  14
ATOM      1 CL   UNL     1      -0.741   5.604  24.651  0.00  0.00    -0.084 Cl
ATOM     14  C   UNL     1      -2.810   1.687  25.501  0.00  0.00    -0.033 A 
ATOM     15  C   UNL     1      -3.507   2.723  24.881  0.00  0.00    +0.006 A 
ATOM     16  C   UNL     1      -1.472   1.860  25.857  0.00  0.00    +0.006 A 
ATOM     19  C   UNL     1      -2.867   3.934  24.618  0.00  0.00    +0.020 A 
ATOM     20  C   UNL     1      -0.833   3.071  25.593  0.00  0.00    +0.020 A 
ATOM     21  C   UNL     1      -1.530   4.108  24.973  0.00  0.00    +0.041 A 
ENDBRANCH  12  14
ENDBRANCH   3  12
ENDBRANCH  13   8
TORSDOF 5
ENDMDL
