MODEL 1
REMARK VINA RESULT:      -1.9      0.000      0.000
REMARK  Name = 45361409
REMARK  10 active torsions:
REMARK  status: ('A' for Active; 'I' for Inactive)
REMARK    1  A    between atoms: O_2  and  C_10
REMARK    2  A    between atoms: N_5  and  C_14
REMARK    3  A    between atoms: N_6  and  C_24
REMARK    4  A    between atoms: C_7  and  C_17
REMARK    5  A    between atoms: C_9  and  C_19
REMARK    6  A    between atoms: C_13  and  C_18
REMARK    7  A    between atoms: C_18  and  C_20
REMARK    8  A    between atoms: C_18  and  C_21
REMARK    9  A    between atoms: C_22  and  C_23
REMARK   10  A    between atoms: C_24  and  C_27
REMARK                            x       y       z     vdW  Elec       q    Type
REMARK                         _______ _______ _______ _____ _____    ______ ____
ROOT
ATOM      7  C   UNL     1      -2.948  -1.343  24.847  0.00  0.00    -0.027 C 
ATOM      8  C   UNL     1      -2.566   0.001  24.141  0.00  0.00    +0.028 C 
ATOM      9  C   UNL     1      -1.022   0.268  24.246  0.00  0.00    +0.012 C 
ATOM     10  C   UNL     1      -3.480   1.166  24.618  0.00  0.00    +0.122 C 
ATOM     11  C   UNL     1      -4.452  -1.632  24.629  0.00  0.00    +0.007 C 
ATOM     12  C   UNL     1      -2.149  -2.497  24.200  0.00  0.00    +0.009 C 
ATOM     13  C   UNL     1      -4.985   0.831  24.494  0.00  0.00    +0.029 C 
ATOM     14  C   UNL     1      -0.227  -0.933  23.660  0.00  0.00    +0.076 C 
ATOM     15  C   UNL     1      -5.352  -0.509  25.130  0.00  0.00    +0.007 C 
ATOM     16  C   UNL     1      -0.643  -2.281  24.247  0.00  0.00    +0.023 C 
ATOM     17  C   UNL     1      -2.662  -1.316  26.370  0.00  0.00    +0.011 C 
ATOM     19  C   UNL     1      -0.573   1.562  23.547  0.00  0.00    +0.010 C 
ENDROOT
BRANCH  14   5
ATOM      4  O   UNL     1       1.693  -0.225  21.646  0.00  0.00    -0.270 OA
ATOM      5  N   UNL     1       1.201  -0.772  23.844  0.00  0.00    -0.308 N 
ATOM     22  C   UNL     1       2.047  -0.428  22.805  0.00  0.00    +0.244 C 
ATOM     34  H   UNL     1       1.577  -1.037  24.748  0.00  0.00    +0.149 HD
BRANCH  22  23
ATOM     23  C   UNL     1       3.487  -0.328  23.152  0.00  0.00    +0.037 A 
ATOM     25  C   UNL     1       4.185   0.854  22.906  0.00  0.00    +0.013 A 
ATOM     26  C   UNL     1       4.143  -1.418  23.726  0.00  0.00    +0.013 A 
ATOM     28  C   UNL     1       5.537   0.948  23.232  0.00  0.00    +0.001 A 
ATOM     29  C   UNL     1       5.495  -1.325  24.054  0.00  0.00    +0.001 A 
ATOM     30  C   UNL     1       6.193  -0.142  23.807  0.00  0.00    +0.000 A 
ENDBRANCH  22  23
ENDBRANCH  14   5
BRANCH  10   2
ATOM      2  O   UNL     1      -3.250   2.317  23.803  0.00  0.00    -0.391 OA
ATOM     35  H   UNL     1      -3.080   3.074  24.390  0.00  0.00    +0.210 HD
ENDBRANCH  10   2
BRANCH  13  18
ATOM     18  C   UNL     1      -5.865   1.938  25.089  0.00  0.00    +0.077 C 
ATOM     20  C   UNL     1      -7.111   2.134  24.234  0.00  0.00    +0.017 C 
BRANCH  18  21
ATOM      3  O   UNL     1      -5.044   4.084  24.325  0.00  0.00    -0.276 OA
ATOM      6  N   UNL     1      -4.374   3.318  26.410  0.00  0.00    -0.310 N 
ATOM     21  C   UNL     1      -5.063   3.230  25.210  0.00  0.00    +0.216 C 
ATOM     36  H   UNL     1      -4.426   2.552  27.074  0.00  0.00    +0.149 HD
BRANCH   6  24
ATOM     24  C   UNL     1      -3.543   4.450  26.753  0.00  0.00    +0.146 C 
BRANCH  24  27
ATOM      1  S   UNL     1      -1.103   3.174  26.388  0.00  0.00    -0.100 S 
ATOM     27  C   UNL     1      -2.226   4.418  26.033  0.00  0.00    +0.007 A 
ATOM     31  C   UNL     1      -1.751   5.285  25.074  0.00  0.00    +0.013 A 
ATOM     32  C   UNL     1      -0.447   4.924  24.626  0.00  0.00    +0.008 A 
ATOM     33  C   UNL     1       0.024   3.795  25.258  0.00  0.00    +0.045 A 
ENDBRANCH  24  27
ENDBRANCH   6  24
ENDBRANCH  18  21
ENDBRANCH  13  18
TORSDOF 7
ENDMDL
