MODEL 1
REMARK VINA RESULT:      -2.1      0.000      0.000
REMARK  Name = 7673717
REMARK  6 active torsions:
REMARK  status: ('A' for Active; 'I' for Inactive)
REMARK    1  A    between atoms: N_5  and  C_19
REMARK    2  A    between atoms: C_8  and  C_12
REMARK    3  A    between atoms: C_11  and  C_23
REMARK    4  A    between atoms: C_12  and  C_19
REMARK    5  A    between atoms: C_18  and  C_26
REMARK    6  A    between atoms: C_19  and  C_28
REMARK                            x       y       z     vdW  Elec       q    Type
REMARK                         _______ _______ _______ _____ _____    ______ ____
ROOT
ATOM      2  O   UNL     1      -0.223  -1.907  24.882  0.00  0.00    -0.274 OA
ATOM      5  N   UNL     1      -0.401   0.008  23.571  0.00  0.00    -0.302 N 
ATOM     26  C   UNL     1      -0.870  -1.154  24.159  0.00  0.00    +0.235 C 
ATOM     29  H   UNL     1      -1.056   0.619  23.091  0.00  0.00    +0.150 HD
ENDROOT
BRANCH  26  18
ATOM      1  O   UNL     1      -3.209   1.109  22.940  0.00  0.00    -0.275 OA
ATOM      4  N   UNL     1      -3.095  -0.464  24.650  0.00  0.00    -0.287 N 
ATOM      6  N   UNL     1      -2.807  -3.194  25.508  0.00  0.00    -0.312 NA
ATOM     18  C   UNL     1      -2.316  -1.409  23.843  0.00  0.00    +0.176 C 
ATOM     23  C   UNL     1      -3.411   0.788  24.114  0.00  0.00    +0.219 C 
ATOM     24  C   UNL     1      -3.334  -0.852  26.047  0.00  0.00    +0.123 C 
ATOM     25  C   UNL     1      -2.705  -2.867  24.084  0.00  0.00    +0.113 C 
ATOM     27  C   UNL     1      -3.764  -2.310  26.168  0.00  0.00    +0.100 C 
ATOM     30  H   UNL     1      -1.891  -3.082  25.942  0.00  0.00    +0.122 HD
BRANCH  23  11
ATOM     11  C   UNL     1      -4.039   1.780  25.048  0.00  0.00    +0.075 C 
ATOM     16  C   UNL     1      -5.557   1.792  24.853  0.00  0.00    +0.013 C 
ATOM     17  C   UNL     1      -3.435   3.168  24.819  0.00  0.00    +0.013 C 
ATOM     20  C   UNL     1      -6.229   2.855  25.717  0.00  0.00    +0.001 C 
ATOM     21  C   UNL     1      -4.111   4.228  25.684  0.00  0.00    +0.001 C 
ATOM     22  C   UNL     1      -5.624   4.236  25.483  0.00  0.00    +0.000 C 
ENDBRANCH  23  11
ENDBRANCH  26  18
BRANCH   5  19
ATOM     19  C   UNL     1       0.951   0.488  23.739  0.00  0.00    +0.159 C 
BRANCH  19  28
ATOM      3  O   UNL     1       1.136   2.911  23.662  0.00  0.00    -0.274 OA
ATOM      7  N   UNL     1       0.595   1.916  25.660  0.00  0.00    -0.328 N 
ATOM     28  C   UNL     1       0.900   1.897  24.316  0.00  0.00    +0.231 C 
ATOM     31  H   UNL     1       0.537   2.792  26.168  0.00  0.00    +0.145 HD
ATOM     32  H   UNL     1       0.422   1.069  26.194  0.00  0.00    +0.145 HD
ENDBRANCH  19  28
BRANCH  19  12
ATOM     12  C   UNL     1       1.759   0.408  22.439  0.00  0.00    +0.035 C 
BRANCH  12   8
ATOM      8  C   UNL     1       3.186  -0.107  22.619  0.00  0.00    -0.009 C 
ATOM      9  C   UNL     1       4.128   1.036  23.022  0.00  0.00    +0.003 C 
ATOM     10  C   UNL     1       3.226  -1.239  23.655  0.00  0.00    +0.003 C 
ATOM     13  C   UNL     1       5.550   0.536  23.260  0.00  0.00    +0.000 C 
ATOM     14  C   UNL     1       4.651  -1.734  23.892  0.00  0.00    +0.000 C 
ATOM     15  C   UNL     1       5.587  -0.595  24.284  0.00  0.00    +0.000 C 
ENDBRANCH  12   8
ENDBRANCH  19  12
ENDBRANCH   5  19
TORSDOF 6
ENDMDL
MODEL 2
REMARK VINA RESULT:      -2.0      1.851      3.470
REMARK  Name = 7673717
REMARK  6 active torsions:
REMARK  status: ('A' for Active; 'I' for Inactive)
REMARK    1  A    between atoms: N_5  and  C_19
REMARK    2  A    between atoms: C_8  and  C_12
REMARK    3  A    between atoms: C_11  and  C_23
REMARK    4  A    between atoms: C_12  and  C_19
REMARK    5  A    between atoms: C_18  and  C_26
REMARK    6  A    between atoms: C_19  and  C_28
REMARK                            x       y       z     vdW  Elec       q    Type
REMARK                         _______ _______ _______ _____ _____    ______ ____
ROOT
ATOM      2  O   UNL     1      -0.009  -1.429  24.592  0.00  0.00    -0.274 OA
ATOM      5  N   UNL     1      -0.531   0.305  23.130  0.00  0.00    -0.302 N 
ATOM     26  C   UNL     1      -0.802  -0.836  23.866  0.00  0.00    +0.235 C 
ATOM     29  H   UNL     1      -1.295   0.782  22.659  0.00  0.00    +0.150 HD
ENDROOT
BRANCH  26  18
ATOM      1  O   UNL     1      -3.529   1.047  22.820  0.00  0.00    -0.275 OA
ATOM      4  N   UNL     1      -3.039  -0.416  24.561  0.00  0.00    -0.287 N 
ATOM      6  N   UNL     1      -2.308  -3.043  25.477  0.00  0.00    -0.312 NA
ATOM     18  C   UNL     1      -2.225  -1.290  23.710  0.00  0.00    +0.176 C 
ATOM     23  C   UNL     1      -3.571   0.758  24.019  0.00  0.00    +0.219 C 
ATOM     24  C   UNL     1      -3.086  -0.765  25.988  0.00  0.00    +0.123 C 
ATOM     25  C   UNL     1      -2.391  -2.773  24.040  0.00  0.00    +0.113 C 
ATOM     27  C   UNL     1      -3.304  -2.258  26.203  0.00  0.00    +0.100 C 
ATOM     30  H   UNL     1      -1.377  -2.793  25.810  0.00  0.00    +0.122 HD
BRANCH  23  11
ATOM     11  C   UNL     1      -4.230   1.704  24.978  0.00  0.00    +0.075 C 
ATOM     16  C   UNL     1      -5.610   1.172  25.370  0.00  0.00    +0.013 C 
ATOM     17  C   UNL     1      -4.324   3.099  24.354  0.00  0.00    +0.013 C 
ATOM     20  C   UNL     1      -6.356   2.150  26.274  0.00  0.00    +0.001 C 
ATOM     21  C   UNL     1      -5.073   4.073  25.260  0.00  0.00    +0.001 C 
ATOM     22  C   UNL     1      -6.449   3.537  25.646  0.00  0.00    +0.000 C 
ENDBRANCH  23  11
ENDBRANCH  26  18
BRANCH   5  19
ATOM     19  C   UNL     1       0.759   0.955  23.127  0.00  0.00    +0.159 C 
BRANCH  19  28
ATOM      3  O   UNL     1       1.579  -0.389  21.275  0.00  0.00    -0.274 OA
ATOM      7  N   UNL     1       2.866  -0.234  23.170  0.00  0.00    -0.328 N 
ATOM     28  C   UNL     1       1.756   0.056  22.406  0.00  0.00    +0.231 C 
ATOM     31  H   UNL     1       3.604  -0.830  22.810  0.00  0.00    +0.145 HD
ATOM     32  H   UNL     1       2.991   0.124  24.112  0.00  0.00    +0.145 HD
ENDBRANCH  19  28
BRANCH  19  12
ATOM     12  C   UNL     1       1.217   1.339  24.537  0.00  0.00    +0.035 C 
BRANCH  12   8
ATOM      8  C   UNL     1       0.536   2.585  25.100  0.00  0.00    -0.009 C 
ATOM      9  C   UNL     1       0.133   3.540  23.968  0.00  0.00    +0.003 C 
ATOM     10  C   UNL     1      -0.683   2.199  25.950  0.00  0.00    +0.003 C 
ATOM     13  C   UNL     1      -0.599   4.769  24.502  0.00  0.00    +0.000 C 
ATOM     14  C   UNL     1      -1.413   3.431  26.479  0.00  0.00    +0.000 C 
ATOM     15  C   UNL     1      -1.805   4.382  25.353  0.00  0.00    +0.000 C 
ENDBRANCH  12   8
ENDBRANCH  19  12
ENDBRANCH   5  19
TORSDOF 6
ENDMDL
MODEL 3
REMARK VINA RESULT:      -1.4      1.554      7.910
REMARK  Name = 7673717
REMARK  6 active torsions:
REMARK  status: ('A' for Active; 'I' for Inactive)
REMARK    1  A    between atoms: N_5  and  C_19
REMARK    2  A    between atoms: C_8  and  C_12
REMARK    3  A    between atoms: C_11  and  C_23
REMARK    4  A    between atoms: C_12  and  C_19
REMARK    5  A    between atoms: C_18  and  C_26
REMARK    6  A    between atoms: C_19  and  C_28
REMARK                            x       y       z     vdW  Elec       q    Type
REMARK                         _______ _______ _______ _____ _____    ______ ____
ROOT
ATOM      2  O   UNL     1      -0.845  -1.176  24.376  0.00  0.00    -0.274 OA
ATOM      5  N   UNL     1      -2.807   0.040  24.074  0.00  0.00    -0.302 N 
ATOM     26  C   UNL     1      -1.463  -0.234  23.886  0.00  0.00    +0.235 C 
ATOM     29  H   UNL     1      -3.243   0.774  23.525  0.00  0.00    +0.150 HD
ENDROOT
BRANCH  26  18
ATOM      1  O   UNL     1       1.353  -0.723  21.910  0.00  0.00    -0.275 OA
ATOM      4  N   UNL     1       0.587   0.878  23.413  0.00  0.00    -0.287 N 
ATOM      6  N   UNL     1      -1.348   2.872  24.158  0.00  0.00    -0.312 NA
ATOM     18  C   UNL     1      -0.804   0.753  22.967  0.00  0.00    +0.176 C 
ATOM     23  C   UNL     1       1.556   0.033  22.863  0.00  0.00    +0.219 C 
ATOM     24  C   UNL     1       0.823   1.781  24.548  0.00  0.00    +0.123 C 
ATOM     25  C   UNL     1      -1.547   2.090  22.936  0.00  0.00    +0.113 C 
ATOM     27  C   UNL     1       0.076   3.101  24.393  0.00  0.00    +0.100 C 
ATOM     30  H   UNL     1      -1.740   2.361  24.949  0.00  0.00    +0.122 HD
BRANCH  23  11
ATOM     11  C   UNL     1       2.918   0.072  23.491  0.00  0.00    +0.075 C 
ATOM     16  C   UNL     1       3.820   1.037  22.719  0.00  0.00    +0.013 C 
ATOM     17  C   UNL     1       3.513  -1.337  23.537  0.00  0.00    +0.013 C 
ATOM     20  C   UNL     1       5.245   1.039  23.267  0.00  0.00    +0.001 C 
ATOM     21  C   UNL     1       4.938  -1.330  24.083  0.00  0.00    +0.001 C 
ATOM     22  C   UNL     1       5.833  -0.369  23.307  0.00  0.00    +0.000 C 
ENDBRANCH  23  11
ENDBRANCH  26  18
BRANCH   5  19
ATOM     19  C   UNL     1      -3.671  -0.774  24.897  0.00  0.00    +0.159 C 
BRANCH  19  28
ATOM      3  O   UNL     1      -4.455  -2.307  23.181  0.00  0.00    -0.274 OA
ATOM      7  N   UNL     1      -3.260  -3.158  24.948  0.00  0.00    -0.328 N 
ATOM     28  C   UNL     1      -3.840  -2.134  24.231  0.00  0.00    +0.231 C 
ATOM     31  H   UNL     1      -3.307  -4.117  24.617  0.00  0.00    +0.145 HD
ATOM     32  H   UNL     1      -2.771  -3.005  25.825  0.00  0.00    +0.145 HD
ENDBRANCH  19  28
BRANCH  19  12
ATOM     12  C   UNL     1      -5.009  -0.086  25.188  0.00  0.00    +0.035 C 
BRANCH  12   8
ATOM      8  C   UNL     1      -4.890   1.400  25.521  0.00  0.00    -0.009 C 
ATOM      9  C   UNL     1      -4.683   2.226  24.244  0.00  0.00    +0.003 C 
ATOM     10  C   UNL     1      -6.126   1.884  26.290  0.00  0.00    +0.003 C 
ATOM     13  C   UNL     1      -4.614   3.721  24.545  0.00  0.00    +0.000 C 
ATOM     14  C   UNL     1      -6.054   3.380  26.587  0.00  0.00    +0.000 C 
ATOM     15  C   UNL     1      -5.840   4.198  25.318  0.00  0.00    +0.000 C 
ENDBRANCH  12   8
ENDBRANCH  19  12
ENDBRANCH   5  19
TORSDOF 6
ENDMDL
MODEL 4
REMARK VINA RESULT:      -1.3      2.310      6.849
REMARK  Name = 7673717
REMARK  6 active torsions:
REMARK  status: ('A' for Active; 'I' for Inactive)
REMARK    1  A    between atoms: N_5  and  C_19
REMARK    2  A    between atoms: C_8  and  C_12
REMARK    3  A    between atoms: C_11  and  C_23
REMARK    4  A    between atoms: C_12  and  C_19
REMARK    5  A    between atoms: C_18  and  C_26
REMARK    6  A    between atoms: C_19  and  C_28
REMARK                            x       y       z     vdW  Elec       q    Type
REMARK                         _______ _______ _______ _____ _____    ______ ____
ROOT
ATOM      2  O   UNL     1      -3.986   3.331  25.898  0.00  0.00    -0.274 OA
ATOM      5  N   UNL     1      -4.149   1.678  24.268  0.00  0.00    -0.302 N 
ATOM     26  C   UNL     1      -3.694   2.874  24.797  0.00  0.00    +0.235 C 
ATOM     29  H   UNL     1      -3.748   1.338  23.399  0.00  0.00    +0.150 HD
ENDROOT
BRANCH  26  18
ATOM      1  O   UNL     1      -1.890   1.514  22.156  0.00  0.00    -0.275 OA
ATOM      4  N   UNL     1      -1.458   2.890  23.981  0.00  0.00    -0.287 N 
ATOM      6  N   UNL     1      -1.898   5.351  25.404  0.00  0.00    -0.312 NA
ATOM     18  C   UNL     1      -2.747   3.581  23.871  0.00  0.00    +0.176 C 
ATOM     23  C   UNL     1      -1.182   1.827  23.117  0.00  0.00    +0.219 C 
ATOM     24  C   UNL     1      -0.618   3.268  25.126  0.00  0.00    +0.123 C 
ATOM     25  C   UNL     1      -2.655   5.076  24.181  0.00  0.00    +0.113 C 
ATOM     27  C   UNL     1      -0.556   4.780  25.314  0.00  0.00    +0.100 C 
ATOM     30  H   UNL     1      -2.386   4.938  26.199  0.00  0.00    +0.122 HD
BRANCH  23  11
ATOM     11  C   UNL     1       0.063   1.037  23.398  0.00  0.00    +0.075 C 
ATOM     16  C   UNL     1       1.284   1.958  23.360  0.00  0.00    +0.013 C 
ATOM     17  C   UNL     1       0.193  -0.108  22.391  0.00  0.00    +0.013 C 
ATOM     20  C   UNL     1       2.584   1.181  23.548  0.00  0.00    +0.001 C 
ATOM     21  C   UNL     1       1.495  -0.882  22.583  0.00  0.00    +0.001 C 
ATOM     22  C   UNL     1       2.709   0.042  22.541  0.00  0.00    +0.000 C 
ENDBRANCH  23  11
ENDBRANCH  26  18
BRANCH   5  19
ATOM     19  C   UNL     1      -5.053   0.797  24.970  0.00  0.00    +0.159 C 
BRANCH  19  28
ATOM      3  O   UNL     1      -7.152   1.922  24.484  0.00  0.00    -0.274 OA
ATOM      7  N   UNL     1      -6.417   1.866  26.659  0.00  0.00    -0.328 N 
ATOM     28  C   UNL     1      -6.319   1.571  25.317  0.00  0.00    +0.231 C 
ATOM     31  H   UNL     1      -7.210   2.386  27.021  0.00  0.00    +0.145 HD
ATOM     32  H   UNL     1      -5.711   1.587  27.334  0.00  0.00    +0.145 HD
ENDBRANCH  19  28
BRANCH  19  12
ATOM     12  C   UNL     1      -4.397   0.153  26.196  0.00  0.00    +0.035 C 
BRANCH  12   8
ATOM      8  C   UNL     1      -3.531  -1.064  25.877  0.00  0.00    -0.009 C 
ATOM      9  C   UNL     1      -4.003  -1.741  24.583  0.00  0.00    +0.003 C 
ATOM     10  C   UNL     1      -2.052  -0.665  25.775  0.00  0.00    +0.003 C 
ATOM     13  C   UNL     1      -3.119  -2.929  24.213  0.00  0.00    +0.000 C 
ATOM     14  C   UNL     1      -1.171  -1.855  25.403  0.00  0.00    +0.000 C 
ATOM     15  C   UNL     1      -1.649  -2.531  24.122  0.00  0.00    +0.000 C 
ENDBRANCH  12   8
ENDBRANCH  19  12
ENDBRANCH   5  19
TORSDOF 6
ENDMDL
MODEL 5
REMARK VINA RESULT:      -1.2      2.080      6.315
REMARK  Name = 7673717
REMARK  6 active torsions:
REMARK  status: ('A' for Active; 'I' for Inactive)
REMARK    1  A    between atoms: N_5  and  C_19
REMARK    2  A    between atoms: C_8  and  C_12
REMARK    3  A    between atoms: C_11  and  C_23
REMARK    4  A    between atoms: C_12  and  C_19
REMARK    5  A    between atoms: C_18  and  C_26
REMARK    6  A    between atoms: C_19  and  C_28
REMARK                            x       y       z     vdW  Elec       q    Type
REMARK                         _______ _______ _______ _____ _____    ______ ____
ROOT
ATOM      2  O   UNL     1      -4.749  -0.197  24.434  0.00  0.00    -0.274 OA
ATOM      5  N   UNL     1      -3.988   1.416  25.929  0.00  0.00    -0.302 N 
ATOM     26  C   UNL     1      -3.970   0.181  25.305  0.00  0.00    +0.235 C 
ATOM     29  H   UNL     1      -3.223   1.668  26.549  0.00  0.00    +0.150 HD
ENDROOT
BRANCH  26  18
ATOM      1  O   UNL     1      -0.683   1.118  25.934  0.00  0.00    -0.275 OA
ATOM      4  N   UNL     1      -1.776  -0.588  24.792  0.00  0.00    -0.287 N 
ATOM      6  N   UNL     1      -3.532  -2.867  24.804  0.00  0.00    -0.312 NA
ATOM     18  C   UNL     1      -2.845  -0.687  25.792  0.00  0.00    +0.176 C 
ATOM     23  C   UNL     1      -0.800   0.402  24.936  0.00  0.00    +0.219 C 
ATOM     24  C   UNL     1      -1.920  -1.444  23.607  0.00  0.00    +0.123 C 
ATOM     25  C   UNL     1      -3.300  -2.124  26.045  0.00  0.00    +0.113 C 
ATOM     27  C   UNL     1      -2.329  -2.866  23.975  0.00  0.00    +0.100 C 
ATOM     30  H   UNL     1      -4.294  -2.427  24.289  0.00  0.00    +0.122 HD
BRANCH  23  11
ATOM     11  C   UNL     1       0.152   0.579  23.791  0.00  0.00    +0.075 C 
ATOM     16  C   UNL     1       0.682  -0.782  23.338  0.00  0.00    +0.013 C 
ATOM     17  C   UNL     1       1.291   1.517  24.199  0.00  0.00    +0.013 C 
ATOM     20  C   UNL     1       1.727  -0.643  22.234  0.00  0.00    +0.001 C 
ATOM     21  C   UNL     1       2.334   1.652  23.093  0.00  0.00    +0.001 C 
ATOM     22  C   UNL     1       2.861   0.291  22.648  0.00  0.00    +0.000 C 
ENDBRANCH  23  11
ENDBRANCH  26  18
BRANCH   5  19
ATOM     19  C   UNL     1      -4.958   2.442  25.623  0.00  0.00    +0.159 C 
BRANCH  19  28
ATOM      3  O   UNL     1      -6.793   1.467  26.883  0.00  0.00    -0.274 OA
ATOM      7  N   UNL     1      -7.068   1.799  24.628  0.00  0.00    -0.328 N 
ATOM     28  C   UNL     1      -6.355   1.863  25.806  0.00  0.00    +0.231 C 
ATOM     31  H   UNL     1      -8.011   1.427  24.610  0.00  0.00    +0.145 HD
ATOM     32  H   UNL     1      -6.687   2.113  23.740  0.00  0.00    +0.145 HD
ENDBRANCH  19  28
BRANCH  19  12
ATOM     12  C   UNL     1      -4.742   3.044  24.230  0.00  0.00    +0.035 C 
BRANCH  12   8
ATOM      8  C   UNL     1      -3.473   3.884  24.101  0.00  0.00    -0.009 C 
ATOM      9  C   UNL     1      -3.118   4.539  25.442  0.00  0.00    +0.003 C 
ATOM     10  C   UNL     1      -2.307   3.030  23.584  0.00  0.00    +0.003 C 
ATOM     13  C   UNL     1      -1.822   5.342  25.352  0.00  0.00    +0.000 C 
ATOM     14  C   UNL     1      -1.014   3.835  23.497  0.00  0.00    +0.000 C 
ATOM     15  C   UNL     1      -0.667   4.492  24.830  0.00  0.00    +0.000 C 
ENDBRANCH  12   8
ENDBRANCH  19  12
ENDBRANCH   5  19
TORSDOF 6
ENDMDL
MODEL 6
REMARK VINA RESULT:      -0.6      2.797      4.886
REMARK  Name = 7673717
REMARK  6 active torsions:
REMARK  status: ('A' for Active; 'I' for Inactive)
REMARK    1  A    between atoms: N_5  and  C_19
REMARK    2  A    between atoms: C_8  and  C_12
REMARK    3  A    between atoms: C_11  and  C_23
REMARK    4  A    between atoms: C_12  and  C_19
REMARK    5  A    between atoms: C_18  and  C_26
REMARK    6  A    between atoms: C_19  and  C_28
REMARK                            x       y       z     vdW  Elec       q    Type
REMARK                         _______ _______ _______ _____ _____    ______ ____
ROOT
ATOM      2  O   UNL     1      -4.065   4.274  25.748  0.00  0.00    -0.274 OA
ATOM      5  N   UNL     1      -2.264   3.251  24.685  0.00  0.00    -0.302 N 
ATOM     26  C   UNL     1      -3.603   3.551  24.869  0.00  0.00    +0.235 C 
ATOM     29  H   UNL     1      -1.982   2.741  23.853  0.00  0.00    +0.150 HD
ENDROOT
BRANCH  26  18
ATOM      1  O   UNL     1      -6.109   1.197  25.373  0.00  0.00    -0.275 OA
ATOM      4  N   UNL     1      -4.280   1.459  23.959  0.00  0.00    -0.287 N 
ATOM      6  N   UNL     1      -2.920   2.923  21.890  0.00  0.00    -0.312 NA
ATOM     18  C   UNL     1      -4.478   2.906  23.833  0.00  0.00    +0.176 C 
ATOM     23  C   UNL     1      -5.111   0.732  24.816  0.00  0.00    +0.219 C 
ATOM     24  C   UNL     1      -3.091   0.909  23.294  0.00  0.00    +0.123 C 
ATOM     25  C   UNL     1      -4.183   3.432  22.428  0.00  0.00    +0.113 C 
ATOM     27  C   UNL     1      -2.919   1.462  21.883  0.00  0.00    +0.100 C 
ATOM     30  H   UNL     1      -2.151   3.256  22.472  0.00  0.00    +0.122 HD
BRANCH  23  11
ATOM     11  C   UNL     1      -4.744  -0.704  25.052  0.00  0.00    +0.075 C 
ATOM     16  C   UNL     1      -3.522  -0.785  25.970  0.00  0.00    +0.013 C 
ATOM     17  C   UNL     1      -4.488  -1.404  23.715  0.00  0.00    +0.013 C 
ATOM     20  C   UNL     1      -3.055  -2.226  26.163  0.00  0.00    +0.001 C 
ATOM     21  C   UNL     1      -4.019  -2.843  23.913  0.00  0.00    +0.001 C 
ATOM     22  C   UNL     1      -2.800  -2.917  24.827  0.00  0.00    +0.000 C 
ENDBRANCH  23  11
ENDBRANCH  26  18
BRANCH   5  19
ATOM     19  C   UNL     1      -1.215   3.766  25.535  0.00  0.00    +0.159 C 
BRANCH  19  28
ATOM      3  O   UNL     1       0.293   5.323  24.436  0.00  0.00    -0.274 OA
ATOM      7  N   UNL     1      -1.700   6.120  25.252  0.00  0.00    -0.328 N 
ATOM     28  C   UNL     1      -0.779   5.125  25.002  0.00  0.00    +0.231 C 
ATOM     31  H   UNL     1      -1.528   7.075  24.955  0.00  0.00    +0.145 HD
ATOM     32  H   UNL     1      -2.575   5.947  25.739  0.00  0.00    +0.145 HD
ENDBRANCH  19  28
BRANCH  19  12
ATOM     12  C   UNL     1      -0.049   2.782  25.675  0.00  0.00    +0.035 C 
BRANCH  12   8
ATOM      8  C   UNL     1      -0.062   1.645  24.655  0.00  0.00    -0.009 C 
ATOM      9  C   UNL     1       1.273   1.578  23.902  0.00  0.00    +0.003 C 
ATOM     10  C   UNL     1      -0.372   0.306  25.339  0.00  0.00    +0.003 C 
ATOM     13  C   UNL     1       1.304   0.415  22.913  0.00  0.00    +0.000 C 
ATOM     14  C   UNL     1      -0.337  -0.854  24.347  0.00  0.00    +0.000 C 
ATOM     15  C   UNL     1       0.988  -0.913  23.594  0.00  0.00    +0.000 C 
ENDBRANCH  12   8
ENDBRANCH  19  12
ENDBRANCH   5  19
TORSDOF 6
ENDMDL
MODEL 7
REMARK VINA RESULT:      -0.1      2.237      6.224
REMARK  Name = 7673717
REMARK  6 active torsions:
REMARK  status: ('A' for Active; 'I' for Inactive)
REMARK    1  A    between atoms: N_5  and  C_19
REMARK    2  A    between atoms: C_8  and  C_12
REMARK    3  A    between atoms: C_11  and  C_23
REMARK    4  A    between atoms: C_12  and  C_19
REMARK    5  A    between atoms: C_18  and  C_26
REMARK    6  A    between atoms: C_19  and  C_28
REMARK                            x       y       z     vdW  Elec       q    Type
REMARK                         _______ _______ _______ _____ _____    ______ ____
ROOT
ATOM      2  O   UNL     1      -1.477  -2.263  23.901  0.00  0.00    -0.274 OA
ATOM      5  N   UNL     1      -2.378  -0.879  25.540  0.00  0.00    -0.302 N 
ATOM     26  C   UNL     1      -1.366  -1.363  24.729  0.00  0.00    +0.235 C 
ATOM     29  H   UNL     1      -2.207  -0.050  26.103  0.00  0.00    +0.150 HD
ENDROOT
BRANCH  26  18
ATOM      1  O   UNL     1      -0.813   1.480  26.651  0.00  0.00    -0.275 OA
ATOM      4  N   UNL     1      -0.282   0.744  24.508  0.00  0.00    -0.287 N 
ATOM      6  N   UNL     1       1.053  -1.123  22.775  0.00  0.00    -0.312 NA
ATOM     18  C   UNL     1      -0.069  -0.639  24.945  0.00  0.00    +0.176 C 
ATOM     23  C   UNL     1      -0.726   1.689  25.438  0.00  0.00    +0.219 C 
ATOM     24  C   UNL     1      -0.176   0.989  23.063  0.00  0.00    +0.123 C 
ATOM     25  C   UNL     1       1.094  -1.324  24.225  0.00  0.00    +0.113 C 
ATOM     27  C   UNL     1       1.042   0.303  22.456  0.00  0.00    +0.100 C 
ATOM     30  H   UNL     1       0.209  -1.556  22.401  0.00  0.00    +0.122 HD
BRANCH  23  11
ATOM     11  C   UNL     1      -1.109   3.036  24.898  0.00  0.00    +0.075 C 
ATOM     16  C   UNL     1       0.110   3.711  24.266  0.00  0.00    +0.013 C 
ATOM     17  C   UNL     1      -1.710   3.894  26.014  0.00  0.00    +0.013 C 
ATOM     20  C   UNL     1      -0.213   5.123  23.786  0.00  0.00    +0.001 C 
ATOM     21  C   UNL     1      -2.029   5.306  25.529  0.00  0.00    +0.001 C 
ATOM     22  C   UNL     1      -0.809   5.975  24.903  0.00  0.00    +0.000 C 
ENDBRANCH  23  11
ENDBRANCH  26  18
BRANCH   5  19
ATOM     19  C   UNL     1      -3.729  -1.390  25.509  0.00  0.00    +0.159 C 
BRANCH  19  28
ATOM      3  O   UNL     1      -3.245  -3.771  25.605  0.00  0.00    -0.274 OA
ATOM      7  N   UNL     1      -4.201  -2.923  23.697  0.00  0.00    -0.328 N 
ATOM     28  C   UNL     1      -3.698  -2.817  24.975  0.00  0.00    +0.231 C 
ATOM     31  H   UNL     1      -4.231  -3.818  23.221  0.00  0.00    +0.145 HD
ATOM     32  H   UNL     1      -4.555  -2.123  23.179  0.00  0.00    +0.145 HD
ENDBRANCH  19  28
BRANCH  19  12
ATOM     12  C   UNL     1      -4.675  -0.481  24.718  0.00  0.00    +0.035 C 
BRANCH  12   8
ATOM      8  C   UNL     1      -4.294   0.998  24.750  0.00  0.00    -0.009 C 
ATOM      9  C   UNL     1      -3.908   1.489  23.348  0.00  0.00    +0.003 C 
ATOM     10  C   UNL     1      -5.440   1.840  25.327  0.00  0.00    +0.003 C 
ATOM     13  C   UNL     1      -3.575   2.979  23.345  0.00  0.00    +0.000 C 
ATOM     14  C   UNL     1      -5.104   3.329  25.320  0.00  0.00    +0.000 C 
ATOM     15  C   UNL     1      -4.712   3.813  23.927  0.00  0.00    +0.000 C 
ENDBRANCH  12   8
ENDBRANCH  19  12
ENDBRANCH   5  19
TORSDOF 6
ENDMDL
MODEL 8
REMARK VINA RESULT:       0.0      1.792      4.147
REMARK  Name = 7673717
REMARK  6 active torsions:
REMARK  status: ('A' for Active; 'I' for Inactive)
REMARK    1  A    between atoms: N_5  and  C_19
REMARK    2  A    between atoms: C_8  and  C_12
REMARK    3  A    between atoms: C_11  and  C_23
REMARK    4  A    between atoms: C_12  and  C_19
REMARK    5  A    between atoms: C_18  and  C_26
REMARK    6  A    between atoms: C_19  and  C_28
REMARK                            x       y       z     vdW  Elec       q    Type
REMARK                         _______ _______ _______ _____ _____    ______ ____
ROOT
ATOM      2  O   UNL     1      -0.418   3.508  23.605  0.00  0.00    -0.274 OA
ATOM      5  N   UNL     1       0.471   1.431  24.165  0.00  0.00    -0.302 N 
ATOM     26  C   UNL     1      -0.304   2.558  24.376  0.00  0.00    +0.235 C 
ATOM     29  H   UNL     1       0.398   0.652  24.813  0.00  0.00    +0.150 HD
ENDROOT
BRANCH  26  18
ATOM      1  O   UNL     1      -0.898  -0.229  26.365  0.00  0.00    -0.275 OA
ATOM      4  N   UNL     1      -2.138   1.539  25.499  0.00  0.00    -0.287 N 
ATOM      6  N   UNL     1      -2.666   4.361  25.325  0.00  0.00    -0.312 NA
ATOM     18  C   UNL     1      -1.047   2.502  25.680  0.00  0.00    +0.176 C 
ATOM     23  C   UNL     1      -1.913   0.193  25.806  0.00  0.00    +0.219 C 
ATOM     24  C   UNL     1      -3.345   2.047  24.835  0.00  0.00    +0.123 C 
ATOM     25  C   UNL     1      -1.533   3.883  26.120  0.00  0.00    +0.113 C 
ATOM     27  C   UNL     1      -3.770   3.405  25.383  0.00  0.00    +0.100 C 
ATOM     30  H   UNL     1      -2.370   4.474  24.356  0.00  0.00    +0.122 HD
BRANCH  23  11
ATOM     11  C   UNL     1      -2.995  -0.773  25.423  0.00  0.00    +0.075 C 
ATOM     16  C   UNL     1      -2.447  -2.201  25.437  0.00  0.00    +0.013 C 
ATOM     17  C   UNL     1      -3.564  -0.404  24.051  0.00  0.00    +0.013 C 
ATOM     20  C   UNL     1      -3.489  -3.211  24.963  0.00  0.00    +0.001 C 
ATOM     21  C   UNL     1      -4.604  -1.417  23.580  0.00  0.00    +0.001 C 
ATOM     22  C   UNL     1      -4.051  -2.839  23.594  0.00  0.00    +0.000 C 
ENDBRANCH  23  11
ENDBRANCH  26  18
BRANCH   5  19
ATOM     19  C   UNL     1       1.266   1.230  22.975  0.00  0.00    +0.159 C 
BRANCH  19  28
ATOM      3  O   UNL     1       1.437  -0.617  21.405  0.00  0.00    -0.274 OA
ATOM      7  N   UNL     1       0.501  -1.013  23.464  0.00  0.00    -0.328 N 
ATOM     28  C   UNL     1       1.100  -0.213  22.516  0.00  0.00    +0.231 C 
ATOM     31  H   UNL     1       0.326  -1.996  23.281  0.00  0.00    +0.145 HD
ATOM     32  H   UNL     1       0.209  -0.662  24.372  0.00  0.00    +0.145 HD
ENDBRANCH  19  28
BRANCH  19  12
ATOM     12  C   UNL     1       2.733   1.621  23.186  0.00  0.00    +0.035 C 
BRANCH  12   8
ATOM      8  C   UNL     1       3.719   0.467  23.019  0.00  0.00    -0.009 C 
ATOM      9  C   UNL     1       5.153   0.936  23.296  0.00  0.00    +0.003 C 
ATOM     10  C   UNL     1       3.341  -0.706  23.935  0.00  0.00    +0.003 C 
ATOM     13  C   UNL     1       6.153  -0.213  23.187  0.00  0.00    +0.000 C 
ATOM     14  C   UNL     1       4.344  -1.851  23.825  0.00  0.00    +0.000 C 
ATOM     15  C   UNL     1       5.770  -1.381  24.092  0.00  0.00    +0.000 C 
ENDBRANCH  12   8
ENDBRANCH  19  12
ENDBRANCH   5  19
TORSDOF 6
ENDMDL
MODEL 9
REMARK VINA RESULT:       0.5      2.367      4.862
REMARK  Name = 7673717
REMARK  6 active torsions:
REMARK  status: ('A' for Active; 'I' for Inactive)
REMARK    1  A    between atoms: N_5  and  C_19
REMARK    2  A    between atoms: C_8  and  C_12
REMARK    3  A    between atoms: C_11  and  C_23
REMARK    4  A    between atoms: C_12  and  C_19
REMARK    5  A    between atoms: C_18  and  C_26
REMARK    6  A    between atoms: C_19  and  C_28
REMARK                            x       y       z     vdW  Elec       q    Type
REMARK                         _______ _______ _______ _____ _____    ______ ____
ROOT
ATOM      2  O   UNL     1       0.499   2.177  25.772  0.00  0.00    -0.274 OA
ATOM      5  N   UNL     1       0.236   1.320  23.624  0.00  0.00    -0.302 N 
ATOM     26  C   UNL     1       0.029   2.238  24.639  0.00  0.00    +0.235 C 
ATOM     29  H   UNL     1      -0.103   1.532  22.690  0.00  0.00    +0.150 HD
ENDROOT
BRANCH  26  18
ATOM      1  O   UNL     1      -2.280   3.998  26.550  0.00  0.00    -0.275 OA
ATOM      4  N   UNL     1      -2.227   2.976  24.461  0.00  0.00    -0.287 N 
ATOM      6  N   UNL     1      -1.144   2.795  21.802  0.00  0.00    -0.312 NA
ATOM     18  C   UNL     1      -0.842   3.382  24.204  0.00  0.00    +0.176 C 
ATOM     23  C   UNL     1      -2.805   3.276  25.698  0.00  0.00    +0.219 C 
ATOM     24  C   UNL     1      -2.849   2.118  23.443  0.00  0.00    +0.123 C 
ATOM     25  C   UNL     1      -0.590   3.769  22.746  0.00  0.00    +0.113 C 
ATOM     27  C   UNL     1      -2.576   2.621  22.029  0.00  0.00    +0.100 C 
ATOM     30  H   UNL     1      -0.672   1.900  21.931  0.00  0.00    +0.122 HD
BRANCH  23  11
ATOM     11  C   UNL     1      -4.151   2.673  25.976  0.00  0.00    +0.075 C 
ATOM     16  C   UNL     1      -4.290   1.344  25.231  0.00  0.00    +0.013 C 
ATOM     17  C   UNL     1      -5.256   3.656  25.581  0.00  0.00    +0.013 C 
ATOM     20  C   UNL     1      -5.680   0.740  25.411  0.00  0.00    +0.001 C 
ATOM     21  C   UNL     1      -6.643   3.046  25.761  0.00  0.00    +0.001 C 
ATOM     22  C   UNL     1      -6.777   1.723  25.013  0.00  0.00    +0.000 C 
ENDBRANCH  23  11
ENDBRANCH  26  18
BRANCH   5  19
ATOM     19  C   UNL     1       1.055   0.141  23.780  0.00  0.00    +0.159 C 
BRANCH  19  28
ATOM      3  O   UNL     1       2.125  -0.297  21.643  0.00  0.00    -0.274 OA
ATOM      7  N   UNL     1       3.313   0.832  23.251  0.00  0.00    -0.328 N 
ATOM     28  C   UNL     1       2.190   0.197  22.766  0.00  0.00    +0.231 C 
ATOM     31  H   UNL     1       4.144   0.931  22.678  0.00  0.00    +0.145 HD
ATOM     32  H   UNL     1       3.360   1.219  24.190  0.00  0.00    +0.145 HD
ENDBRANCH  19  28
BRANCH  19  12
ATOM     12  C   UNL     1       0.235  -1.150  23.682  0.00  0.00    +0.035 C 
BRANCH  12   8
ATOM      8  C   UNL     1      -1.162  -1.053  24.292  0.00  0.00    -0.009 C 
ATOM      9  C   UNL     1      -2.029  -2.240  23.852  0.00  0.00    +0.003 C 
ATOM     10  C   UNL     1      -1.082  -0.973  25.822  0.00  0.00    +0.003 C 
ATOM     13  C   UNL     1      -3.415  -2.194  24.491  0.00  0.00    +0.000 C 
ATOM     14  C   UNL     1      -2.469  -0.929  26.458  0.00  0.00    +0.000 C 
ATOM     15  C   UNL     1      -3.331  -2.106  26.012  0.00  0.00    +0.000 C 
ENDBRANCH  12   8
ENDBRANCH  19  12
ENDBRANCH   5  19
TORSDOF 6
ENDMDL
