MODEL 1
REMARK VINA RESULT:      -0.0      0.000      0.000
REMARK  Name = 45783373
REMARK  8 active torsions:
REMARK  status: ('A' for Active; 'I' for Inactive)
REMARK    1  A    between atoms: O_3  and  C_28
REMARK    2  A    between atoms: O_3  and  C_29
REMARK    3  A    between atoms: N_4  and  C_13
REMARK    4  A    between atoms: N_7  and  C_25
REMARK    5  A    between atoms: C_9  and  C_14
REMARK    6  A    between atoms: C_13  and  C_15
REMARK    7  A    between atoms: C_16  and  C_19
REMARK    8  A    between atoms: C_25  and  C_28
REMARK                            x       y       z     vdW  Elec       q    Type
REMARK                         _______ _______ _______ _____ _____    ______ ____
ROOT
ATOM      2  O   UNL     1      -0.782  -2.668  25.374  0.00  0.00    -0.336 OA
ATOM      5  N   UNL     1      -1.151  -0.877  24.082  0.00  0.00    -0.190 NA
ATOM      6  N   UNL     1       0.479  -2.130  25.084  0.00  0.00    -0.056 NA
ATOM     14  C   UNL     1      -1.684  -1.870  24.747  0.00  0.00    +0.245 A 
ATOM     16  C   UNL     1       0.178  -1.078  24.318  0.00  0.00    +0.205 A 
ENDROOT
BRANCH  16  19
ATOM      7  N   UNL     1       0.123   1.731  24.741  0.00  0.00    -0.326 N 
ATOM      8  N   UNL     1       2.098   2.008  23.467  0.00  0.00    -0.240 NA
ATOM     19  C   UNL     1       1.179  -0.208  23.772  0.00  0.00    +0.062 A 
ATOM     23  C   UNL     1       1.168   1.164  23.969  0.00  0.00    +0.130 A 
ATOM     24  C   UNL     1       2.211  -0.748  23.013  0.00  0.00    +0.016 A 
ATOM     26  C   UNL     1       3.186   0.087  22.480  0.00  0.00    +0.020 A 
ATOM     27  C   UNL     1       3.085   1.446  22.734  0.00  0.00    +0.113 A 
ATOM     30  H   UNL     1      -0.331   1.108  25.401  0.00  0.00    +0.148 HD
BRANCH   7  25
ATOM     25  C   UNL     1       0.029   3.131  24.997  0.00  0.00    +0.131 C 
BRANCH  25  28
ATOM     28  C   UNL     1      -1.114   3.407  25.961  0.00  0.00    +0.178 C 
BRANCH  28   3
ATOM      3  O   UNL     1      -1.670   4.686  25.680  0.00  0.00    -0.381 OA
ATOM     29  C   UNL     1      -0.866   5.413  24.761  0.00  0.00    +0.194 C 
ENDBRANCH  28   3
ENDBRANCH  25  28
ENDBRANCH   7  25
ENDBRANCH  16  19
BRANCH  14   9
ATOM      4  N   UNL     1      -4.057  -1.175  24.457  0.00  0.00    -0.287 NA
ATOM      9  C   UNL     1      -3.143  -2.243  24.909  0.00  0.00    +0.146 C 
ATOM     10  C   UNL     1      -3.538  -3.476  24.076  0.00  0.00    +0.030 C 
ATOM     11  C   UNL     1      -4.719  -3.022  23.229  0.00  0.00    +0.017 C 
ATOM     12  C   UNL     1      -5.277  -1.842  23.999  0.00  0.00    +0.085 C 
BRANCH   4  13
ATOM     13  C   UNL     1      -4.329  -0.178  25.484  0.00  0.00    +0.120 C 
BRANCH  13  15
ATOM      1 CL   UNL     1      -4.108   5.421  23.296  0.00  0.00    -0.084 Cl
ATOM     15  C   UNL     1      -4.274   1.222  24.935  0.00  0.00    -0.033 A 
ATOM     17  C   UNL     1      -4.982   2.246  25.566  0.00  0.00    +0.006 A 
ATOM     18  C   UNL     1      -3.516   1.496  23.797  0.00  0.00    +0.006 A 
ATOM     20  C   UNL     1      -4.932   3.544  25.057  0.00  0.00    +0.020 A 
ATOM     21  C   UNL     1      -3.465   2.795  23.290  0.00  0.00    +0.020 A 
ATOM     22  C   UNL     1      -4.173   3.819  23.920  0.00  0.00    +0.041 A 
ENDBRANCH  13  15
ENDBRANCH   4  13
ENDBRANCH  14   9
TORSDOF 7
ENDMDL
MODEL 2
REMARK VINA RESULT:       0.5      2.318      5.034
REMARK  Name = 45783373
REMARK  8 active torsions:
REMARK  status: ('A' for Active; 'I' for Inactive)
REMARK    1  A    between atoms: O_3  and  C_28
REMARK    2  A    between atoms: O_3  and  C_29
REMARK    3  A    between atoms: N_4  and  C_13
REMARK    4  A    between atoms: N_7  and  C_25
REMARK    5  A    between atoms: C_9  and  C_14
REMARK    6  A    between atoms: C_13  and  C_15
REMARK    7  A    between atoms: C_16  and  C_19
REMARK    8  A    between atoms: C_25  and  C_28
REMARK                            x       y       z     vdW  Elec       q    Type
REMARK                         _______ _______ _______ _____ _____    ______ ____
ROOT
ATOM      2  O   UNL     1      -0.529   3.371  25.843  0.00  0.00    -0.336 OA
ATOM      5  N   UNL     1      -0.803   2.480  23.806  0.00  0.00    -0.190 NA
ATOM      6  N   UNL     1       0.639   2.645  25.573  0.00  0.00    -0.056 NA
ATOM     14  C   UNL     1      -1.324   3.221  24.751  0.00  0.00    +0.245 A 
ATOM     16  C   UNL     1       0.401   2.150  24.356  0.00  0.00    +0.205 A 
ENDROOT
BRANCH  16  19
ATOM      7  N   UNL     1      -0.163  -0.560  23.719  0.00  0.00    -0.326 N 
ATOM      8  N   UNL     1       1.953  -0.807  22.689  0.00  0.00    -0.240 NA
ATOM     19  C   UNL     1       1.344   1.321  23.662  0.00  0.00    +0.062 A 
ATOM     23  C   UNL     1       1.084  -0.003  23.342  0.00  0.00    +0.130 A 
ATOM     24  C   UNL     1       2.572   1.853  23.285  0.00  0.00    +0.016 A 
ATOM     26  C   UNL     1       3.491   1.057  22.611  0.00  0.00    +0.020 A 
ATOM     27  C   UNL     1       3.136  -0.255  22.339  0.00  0.00    +0.113 A 
ATOM     30  H   UNL     1      -0.923   0.099  23.855  0.00  0.00    +0.148 HD
BRANCH   7  25
ATOM     25  C   UNL     1      -0.519  -1.912  23.433  0.00  0.00    +0.131 C 
BRANCH  25  28
ATOM     28  C   UNL     1      -0.696  -2.687  24.728  0.00  0.00    +0.178 C 
BRANCH  28   3
ATOM      3  O   UNL     1      -0.049  -1.993  25.787  0.00  0.00    -0.381 OA
ATOM     29  C   UNL     1      -0.879  -0.970  26.322  0.00  0.00    +0.194 C 
ENDBRANCH  28   3
ENDBRANCH  25  28
ENDBRANCH   7  25
ENDBRANCH  16  19
BRANCH  14   9
ATOM      4  N   UNL     1      -3.761   3.027  25.218  0.00  0.00    -0.287 NA
ATOM      9  C   UNL     1      -2.666   3.921  24.792  0.00  0.00    +0.146 C 
ATOM     10  C   UNL     1      -2.699   5.086  25.798  0.00  0.00    +0.030 C 
ATOM     11  C   UNL     1      -3.879   4.790  26.712  0.00  0.00    +0.017 C 
ATOM     12  C   UNL     1      -4.754   3.875  25.878  0.00  0.00    +0.085 C 
BRANCH   4  13
ATOM     13  C   UNL     1      -4.337   2.261  24.120  0.00  0.00    +0.120 C 
BRANCH  13  15
ATOM      1 CL   UNL     1      -3.685  -3.664  24.933  0.00  0.00    -0.084 Cl
ATOM     15  C   UNL     1      -4.175   0.779  24.324  0.00  0.00    -0.033 A 
ATOM     17  C   UNL     1      -4.056  -0.068  23.221  0.00  0.00    +0.006 A 
ATOM     18  C   UNL     1      -4.143   0.251  25.615  0.00  0.00    +0.006 A 
ATOM     20  C   UNL     1      -3.907  -1.442  23.410  0.00  0.00    +0.020 A 
ATOM     21  C   UNL     1      -3.992  -1.123  25.803  0.00  0.00    +0.020 A 
ATOM     22  C   UNL     1      -3.874  -1.969  24.701  0.00  0.00    +0.041 A 
ENDBRANCH  13  15
ENDBRANCH   4  13
ENDBRANCH  14   9
TORSDOF 7
ENDMDL
MODEL 3
REMARK VINA RESULT:       0.9      2.875      6.424
REMARK  Name = 45783373
REMARK  8 active torsions:
REMARK  status: ('A' for Active; 'I' for Inactive)
REMARK    1  A    between atoms: O_3  and  C_28
REMARK    2  A    between atoms: O_3  and  C_29
REMARK    3  A    between atoms: N_4  and  C_13
REMARK    4  A    between atoms: N_7  and  C_25
REMARK    5  A    between atoms: C_9  and  C_14
REMARK    6  A    between atoms: C_13  and  C_15
REMARK    7  A    between atoms: C_16  and  C_19
REMARK    8  A    between atoms: C_25  and  C_28
REMARK                            x       y       z     vdW  Elec       q    Type
REMARK                         _______ _______ _______ _____ _____    ______ ____
ROOT
ATOM      2  O   UNL     1      -3.705  -1.366  23.812  0.00  0.00    -0.336 OA
ATOM      5  N   UNL     1      -2.642   0.401  24.688  0.00  0.00    -0.190 NA
ATOM      6  N   UNL     1      -4.688  -0.395  24.044  0.00  0.00    -0.056 NA
ATOM     14  C   UNL     1      -2.531  -0.816  24.218  0.00  0.00    +0.245 A 
ATOM     16  C   UNL     1      -3.984   0.616  24.562  0.00  0.00    +0.205 A 
ENDROOT
BRANCH  16  19
ATOM      7  N   UNL     1      -2.527   3.054  24.617  0.00  0.00    -0.326 N 
ATOM      8  N   UNL     1      -4.437   4.231  25.370  0.00  0.00    -0.240 NA
ATOM     19  C   UNL     1      -4.589   1.853  24.964  0.00  0.00    +0.062 A 
ATOM     23  C   UNL     1      -3.894   3.051  24.995  0.00  0.00    +0.130 A 
ATOM     24  C   UNL     1      -5.928   1.867  25.338  0.00  0.00    +0.016 A 
ATOM     26  C   UNL     1      -6.523   3.061  25.728  0.00  0.00    +0.020 A 
ATOM     27  C   UNL     1      -5.741   4.205  25.726  0.00  0.00    +0.113 A 
ATOM     30  H   UNL     1      -2.233   2.300  24.005  0.00  0.00    +0.148 HD
BRANCH   7  25
ATOM     25  C   UNL     1      -1.732   4.238  24.618  0.00  0.00    +0.131 C 
BRANCH  25  28
ATOM     28  C   UNL     1      -0.257   3.872  24.621  0.00  0.00    +0.178 C 
BRANCH  28   3
ATOM      3  O   UNL     1      -0.104   2.524  25.047  0.00  0.00    -0.381 OA
ATOM     29  C   UNL     1       0.161   2.446  26.441  0.00  0.00    +0.194 C 
ENDBRANCH  28   3
ENDBRANCH  25  28
ENDBRANCH   7  25
ENDBRANCH  16  19
BRANCH  14   9
ATOM      4  N   UNL     1      -0.048  -0.937  24.351  0.00  0.00    -0.287 NA
ATOM      9  C   UNL     1      -1.294  -1.677  24.067  0.00  0.00    +0.146 C 
ATOM     10  C   UNL     1      -1.275  -2.867  25.044  0.00  0.00    +0.030 C 
ATOM     11  C   UNL     1       0.045  -2.745  25.792  0.00  0.00    +0.017 C 
ATOM     12  C   UNL     1       0.909  -1.921  24.859  0.00  0.00    +0.085 C 
BRANCH   4  13
ATOM     13  C   UNL     1       0.468  -0.216  23.195  0.00  0.00    +0.120 C 
BRANCH  13  15
ATOM      1 CL   UNL     1       6.478   0.059  23.226  0.00  0.00    -0.084 Cl
ATOM     15  C   UNL     1       1.972  -0.146  23.203  0.00  0.00    -0.033 A 
ATOM     17  C   UNL     1       2.721  -1.276  23.534  0.00  0.00    +0.006 A 
ATOM     18  C   UNL     1       2.617   1.047  22.879  0.00  0.00    +0.006 A 
ATOM     20  C   UNL     1       4.114  -1.212  23.543  0.00  0.00    +0.020 A 
ATOM     21  C   UNL     1       4.011   1.111  22.887  0.00  0.00    +0.020 A 
ATOM     22  C   UNL     1       4.759  -0.018  23.219  0.00  0.00    +0.041 A 
ENDBRANCH  13  15
ENDBRANCH   4  13
ENDBRANCH  14   9
TORSDOF 7
ENDMDL
MODEL 4
REMARK VINA RESULT:       1.1      2.712      5.374
REMARK  Name = 45783373
REMARK  8 active torsions:
REMARK  status: ('A' for Active; 'I' for Inactive)
REMARK    1  A    between atoms: O_3  and  C_28
REMARK    2  A    between atoms: O_3  and  C_29
REMARK    3  A    between atoms: N_4  and  C_13
REMARK    4  A    between atoms: N_7  and  C_25
REMARK    5  A    between atoms: C_9  and  C_14
REMARK    6  A    between atoms: C_13  and  C_15
REMARK    7  A    between atoms: C_16  and  C_19
REMARK    8  A    between atoms: C_25  and  C_28
REMARK                            x       y       z     vdW  Elec       q    Type
REMARK                         _______ _______ _______ _____ _____    ______ ____
ROOT
ATOM      2  O   UNL     1      -0.714   3.418  24.171  0.00  0.00    -0.336 OA
ATOM      5  N   UNL     1      -1.812   1.522  24.636  0.00  0.00    -0.190 NA
ATOM      6  N   UNL     1       0.245   2.396  24.151  0.00  0.00    -0.056 NA
ATOM     14  C   UNL     1      -1.896   2.817  24.463  0.00  0.00    +0.245 A 
ATOM     16  C   UNL     1      -0.479   1.310  24.435  0.00  0.00    +0.205 A 
ENDROOT
BRANCH  16  19
ATOM      7  N   UNL     1       1.866   0.595  23.001  0.00  0.00    -0.326 N 
ATOM      8  N   UNL     1       1.805  -1.593  23.902  0.00  0.00    -0.240 NA
ATOM     19  C   UNL     1       0.097  -0.000  24.527  0.00  0.00    +0.062 A 
ATOM     23  C   UNL     1       1.241  -0.366  23.835  0.00  0.00    +0.130 A 
ATOM     24  C   UNL     1      -0.504  -0.954  25.341  0.00  0.00    +0.016 A 
ATOM     26  C   UNL     1       0.047  -2.226  25.436  0.00  0.00    +0.020 A 
ATOM     27  C   UNL     1       1.193  -2.493  24.703  0.00  0.00    +0.113 A 
ATOM     30  H   UNL     1       1.687   1.567  23.229  0.00  0.00    +0.148 HD
BRANCH   7  25
ATOM     25  C   UNL     1       3.045   0.310  22.251  0.00  0.00    +0.131 C 
BRANCH  25  28
ATOM     28  C   UNL     1       4.247   0.978  22.899  0.00  0.00    +0.178 C 
BRANCH  28   3
ATOM      3  O   UNL     1       5.331   0.058  22.947  0.00  0.00    -0.381 OA
ATOM     29  C   UNL     1       5.396  -0.605  24.203  0.00  0.00    +0.194 C 
ENDBRANCH  28   3
ENDBRANCH  25  28
ENDBRANCH   7  25
ENDBRANCH  16  19
BRANCH  14   9
ATOM      4  N   UNL     1      -4.206   3.130  25.336  0.00  0.00    -0.287 NA
ATOM      9  C   UNL     1      -3.110   3.719  24.541  0.00  0.00    +0.146 C 
ATOM     10  C   UNL     1      -2.809   5.065  25.226  0.00  0.00    +0.030 C 
ATOM     11  C   UNL     1      -3.822   5.171  26.357  0.00  0.00    +0.017 C 
ATOM     12  C   UNL     1      -4.944   4.252  25.918  0.00  0.00    +0.085 C 
BRANCH   4  13
ATOM     13  C   UNL     1      -5.069   2.248  24.561  0.00  0.00    +0.120 C 
BRANCH  13  15
ATOM      1 CL   UNL     1      -3.247  -3.479  24.832  0.00  0.00    -0.084 Cl
ATOM     15  C   UNL     1      -4.614   0.815  24.630  0.00  0.00    -0.033 A 
ATOM     17  C   UNL     1      -4.404   0.093  23.454  0.00  0.00    +0.006 A 
ATOM     18  C   UNL     1      -4.402   0.209  25.868  0.00  0.00    +0.006 A 
ATOM     20  C   UNL     1      -3.983  -1.235  23.517  0.00  0.00    +0.020 A 
ATOM     21  C   UNL     1      -3.979  -1.120  25.930  0.00  0.00    +0.020 A 
ATOM     22  C   UNL     1      -3.770  -1.842  24.755  0.00  0.00    +0.041 A 
ENDBRANCH  13  15
ENDBRANCH   4  13
ENDBRANCH  14   9
TORSDOF 7
ENDMDL
MODEL 5
REMARK VINA RESULT:       1.2      1.818      3.535
REMARK  Name = 45783373
REMARK  8 active torsions:
REMARK  status: ('A' for Active; 'I' for Inactive)
REMARK    1  A    between atoms: O_3  and  C_28
REMARK    2  A    between atoms: O_3  and  C_29
REMARK    3  A    between atoms: N_4  and  C_13
REMARK    4  A    between atoms: N_7  and  C_25
REMARK    5  A    between atoms: C_9  and  C_14
REMARK    6  A    between atoms: C_13  and  C_15
REMARK    7  A    between atoms: C_16  and  C_19
REMARK    8  A    between atoms: C_25  and  C_28
REMARK                            x       y       z     vdW  Elec       q    Type
REMARK                         _______ _______ _______ _____ _____    ______ ____
ROOT
ATOM      2  O   UNL     1      -1.345  -0.629  26.545  0.00  0.00    -0.336 OA
ATOM      5  N   UNL     1      -2.142   0.536  24.807  0.00  0.00    -0.190 NA
ATOM      6  N   UNL     1      -0.654   0.590  26.543  0.00  0.00    -0.056 NA
ATOM     14  C   UNL     1      -2.201  -0.578  25.491  0.00  0.00    +0.245 A 
ATOM     16  C   UNL     1      -1.179   1.221  25.489  0.00  0.00    +0.205 A 
ENDROOT
BRANCH  16  19
ATOM      7  N   UNL     1       1.121   1.646  23.876  0.00  0.00    -0.326 N 
ATOM      8  N   UNL     1       0.769   3.986  23.912  0.00  0.00    -0.240 NA
ATOM     19  C   UNL     1      -0.764   2.535  25.090  0.00  0.00    +0.062 A 
ATOM     23  C   UNL     1       0.355   2.760  24.303  0.00  0.00    +0.130 A 
ATOM     24  C   UNL     1      -1.504   3.638  25.500  0.00  0.00    +0.016 A 
ATOM     26  C   UNL     1      -1.110   4.914  25.118  0.00  0.00    +0.020 A 
ATOM     27  C   UNL     1       0.024   5.034  24.331  0.00  0.00    +0.113 A 
ATOM     30  H   UNL     1       0.633   0.757  23.841  0.00  0.00    +0.148 HD
BRANCH   7  25
ATOM     25  C   UNL     1       2.286   1.780  23.065  0.00  0.00    +0.131 C 
BRANCH  25  28
ATOM     28  C   UNL     1       2.870   0.410  22.763  0.00  0.00    +0.178 C 
BRANCH  28   3
ATOM      3  O   UNL     1       4.235   0.550  22.388  0.00  0.00    -0.381 OA
ATOM     29  C   UNL     1       5.104   0.304  23.486  0.00  0.00    +0.194 C 
ENDBRANCH  28   3
ENDBRANCH  25  28
ENDBRANCH   7  25
ENDBRANCH  16  19
BRANCH  14   9
ATOM      4  N   UNL     1      -4.049  -1.604  24.179  0.00  0.00    -0.287 NA
ATOM      9  C   UNL     1      -3.077  -1.793  25.274  0.00  0.00    +0.146 C 
ATOM     10  C   UNL     1      -2.273  -3.043  24.872  0.00  0.00    +0.030 C 
ATOM     11  C   UNL     1      -2.902  -3.520  23.570  0.00  0.00    +0.017 C 
ATOM     12  C   UNL     1      -4.298  -2.931  23.613  0.00  0.00    +0.085 C 
BRANCH   4  13
ATOM     13  C   UNL     1      -5.280  -0.952  24.608  0.00  0.00    +0.120 C 
BRANCH  13  15
ATOM      1 CL   UNL     1      -4.644   5.019  24.968  0.00  0.00    -0.084 Cl
ATOM     15  C   UNL     1      -5.121   0.542  24.697  0.00  0.00    -0.033 A 
ATOM     17  C   UNL     1      -5.634   1.234  25.795  0.00  0.00    +0.006 A 
ATOM     18  C   UNL     1      -4.461   1.235  23.682  0.00  0.00    +0.006 A 
ATOM     20  C   UNL     1      -5.488   2.619  25.877  0.00  0.00    +0.020 A 
ATOM     21  C   UNL     1      -4.314   2.620  23.766  0.00  0.00    +0.020 A 
ATOM     22  C   UNL     1      -4.828   3.312  24.863  0.00  0.00    +0.041 A 
ENDBRANCH  13  15
ENDBRANCH   4  13
ENDBRANCH  14   9
TORSDOF 7
ENDMDL
MODEL 6
REMARK VINA RESULT:       1.4      2.807      4.572
REMARK  Name = 45783373
REMARK  8 active torsions:
REMARK  status: ('A' for Active; 'I' for Inactive)
REMARK    1  A    between atoms: O_3  and  C_28
REMARK    2  A    between atoms: O_3  and  C_29
REMARK    3  A    between atoms: N_4  and  C_13
REMARK    4  A    between atoms: N_7  and  C_25
REMARK    5  A    between atoms: C_9  and  C_14
REMARK    6  A    between atoms: C_13  and  C_15
REMARK    7  A    between atoms: C_16  and  C_19
REMARK    8  A    between atoms: C_25  and  C_28
REMARK                            x       y       z     vdW  Elec       q    Type
REMARK                         _______ _______ _______ _____ _____    ______ ____
ROOT
ATOM      2  O   UNL     1      -3.528   2.341  22.255  0.00  0.00    -0.336 OA
ATOM      5  N   UNL     1      -2.469   1.765  24.143  0.00  0.00    -0.190 NA
ATOM      6  N   UNL     1      -2.231   1.968  21.877  0.00  0.00    -0.056 NA
ATOM     14  C   UNL     1      -3.583   2.192  23.604  0.00  0.00    +0.245 A 
ATOM     16  C   UNL     1      -1.669   1.643  23.044  0.00  0.00    +0.205 A 
ENDROOT
BRANCH  16  19
ATOM      7  N   UNL     1       0.093   2.631  25.041  0.00  0.00    -0.326 N 
ATOM      8  N   UNL     1       1.846   1.257  24.240  0.00  0.00    -0.240 NA
ATOM     19  C   UNL     1      -0.311   1.192  23.149  0.00  0.00    +0.062 A 
ATOM     23  C   UNL     1       0.561   1.663  24.118  0.00  0.00    +0.130 A 
ATOM     24  C   UNL     1       0.164   0.243  22.251  0.00  0.00    +0.016 A 
ATOM     26  C   UNL     1       1.478  -0.199  22.346  0.00  0.00    +0.020 A 
ATOM     27  C   UNL     1       2.271   0.334  23.349  0.00  0.00    +0.113 A 
ATOM     30  H   UNL     1      -0.910   2.654  25.192  0.00  0.00    +0.148 HD
BRANCH   7  25
ATOM     25  C   UNL     1       0.917   3.173  26.071  0.00  0.00    +0.131 C 
BRANCH  25  28
ATOM     28  C   UNL     1       0.651   2.453  27.383  0.00  0.00    +0.178 C 
BRANCH  28   3
ATOM      3  O   UNL     1       1.746   2.662  28.267  0.00  0.00    -0.381 OA
ATOM     29  C   UNL     1       1.397   2.349  29.609  0.00  0.00    +0.194 C 
ENDBRANCH  28   3
ENDBRANCH  25  28
ENDBRANCH   7  25
ENDBRANCH  16  19
BRANCH  14   9
ATOM      4  N   UNL     1      -5.032   1.939  25.611  0.00  0.00    -0.287 NA
ATOM      9  C   UNL     1      -4.901   2.534  24.267  0.00  0.00    +0.146 C 
ATOM     10  C   UNL     1      -5.080   4.047  24.489  0.00  0.00    +0.030 C 
ATOM     11  C   UNL     1      -5.366   4.200  25.976  0.00  0.00    +0.017 C 
ATOM     12  C   UNL     1      -5.895   2.839  26.379  0.00  0.00    +0.085 C 
BRANCH   4  13
ATOM     13  C   UNL     1      -5.544   0.575  25.590  0.00  0.00    +0.120 C 
BRANCH  13  15
ATOM      1 CL   UNL     1      -1.300  -3.383  24.002  0.00  0.00    -0.084 Cl
ATOM     15  C   UNL     1      -4.482  -0.416  25.194  0.00  0.00    -0.033 A 
ATOM     17  C   UNL     1      -4.632  -1.171  24.030  0.00  0.00    +0.006 A 
ATOM     18  C   UNL     1      -3.347  -0.578  25.989  0.00  0.00    +0.006 A 
ATOM     20  C   UNL     1      -3.649  -2.090  23.663  0.00  0.00    +0.020 A 
ATOM     21  C   UNL     1      -2.364  -1.496  25.620  0.00  0.00    +0.020 A 
ATOM     22  C   UNL     1      -2.514  -2.253  24.458  0.00  0.00    +0.041 A 
ENDBRANCH  13  15
ENDBRANCH   4  13
ENDBRANCH  14   9
TORSDOF 7
ENDMDL
MODEL 7
REMARK VINA RESULT:       1.5      2.319      5.708
REMARK  Name = 45783373
REMARK  8 active torsions:
REMARK  status: ('A' for Active; 'I' for Inactive)
REMARK    1  A    between atoms: O_3  and  C_28
REMARK    2  A    between atoms: O_3  and  C_29
REMARK    3  A    between atoms: N_4  and  C_13
REMARK    4  A    between atoms: N_7  and  C_25
REMARK    5  A    between atoms: C_9  and  C_14
REMARK    6  A    between atoms: C_13  and  C_15
REMARK    7  A    between atoms: C_16  and  C_19
REMARK    8  A    between atoms: C_25  and  C_28
REMARK                            x       y       z     vdW  Elec       q    Type
REMARK                         _______ _______ _______ _____ _____    ______ ____
ROOT
ATOM      2  O   UNL     1      -4.037   2.261  23.833  0.00  0.00    -0.336 OA
ATOM      5  N   UNL     1      -4.222   0.679  25.407  0.00  0.00    -0.190 NA
ATOM      6  N   UNL     1      -3.532   1.084  23.264  0.00  0.00    -0.056 NA
ATOM     14  C   UNL     1      -4.421   1.934  25.094  0.00  0.00    +0.245 A 
ATOM     16  C   UNL     1      -3.675   0.198  24.253  0.00  0.00    +0.205 A 
ENDROOT
BRANCH  16  19
ATOM      7  N   UNL     1      -0.944  -0.583  24.190  0.00  0.00    -0.326 N 
ATOM      8  N   UNL     1      -1.552  -2.859  23.969  0.00  0.00    -0.240 NA
ATOM     19  C   UNL     1      -3.280  -1.175  24.123  0.00  0.00    +0.062 A 
ATOM     23  C   UNL     1      -1.953  -1.574  24.091  0.00  0.00    +0.130 A 
ATOM     24  C   UNL     1      -4.258  -2.159  24.025  0.00  0.00    +0.016 A 
ATOM     26  C   UNL     1      -3.885  -3.492  23.898  0.00  0.00    +0.020 A 
ATOM     27  C   UNL     1      -2.531  -3.787  23.876  0.00  0.00    +0.113 A 
ATOM     30  H   UNL     1      -1.214   0.285  24.642  0.00  0.00    +0.148 HD
BRANCH   7  25
ATOM     25  C   UNL     1       0.447  -0.897  24.167  0.00  0.00    +0.131 C 
BRANCH  25  28
ATOM     28  C   UNL     1       1.061  -0.440  22.854  0.00  0.00    +0.178 C 
BRANCH  28   3
ATOM      3  O   UNL     1       2.473  -0.608  22.909  0.00  0.00    -0.381 OA
ATOM     29  C   UNL     1       3.125   0.137  21.890  0.00  0.00    +0.194 C 
ENDBRANCH  28   3
ENDBRANCH  25  28
ENDBRANCH   7  25
ENDBRANCH  16  19
BRANCH  14   9
ATOM      4  N   UNL     1      -4.363   4.352  25.681  0.00  0.00    -0.287 NA
ATOM      9  C   UNL     1      -5.012   3.050  25.931  0.00  0.00    +0.146 C 
ATOM     10  C   UNL     1      -6.503   3.291  25.633  0.00  0.00    +0.030 C 
ATOM     11  C   UNL     1      -6.604   4.769  25.282  0.00  0.00    +0.017 C 
ATOM     12  C   UNL     1      -5.378   5.375  25.936  0.00  0.00    +0.085 C 
BRANCH   4  13
ATOM     13  C   UNL     1      -3.163   4.560  26.481  0.00  0.00    +0.120 C 
BRANCH  13  15
ATOM      1 CL   UNL     1       1.730   2.284  23.822  0.00  0.00    -0.084 Cl
ATOM     15  C   UNL     1      -1.939   3.989  25.816  0.00  0.00    -0.033 A 
ATOM     17  C   UNL     1      -1.448   4.568  24.645  0.00  0.00    +0.006 A 
ATOM     18  C   UNL     1      -1.296   2.883  26.370  0.00  0.00    +0.006 A 
ATOM     20  C   UNL     1      -0.314   4.039  24.028  0.00  0.00    +0.020 A 
ATOM     21  C   UNL     1      -0.161   2.355  25.752  0.00  0.00    +0.020 A 
ATOM     22  C   UNL     1       0.329   2.933  24.581  0.00  0.00    +0.041 A 
ENDBRANCH  13  15
ENDBRANCH   4  13
ENDBRANCH  14   9
TORSDOF 7
ENDMDL
MODEL 8
REMARK VINA RESULT:       2.1      1.690      5.567
REMARK  Name = 45783373
REMARK  8 active torsions:
REMARK  status: ('A' for Active; 'I' for Inactive)
REMARK    1  A    between atoms: O_3  and  C_28
REMARK    2  A    between atoms: O_3  and  C_29
REMARK    3  A    between atoms: N_4  and  C_13
REMARK    4  A    between atoms: N_7  and  C_25
REMARK    5  A    between atoms: C_9  and  C_14
REMARK    6  A    between atoms: C_13  and  C_15
REMARK    7  A    between atoms: C_16  and  C_19
REMARK    8  A    between atoms: C_25  and  C_28
REMARK                            x       y       z     vdW  Elec       q    Type
REMARK                         _______ _______ _______ _____ _____    ______ ____
ROOT
ATOM      2  O   UNL     1       1.057  -1.237  24.608  0.00  0.00    -0.336 OA
ATOM      5  N   UNL     1      -0.461  -0.608  23.086  0.00  0.00    -0.190 NA
ATOM      6  N   UNL     1      -0.166  -1.778  25.030  0.00  0.00    -0.056 NA
ATOM     14  C   UNL     1       0.793  -0.565  23.458  0.00  0.00    +0.245 A 
ATOM     16  C   UNL     1      -1.011  -1.363  24.082  0.00  0.00    +0.205 A 
ENDROOT
BRANCH  16  19
ATOM      7  N   UNL     1      -3.014   0.651  24.083  0.00  0.00    -0.326 N 
ATOM      8  N   UNL     1      -4.724  -0.985  24.116  0.00  0.00    -0.240 NA
ATOM     19  C   UNL     1      -2.409  -1.683  24.100  0.00  0.00    +0.062 A 
ATOM     23  C   UNL     1      -3.399  -0.713  24.099  0.00  0.00    +0.130 A 
ATOM     24  C   UNL     1      -2.803  -3.016  24.116  0.00  0.00    +0.016 A 
ATOM     26  C   UNL     1      -4.156  -3.335  24.133  0.00  0.00    +0.020 A 
ATOM     27  C   UNL     1      -5.068  -2.292  24.132  0.00  0.00    +0.113 A 
ATOM     30  H   UNL     1      -2.094   0.850  23.704  0.00  0.00    +0.148 HD
BRANCH   7  25
ATOM     25  C   UNL     1      -3.962   1.717  24.081  0.00  0.00    +0.131 C 
BRANCH  25  28
ATOM     28  C   UNL     1      -4.825   1.647  25.329  0.00  0.00    +0.178 C 
BRANCH  28   3
ATOM      3  O   UNL     1      -5.929   2.534  25.191  0.00  0.00    -0.381 OA
ATOM     29  C   UNL     1      -5.542   3.884  25.407  0.00  0.00    +0.194 C 
ENDBRANCH  28   3
ENDBRANCH  25  28
ENDBRANCH   7  25
ENDBRANCH  16  19
BRANCH  14   9
ATOM      4  N   UNL     1       2.391   1.342  23.499  0.00  0.00    -0.287 NA
ATOM      9  C   UNL     1       1.969   0.118  22.791  0.00  0.00    +0.146 C 
ATOM     10  C   UNL     1       3.228  -0.767  22.752  0.00  0.00    +0.030 C 
ATOM     11  C   UNL     1       4.320   0.065  23.408  0.00  0.00    +0.017 C 
ATOM     12  C   UNL     1       3.826   1.489  23.249  0.00  0.00    +0.085 C 
BRANCH   4  13
ATOM     13  C   UNL     1       1.641   2.526  23.101  0.00  0.00    +0.120 C 
BRANCH  13  15
ATOM      1 CL   UNL     1      -2.696   3.869  27.047  0.00  0.00    -0.084 Cl
ATOM     15  C   UNL     1       0.557   2.862  24.089  0.00  0.00    -0.033 A 
ATOM     17  C   UNL     1      -0.274   3.961  23.867  0.00  0.00    +0.006 A 
ATOM     18  C   UNL     1       0.381   2.074  25.227  0.00  0.00    +0.006 A 
ATOM     20  C   UNL     1      -1.278   4.274  24.783  0.00  0.00    +0.020 A 
ATOM     21  C   UNL     1      -0.625   2.386  26.142  0.00  0.00    +0.020 A 
ATOM     22  C   UNL     1      -1.454   3.486  25.920  0.00  0.00    +0.041 A 
ENDBRANCH  13  15
ENDBRANCH   4  13
ENDBRANCH  14   9
TORSDOF 7
ENDMDL
MODEL 9
REMARK VINA RESULT:       3.5      2.198      3.271
REMARK  Name = 45783373
REMARK  8 active torsions:
REMARK  status: ('A' for Active; 'I' for Inactive)
REMARK    1  A    between atoms: O_3  and  C_28
REMARK    2  A    between atoms: O_3  and  C_29
REMARK    3  A    between atoms: N_4  and  C_13
REMARK    4  A    between atoms: N_7  and  C_25
REMARK    5  A    between atoms: C_9  and  C_14
REMARK    6  A    between atoms: C_13  and  C_15
REMARK    7  A    between atoms: C_16  and  C_19
REMARK    8  A    between atoms: C_25  and  C_28
REMARK                            x       y       z     vdW  Elec       q    Type
REMARK                         _______ _______ _______ _____ _____    ______ ____
ROOT
ATOM      2  O   UNL     1      -0.198  -0.983  24.213  0.00  0.00    -0.336 OA
ATOM      5  N   UNL     1      -1.729   0.497  24.907  0.00  0.00    -0.190 NA
ATOM      6  N   UNL     1       0.411   0.276  24.129  0.00  0.00    -0.056 NA
ATOM     14  C   UNL     1      -1.455  -0.763  24.679  0.00  0.00    +0.245 A 
ATOM     16  C   UNL     1      -0.555   1.096  24.554  0.00  0.00    +0.205 A 
ENDROOT
BRANCH  16  19
ATOM      7  N   UNL     1       0.355   2.361  26.929  0.00  0.00    -0.326 N 
ATOM      8  N   UNL     1       0.238   4.487  25.897  0.00  0.00    -0.240 NA
ATOM     19  C   UNL     1      -0.379   2.517  24.638  0.00  0.00    +0.062 A 
ATOM     23  C   UNL     1       0.064   3.150  25.788  0.00  0.00    +0.130 A 
ATOM     24  C   UNL     1      -0.660   3.305  23.528  0.00  0.00    +0.016 A 
ATOM     26  C   UNL     1      -0.493   4.683  23.600  0.00  0.00    +0.020 A 
ATOM     27  C   UNL     1      -0.045   5.220  24.797  0.00  0.00    +0.113 A 
ATOM     30  H   UNL     1       0.584   1.388  26.752  0.00  0.00    +0.148 HD
BRANCH   7  25
ATOM     25  C   UNL     1       0.816   2.923  28.156  0.00  0.00    +0.131 C 
BRANCH  25  28
ATOM     28  C   UNL     1       2.237   2.464  28.437  0.00  0.00    +0.178 C 
BRANCH  28   3
ATOM      3  O   UNL     1       2.370   2.154  29.819  0.00  0.00    -0.381 OA
ATOM     29  C   UNL     1       1.149   2.357  30.517  0.00  0.00    +0.194 C 
ENDBRANCH  28   3
ENDBRANCH  25  28
ENDBRANCH   7  25
ENDBRANCH  16  19
BRANCH  14   9
ATOM      4  N   UNL     1      -3.568  -1.922  24.060  0.00  0.00    -0.287 NA
ATOM      9  C   UNL     1      -2.331  -1.984  24.863  0.00  0.00    +0.146 C 
ATOM     10  C   UNL     1      -1.639  -3.285  24.417  0.00  0.00    +0.030 C 
ATOM     11  C   UNL     1      -2.589  -3.915  23.407  0.00  0.00    +0.017 C 
ATOM     12  C   UNL     1      -3.933  -3.307  23.755  0.00  0.00    +0.085 C 
BRANCH   4  13
ATOM     13  C   UNL     1      -4.649  -1.204  24.723  0.00  0.00    +0.120 C 
BRANCH  13  15
ATOM      1 CL   UNL     1      -4.151   4.749  24.018  0.00  0.00    -0.084 Cl
ATOM     15  C   UNL     1      -4.524   0.285  24.548  0.00  0.00    -0.033 A 
ATOM     17  C   UNL     1      -3.973   0.806  23.376  0.00  0.00    +0.006 A 
ATOM     18  C   UNL     1      -4.959   1.146  25.556  0.00  0.00    +0.006 A 
ATOM     20  C   UNL     1      -3.856   2.186  23.213  0.00  0.00    +0.020 A 
ATOM     21  C   UNL     1      -4.843   2.526  25.392  0.00  0.00    +0.020 A 
ATOM     22  C   UNL     1      -4.291   3.047  24.221  0.00  0.00    +0.041 A 
ENDBRANCH  13  15
ENDBRANCH   4  13
ENDBRANCH  14   9
TORSDOF 7
ENDMDL
