MODEL 1
REMARK VINA RESULT:      11.6      0.000      0.000
REMARK  Name = 11879867
REMARK  6 active torsions:
REMARK  status: ('A' for Active; 'I' for Inactive)
REMARK    1  A    between atoms: S_1  and  N_10
REMARK    2  A    between atoms: S_1  and  C_27
REMARK    3  A    between atoms: N_10  and  C_22
REMARK    4  A    between atoms: N_11  and  C_35
REMARK    5  A    between atoms: C_21  and  C_24
REMARK    6  A    between atoms: C_36  and  C_37
REMARK                            x       y       z     vdW  Elec       q    Type
REMARK                         _______ _______ _______ _____ _____    ______ ____
ROOT
ATOM      3  O   UNL     1      -3.776   0.683  22.414  0.00  0.00    -0.266 OA
ATOM      4  O   UNL     1      -1.249   2.975  26.811  0.00  0.00    -0.270 OA
ATOM      8  N   UNL     1      -3.115   4.118  25.983  0.00  0.00    -0.297 N 
ATOM      9  N   UNL     1      -4.567   1.881  24.266  0.00  0.00    -0.310 N 
ATOM     12  C   UNL     1      -4.880   4.422  24.255  0.00  0.00    +0.027 C 
ATOM     13  C   UNL     1      -5.374   3.137  26.296  0.00  0.00    +0.054 C 
ATOM     14  C   UNL     1      -5.948   4.153  25.309  0.00  0.00    +0.018 C 
ATOM     15  C   UNL     1      -3.606   4.983  24.911  0.00  0.00    +0.113 C 
ATOM     16  C   UNL     1      -4.609   3.124  23.484  0.00  0.00    +0.130 C 
ATOM     17  C   UNL     1      -4.126   3.730  26.980  0.00  0.00    +0.117 C 
ATOM     18  C   UNL     1      -5.008   1.841  25.596  0.00  0.00    +0.027 A 
ATOM     19  C   UNL     1      -5.069   0.673  26.260  0.00  0.00    +0.024 A 
ATOM     20  C   UNL     1      -4.158   0.716  23.583  0.00  0.00    +0.274 A 
ATOM     21  C   UNL     1      -1.778   3.713  25.983  0.00  0.00    +0.247 C 
ATOM     22  C   UNL     1      -4.225  -0.538  24.375  0.00  0.00    +0.112 A 
ATOM     23  C   UNL     1      -4.665  -0.557  25.634  0.00  0.00    +0.031 A 
ENDROOT
BRANCH  21  24
ATOM      2  F   UNL     1       1.536   5.640  21.914  0.00  0.00    -0.205 F 
ATOM     24  C   UNL     1      -0.908   4.219  24.916  0.00  0.00    +0.037 A 
ATOM     25  C   UNL     1      -0.311   3.327  24.029  0.00  0.00    +0.016 A 
ATOM     26  C   UNL     1      -0.684   5.588  24.794  0.00  0.00    +0.016 A 
ATOM     28  C   UNL     1       0.516   3.808  23.013  0.00  0.00    +0.039 A 
ATOM     29  C   UNL     1       0.143   6.069  23.780  0.00  0.00    +0.039 A 
ATOM     30  C   UNL     1       0.743   5.178  22.889  0.00  0.00    +0.123 A 
ENDBRANCH  21  24
BRANCH  22  10
ATOM     10  N   UNL     1      -3.828  -1.758  23.803  0.00  0.00    -0.211 N 
ATOM     38  H   UNL     1      -3.844  -1.763  22.775  0.00  0.00    +0.174 HD
BRANCH  10   1
ATOM      1  S   UNL     1      -2.454  -2.487  24.502  0.00  0.00    +0.072 S 
ATOM      5  O   UNL     1      -2.525  -2.393  25.947  0.00  0.00    -0.150 OA
ATOM      6  O   UNL     1      -2.198  -3.749  23.834  0.00  0.00    -0.150 OA
BRANCH   1  27
ATOM     27  C   UNL     1      -1.047  -1.455  24.088  0.00  0.00    +0.109 A 
ATOM     31  C   UNL     1      -0.702  -0.448  24.954  0.00  0.00    +0.030 A 
ATOM     32  C   UNL     1      -0.373  -1.712  22.922  0.00  0.00    +0.030 A 
ATOM     33  C   UNL     1       0.392   0.355  24.632  0.00  0.00    +0.025 A 
ATOM     34  C   UNL     1       0.721  -0.910  22.600  0.00  0.00    +0.025 A 
ATOM     35  C   UNL     1       1.104   0.124  23.455  0.00  0.00    +0.033 A 
BRANCH  35  11
ATOM      7  O   UNL     1       4.011  -0.581  23.109  0.00  0.00    -0.276 OA
ATOM     11  N   UNL     1       2.199   0.927  23.133  0.00  0.00    -0.286 N 
ATOM     36  C   UNL     1       3.538   0.544  22.986  0.00  0.00    +0.214 C 
ATOM     37  C   UNL     1       4.419   1.717  22.632  0.00  0.00    +0.109 C 
ATOM     39  H   UNL     1       1.987   1.912  22.991  0.00  0.00    +0.155 HD
ENDBRANCH  35  11
ENDBRANCH   1  27
ENDBRANCH  10   1
ENDBRANCH  22  10
TORSDOF 5
ENDMDL
MODEL 2
REMARK VINA RESULT:      13.2      2.404      4.650
REMARK  Name = 11879867
REMARK  6 active torsions:
REMARK  status: ('A' for Active; 'I' for Inactive)
REMARK    1  A    between atoms: S_1  and  N_10
REMARK    2  A    between atoms: S_1  and  C_27
REMARK    3  A    between atoms: N_10  and  C_22
REMARK    4  A    between atoms: N_11  and  C_35
REMARK    5  A    between atoms: C_21  and  C_24
REMARK    6  A    between atoms: C_36  and  C_37
REMARK                            x       y       z     vdW  Elec       q    Type
REMARK                         _______ _______ _______ _____ _____    ______ ____
ROOT
ATOM      3  O   UNL     1      -4.062   3.084  22.470  0.00  0.00    -0.266 OA
ATOM      4  O   UNL     1      -0.511   0.864  26.135  0.00  0.00    -0.270 OA
ATOM      8  N   UNL     1       0.078   2.955  25.266  0.00  0.00    -0.297 N 
ATOM      9  N   UNL     1      -2.687   4.011  24.124  0.00  0.00    -0.310 N 
ATOM     12  C   UNL     1      -0.301   4.822  23.664  0.00  0.00    +0.027 C 
ATOM     13  C   UNL     1      -1.222   4.959  25.944  0.00  0.00    +0.054 C 
ATOM     14  C   UNL     1      -0.548   5.766  24.835  0.00  0.00    +0.018 C 
ATOM     15  C   UNL     1       0.606   3.655  24.096  0.00  0.00    +0.113 C 
ATOM     16  C   UNL     1      -1.654   4.334  23.130  0.00  0.00    +0.130 C 
ATOM     17  C   UNL     1      -0.284   3.823  26.398  0.00  0.00    +0.117 C 
ATOM     18  C   UNL     1      -2.541   4.375  25.470  0.00  0.00    +0.027 A 
ATOM     19  C   UNL     1      -3.543   4.174  26.344  0.00  0.00    +0.024 A 
ATOM     20  C   UNL     1      -3.868   3.412  23.640  0.00  0.00    +0.274 A 
ATOM     21  C   UNL     1      -0.064   1.566  25.230  0.00  0.00    +0.247 C 
ATOM     22  C   UNL     1      -4.928   3.192  24.655  0.00  0.00    +0.112 A 
ATOM     23  C   UNL     1      -4.777   3.563  25.928  0.00  0.00    +0.031 A 
ENDROOT
BRANCH  21  24
ATOM      2  F   UNL     1       1.593  -1.113  20.611  0.00  0.00    -0.205 F 
ATOM     24  C   UNL     1       0.371   0.862  24.019  0.00  0.00    +0.037 A 
ATOM     25  C   UNL     1      -0.577   0.347  23.139  0.00  0.00    +0.016 A 
ATOM     26  C   UNL     1       1.730   0.714  23.753  0.00  0.00    +0.016 A 
ATOM     28  C   UNL     1      -0.164  -0.321  21.986  0.00  0.00    +0.039 A 
ATOM     29  C   UNL     1       2.144   0.046  22.601  0.00  0.00    +0.039 A 
ATOM     30  C   UNL     1       1.196  -0.472  21.718  0.00  0.00    +0.123 A 
ENDBRANCH  21  24
BRANCH  22  10
ATOM     10  N   UNL     1      -6.143   2.588  24.291  0.00  0.00    -0.211 N 
ATOM     38  H   UNL     1      -6.321   2.583  23.278  0.00  0.00    +0.174 HD
BRANCH  10   1
ATOM      1  S   UNL     1      -6.508   1.126  25.089  0.00  0.00    +0.072 S 
ATOM      5  O   UNL     1      -6.658   1.364  26.512  0.00  0.00    -0.150 OA
ATOM      6  O   UNL     1      -7.514   0.411  24.328  0.00  0.00    -0.150 OA
BRANCH   1  27
ATOM     27  C   UNL     1      -5.041   0.098  24.993  0.00  0.00    +0.109 A 
ATOM     31  C   UNL     1      -4.282  -0.058  26.125  0.00  0.00    +0.030 A 
ATOM     32  C   UNL     1      -4.738  -0.490  23.792  0.00  0.00    +0.030 A 
ATOM     33  C   UNL     1      -3.141  -0.858  26.050  0.00  0.00    +0.025 A 
ATOM     34  C   UNL     1      -3.598  -1.290  23.717  0.00  0.00    +0.025 A 
ATOM     35  C   UNL     1      -2.800  -1.473  24.846  0.00  0.00    +0.033 A 
BRANCH  35  11
ATOM      7  O   UNL     1      -0.320  -1.509  26.555  0.00  0.00    -0.276 OA
ATOM     11  N   UNL     1      -1.659  -2.274  24.771  0.00  0.00    -0.286 N 
ATOM     36  C   UNL     1      -0.528  -2.247  25.597  0.00  0.00    +0.214 C 
ATOM     37  C   UNL     1       0.492  -3.280  25.183  0.00  0.00    +0.109 C 
ATOM     39  H   UNL     1      -1.659  -2.960  24.020  0.00  0.00    +0.155 HD
ENDBRANCH  35  11
ENDBRANCH   1  27
ENDBRANCH  10   1
ENDBRANCH  22  10
TORSDOF 5
ENDMDL
MODEL 3
REMARK VINA RESULT:      14.9      2.999      7.355
REMARK  Name = 11879867
REMARK  6 active torsions:
REMARK  status: ('A' for Active; 'I' for Inactive)
REMARK    1  A    between atoms: S_1  and  N_10
REMARK    2  A    between atoms: S_1  and  C_27
REMARK    3  A    between atoms: N_10  and  C_22
REMARK    4  A    between atoms: N_11  and  C_35
REMARK    5  A    between atoms: C_21  and  C_24
REMARK    6  A    between atoms: C_36  and  C_37
REMARK                            x       y       z     vdW  Elec       q    Type
REMARK                         _______ _______ _______ _____ _____    ______ ____
ROOT
ATOM      3  O   UNL     1       0.348   3.506  25.147  0.00  0.00    -0.266 OA
ATOM      4  O   UNL     1       1.227  -0.356  21.237  0.00  0.00    -0.270 OA
ATOM      8  N   UNL     1       0.410  -1.132  23.288  0.00  0.00    -0.297 N 
ATOM      9  N   UNL     1      -0.754   1.515  24.593  0.00  0.00    -0.310 N 
ATOM     12  C   UNL     1      -0.190  -0.739  25.671  0.00  0.00    +0.027 C 
ATOM     13  C   UNL     1      -1.930  -0.615  23.934  0.00  0.00    +0.054 C 
ATOM     14  C   UNL     1      -1.639  -1.092  25.356  0.00  0.00    +0.018 C 
ATOM     15  C   UNL     1       0.760  -1.430  24.676  0.00  0.00    +0.113 C 
ATOM     16  C   UNL     1      -0.038   0.787  25.650  0.00  0.00    +0.130 C 
ATOM     17  C   UNL     1      -1.004  -1.348  22.943  0.00  0.00    +0.117 C 
ATOM     18  C   UNL     1      -1.729   0.884  23.808  0.00  0.00    +0.027 A 
ATOM     19  C   UNL     1      -2.455   1.592  22.924  0.00  0.00    +0.024 A 
ATOM     20  C   UNL     1      -0.483   2.894  24.478  0.00  0.00    +0.274 A 
ATOM     21  C   UNL     1       1.395  -0.660  22.416  0.00  0.00    +0.247 C 
ATOM     22  C   UNL     1      -1.298   3.616  23.468  0.00  0.00    +0.112 A 
ATOM     23  C   UNL     1      -2.235   3.002  22.744  0.00  0.00    +0.031 A 
ENDROOT
BRANCH  21  24
ATOM      2  F   UNL     1       6.606  -0.153  24.378  0.00  0.00    -0.205 F 
ATOM     24  C   UNL     1       2.761  -0.526  22.932  0.00  0.00    +0.037 A 
ATOM     25  C   UNL     1       3.381  -1.615  23.541  0.00  0.00    +0.016 A 
ATOM     26  C   UNL     1       3.434   0.687  22.809  0.00  0.00    +0.016 A 
ATOM     28  C   UNL     1       4.682  -1.489  24.030  0.00  0.00    +0.039 A 
ATOM     29  C   UNL     1       4.733   0.813  23.298  0.00  0.00    +0.039 A 
ATOM     30  C   UNL     1       5.357  -0.275  23.909  0.00  0.00    +0.123 A 
ENDBRANCH  21  24
BRANCH  22  10
ATOM     10  N   UNL     1      -1.104   4.991  23.255  0.00  0.00    -0.211 N 
ATOM     38  H   UNL     1      -1.053   5.257  22.263  0.00  0.00    +0.174 HD
BRANCH  10   1
ATOM      1  S   UNL     1      -2.047   6.028  24.227  0.00  0.00    +0.072 S 
ATOM      5  O   UNL     1      -1.247   6.540  25.323  0.00  0.00    -0.150 OA
ATOM      6  O   UNL     1      -2.815   6.909  23.369  0.00  0.00    -0.150 OA
BRANCH   1  27
ATOM     27  C   UNL     1      -3.270   5.005  25.048  0.00  0.00    +0.109 A 
ATOM     31  C   UNL     1      -4.495   4.849  24.451  0.00  0.00    +0.030 A 
ATOM     32  C   UNL     1      -2.931   4.420  26.242  0.00  0.00    +0.030 A 
ATOM     33  C   UNL     1      -5.446   4.054  25.090  0.00  0.00    +0.025 A 
ATOM     34  C   UNL     1      -3.882   3.624  26.880  0.00  0.00    +0.025 A 
ATOM     35  C   UNL     1      -5.139   3.441  26.304  0.00  0.00    +0.033 A 
BRANCH  35  11
ATOM      7  O   UNL     1      -5.721   0.498  26.040  0.00  0.00    -0.276 OA
ATOM     11  N   UNL     1      -6.090   2.644  26.943  0.00  0.00    -0.286 N 
ATOM     36  C   UNL     1      -6.319   1.272  26.780  0.00  0.00    +0.214 C 
ATOM     37  C   UNL     1      -7.445   0.785  27.659  0.00  0.00    +0.109 C 
ATOM     39  H   UNL     1      -6.687   3.131  27.608  0.00  0.00    +0.155 HD
ENDBRANCH  35  11
ENDBRANCH   1  27
ENDBRANCH  10   1
ENDBRANCH  22  10
TORSDOF 5
ENDMDL
