MODEL 1
REMARK VINA RESULT:      -3.3      0.000      0.000
REMARK  Name = 75536989
REMARK  5 active torsions:
REMARK  status: ('A' for Active; 'I' for Inactive)
REMARK    1  A    between atoms: O_4  and  C_17
REMARK    2  A    between atoms: O_4  and  C_23
REMARK    3  A    between atoms: N_6  and  C_14
REMARK    4  A    between atoms: C_14  and  C_16
REMARK    5  A    between atoms: C_15  and  C_17
REMARK                            x       y       z     vdW  Elec       q    Type
REMARK                         _______ _______ _______ _____ _____    ______ ____
ROOT
ATOM      2  O   UNL     1      -0.570  -2.162  24.092  0.00  0.00    -0.252 OA
ATOM      3  O   UNL     1      -4.942   2.821  26.214  0.00  0.00    -0.273 OA
ATOM      5  N   UNL     1      -1.433  -0.010  24.477  0.00  0.00    -0.278 N 
ATOM      6  N   UNL     1       0.326  -0.222  23.094  0.00  0.00    -0.279 N 
ATOM      7  N   UNL     1      -3.371   1.969  24.730  0.00  0.00    -0.296 N 
ATOM      8  C   UNL     1      -1.067   1.354  24.140  0.00  0.00    +0.112 C 
ATOM      9  C   UNL     1      -0.020   1.189  23.042  0.00  0.00    +0.133 C 
ATOM     10  C   UNL     1      -2.303   2.150  23.729  0.00  0.00    +0.132 C 
ATOM     11  C   UNL     1      -2.532  -0.257  25.394  0.00  0.00    +0.128 C 
ATOM     12  C   UNL     1      -3.748   0.570  24.981  0.00  0.00    +0.127 C 
ATOM     13  C   UNL     1      -0.558  -0.951  23.913  0.00  0.00    +0.306 C 
ATOM     15  C   UNL     1      -4.033   2.997  25.398  0.00  0.00    +0.241 C 
ENDROOT
BRANCH   6  14
ATOM     14  C   UNL     1       1.376  -0.784  22.273  0.00  0.00    +0.144 C 
BRANCH  14  16
ATOM      1  F   UNL     1       6.496   0.480  24.245  0.00  0.00    -0.205 F 
ATOM     16  C   UNL     1       2.741  -0.446  22.799  0.00  0.00    -0.030 A 
ATOM     18  C   UNL     1       3.292   0.811  22.553  0.00  0.00    +0.008 A 
ATOM     19  C   UNL     1       3.458  -1.390  23.535  0.00  0.00    +0.008 A 
ATOM     20  C   UNL     1       4.561   1.124  23.041  0.00  0.00    +0.038 A 
ATOM     21  C   UNL     1       4.727  -1.077  24.022  0.00  0.00    +0.038 A 
ATOM     22  C   UNL     1       5.279   0.180  23.776  0.00  0.00    +0.123 A 
ENDBRANCH  14  16
ENDBRANCH   6  14
BRANCH  15  17
ATOM     17  C   UNL     1      -3.585   4.403  25.085  0.00  0.00    +0.255 C 
BRANCH  17   4
ATOM      4  O   UNL     1      -2.450   4.650  25.880  0.00  0.00    -0.374 OA
ATOM     23  C   UNL     1      -1.380   5.214  25.125  0.00  0.00    +0.194 C 
ENDBRANCH  17   4
ENDBRANCH  15  17
TORSDOF 4
ENDMDL
MODEL 2
REMARK VINA RESULT:      -0.8      0.826      1.525
REMARK  Name = 75536989
REMARK  5 active torsions:
REMARK  status: ('A' for Active; 'I' for Inactive)
REMARK    1  A    between atoms: O_4  and  C_17
REMARK    2  A    between atoms: O_4  and  C_23
REMARK    3  A    between atoms: N_6  and  C_14
REMARK    4  A    between atoms: C_14  and  C_16
REMARK    5  A    between atoms: C_15  and  C_17
REMARK                            x       y       z     vdW  Elec       q    Type
REMARK                         _______ _______ _______ _____ _____    ______ ____
ROOT
ATOM      2  O   UNL     1      -0.487  -2.223  23.844  0.00  0.00    -0.252 OA
ATOM      3  O   UNL     1      -5.031   2.317  26.524  0.00  0.00    -0.273 OA
ATOM      5  N   UNL     1      -1.437  -0.162  24.455  0.00  0.00    -0.278 N 
ATOM      6  N   UNL     1       0.298  -0.155  23.027  0.00  0.00    -0.279 N 
ATOM      7  N   UNL     1      -3.457   1.689  24.936  0.00  0.00    -0.296 N 
ATOM      8  C   UNL     1      -1.141   1.243  24.248  0.00  0.00    +0.112 C 
ATOM      9  C   UNL     1      -0.111   1.236  23.121  0.00  0.00    +0.133 C 
ATOM     10  C   UNL     1      -2.420   2.018  23.940  0.00  0.00    +0.132 C 
ATOM     11  C   UNL     1      -2.503  -0.549  25.362  0.00  0.00    +0.128 C 
ATOM     12  C   UNL     1      -3.764   0.256  25.054  0.00  0.00    +0.127 C 
ATOM     13  C   UNL     1      -0.534  -1.001  23.786  0.00  0.00    +0.306 C 
ATOM     15  C   UNL     1      -4.149   2.615  25.714  0.00  0.00    +0.241 C 
ENDROOT
BRANCH   6  14
ATOM     14  C   UNL     1       1.355  -0.584  22.137  0.00  0.00    +0.144 C 
BRANCH  14  16
ATOM      1  F   UNL     1       6.458   0.248  24.365  0.00  0.00    -0.205 F 
ATOM     16  C   UNL     1       2.716  -0.362  22.731  0.00  0.00    -0.030 A 
ATOM     18  C   UNL     1       3.334  -1.381  23.455  0.00  0.00    +0.008 A 
ATOM     19  C   UNL     1       3.361   0.862  22.558  0.00  0.00    +0.008 A 
ATOM     20  C   UNL     1       4.598  -1.175  24.008  0.00  0.00    +0.038 A 
ATOM     21  C   UNL     1       4.625   1.068  23.111  0.00  0.00    +0.038 A 
ATOM     22  C   UNL     1       5.244   0.050  23.835  0.00  0.00    +0.123 A 
ENDBRANCH  14  16
ENDBRANCH   6  14
BRANCH  15  17
ATOM     17  C   UNL     1      -3.771   4.064  25.534  0.00  0.00    +0.255 C 
BRANCH  17   4
ATOM      4  O   UNL     1      -4.794   4.655  24.770  0.00  0.00    -0.374 OA
ATOM     23  C   UNL     1      -6.006   4.788  25.510  0.00  0.00    +0.194 C 
ENDBRANCH  17   4
ENDBRANCH  15  17
TORSDOF 4
ENDMDL
MODEL 3
REMARK VINA RESULT:      -0.3      1.606      2.697
REMARK  Name = 75536989
REMARK  5 active torsions:
REMARK  status: ('A' for Active; 'I' for Inactive)
REMARK    1  A    between atoms: O_4  and  C_17
REMARK    2  A    between atoms: O_4  and  C_23
REMARK    3  A    between atoms: N_6  and  C_14
REMARK    4  A    between atoms: C_14  and  C_16
REMARK    5  A    between atoms: C_15  and  C_17
REMARK                            x       y       z     vdW  Elec       q    Type
REMARK                         _______ _______ _______ _____ _____    ______ ____
ROOT
ATOM      2  O   UNL     1       1.984   1.846  24.118  0.00  0.00    -0.252 OA
ATOM      3  O   UNL     1      -3.907   4.798  26.360  0.00  0.00    -0.273 OA
ATOM      5  N   UNL     1      -0.311   2.317  24.295  0.00  0.00    -0.278 N 
ATOM      6  N   UNL     1       0.317   0.503  23.127  0.00  0.00    -0.279 N 
ATOM      7  N   UNL     1      -2.704   2.985  25.547  0.00  0.00    -0.296 N 
ATOM      8  C   UNL     1      -1.546   1.798  23.735  0.00  0.00    +0.112 C 
ATOM      9  C   UNL     1      -1.135   0.458  23.130  0.00  0.00    +0.133 C 
ATOM     10  C   UNL     1      -2.623   1.708  24.812  0.00  0.00    +0.132 C 
ATOM     11  C   UNL     1      -0.336   3.527  25.098  0.00  0.00    +0.128 C 
ATOM     12  C   UNL     1      -1.439   3.428  26.151  0.00  0.00    +0.127 C 
ATOM     13  C   UNL     1       0.811   1.590  23.874  0.00  0.00    +0.306 C 
ATOM     15  C   UNL     1      -3.860   3.745  25.719  0.00  0.00    +0.241 C 
ENDROOT
BRANCH   6  14
ATOM     14  C   UNL     1       1.115  -0.546  22.531  0.00  0.00    +0.144 C 
BRANCH  14  16
ATOM      1  F   UNL     1       6.598   0.088  23.639  0.00  0.00    -0.205 F 
ATOM     16  C   UNL     1       2.577  -0.377  22.827  0.00  0.00    -0.030 A 
ATOM     18  C   UNL     1       3.233  -1.294  23.647  0.00  0.00    +0.008 A 
ATOM     19  C   UNL     1       3.280   0.697  22.279  0.00  0.00    +0.008 A 
ATOM     20  C   UNL     1       4.591  -1.137  23.922  0.00  0.00    +0.038 A 
ATOM     21  C   UNL     1       4.638   0.854  22.554  0.00  0.00    +0.038 A 
ATOM     22  C   UNL     1       5.295  -0.063  23.376  0.00  0.00    +0.123 A 
ENDBRANCH  14  16
ENDBRANCH   6  14
BRANCH  15  17
ATOM     17  C   UNL     1      -5.114   3.221  25.065  0.00  0.00    +0.255 C 
BRANCH  17   4
ATOM      4  O   UNL     1      -5.852   2.571  26.071  0.00  0.00    -0.374 OA
ATOM     23  C   UNL     1      -6.196   1.236  25.705  0.00  0.00    +0.194 C 
ENDBRANCH  17   4
ENDBRANCH  15  17
TORSDOF 4
ENDMDL
MODEL 4
REMARK VINA RESULT:       0.3      3.595      7.796
REMARK  Name = 75536989
REMARK  5 active torsions:
REMARK  status: ('A' for Active; 'I' for Inactive)
REMARK    1  A    between atoms: O_4  and  C_17
REMARK    2  A    between atoms: O_4  and  C_23
REMARK    3  A    between atoms: N_6  and  C_14
REMARK    4  A    between atoms: C_14  and  C_16
REMARK    5  A    between atoms: C_15  and  C_17
REMARK                            x       y       z     vdW  Elec       q    Type
REMARK                         _______ _______ _______ _____ _____    ______ ____
ROOT
ATOM      2  O   UNL     1      -2.198   2.374  25.397  0.00  0.00    -0.252 OA
ATOM      3  O   UNL     1       4.270   1.111  23.160  0.00  0.00    -0.273 OA
ATOM      5  N   UNL     1      -0.331   1.170  24.635  0.00  0.00    -0.278 N 
ATOM      6  N   UNL     1      -2.323   0.132  24.679  0.00  0.00    -0.279 N 
ATOM      7  N   UNL     1       1.987   0.683  23.176  0.00  0.00    -0.296 N 
ATOM      8  C   UNL     1      -0.038  -0.199  24.251  0.00  0.00    +0.112 C 
ATOM      9  C   UNL     1      -1.417  -0.831  24.077  0.00  0.00    +0.133 C 
ATOM     10  C   UNL     1       0.839  -0.226  23.001  0.00  0.00    +0.132 C 
ATOM     11  C   UNL     1       0.749   2.135  24.744  0.00  0.00    +0.128 C 
ATOM     12  C   UNL     1       1.629   2.072  23.497  0.00  0.00    +0.127 C 
ATOM     13  C   UNL     1      -1.682   1.353  24.962  0.00  0.00    +0.306 C 
ATOM     15  C   UNL     1       3.327   0.326  23.033  0.00  0.00    +0.241 C 
ENDROOT
BRANCH   6  14
ATOM     14  C   UNL     1      -3.739  -0.133  24.819  0.00  0.00    +0.144 C 
BRANCH  14  16
ATOM      1  F   UNL     1      -6.694   4.587  25.651  0.00  0.00    -0.205 F 
ATOM     16  C   UNL     1      -4.527   1.126  25.041  0.00  0.00    -0.030 A 
ATOM     18  C   UNL     1      -4.336   2.225  24.203  0.00  0.00    +0.008 A 
ATOM     19  C   UNL     1      -5.450   1.196  26.084  0.00  0.00    +0.008 A 
ATOM     20  C   UNL     1      -5.068   3.394  24.409  0.00  0.00    +0.038 A 
ATOM     21  C   UNL     1      -6.182   2.365  26.290  0.00  0.00    +0.038 A 
ATOM     22  C   UNL     1      -5.991   3.465  25.453  0.00  0.00    +0.123 A 
ENDBRANCH  14  16
ENDBRANCH   6  14
BRANCH  15  17
ATOM     17  C   UNL     1       3.609  -1.119  22.706  0.00  0.00    +0.255 C 
BRANCH  17   4
ATOM      4  O   UNL     1       4.213  -1.680  23.846  0.00  0.00    -0.374 OA
ATOM     23  C   UNL     1       5.381  -0.963  24.240  0.00  0.00    +0.194 C 
ENDBRANCH  17   4
ENDBRANCH  15  17
TORSDOF 4
ENDMDL
MODEL 5
REMARK VINA RESULT:       0.6      3.698      7.411
REMARK  Name = 75536989
REMARK  5 active torsions:
REMARK  status: ('A' for Active; 'I' for Inactive)
REMARK    1  A    between atoms: O_4  and  C_17
REMARK    2  A    between atoms: O_4  and  C_23
REMARK    3  A    between atoms: N_6  and  C_14
REMARK    4  A    between atoms: C_14  and  C_16
REMARK    5  A    between atoms: C_15  and  C_17
REMARK                            x       y       z     vdW  Elec       q    Type
REMARK                         _______ _______ _______ _____ _____    ______ ____
ROOT
ATOM      2  O   UNL     1      -3.545  -2.532  25.424  0.00  0.00    -0.252 OA
ATOM      3  O   UNL     1       3.116  -1.556  23.656  0.00  0.00    -0.273 OA
ATOM      5  N   UNL     1      -1.665  -1.615  24.353  0.00  0.00    -0.278 N 
ATOM      6  N   UNL     1      -3.618  -0.514  24.206  0.00  0.00    -0.279 N 
ATOM      7  N   UNL     1       0.971  -0.770  24.075  0.00  0.00    -0.296 N 
ATOM      8  C   UNL     1      -1.392  -0.506  23.457  0.00  0.00    +0.112 C 
ATOM      9  C   UNL     1      -2.657   0.346  23.538  0.00  0.00    +0.133 C 
ATOM     10  C   UNL     1      -0.111   0.212  23.873  0.00  0.00    +0.132 C 
ATOM     11  C   UNL     1      -0.615  -2.572  24.658  0.00  0.00    +0.128 C 
ATOM     12  C   UNL     1       0.664  -1.832  25.044  0.00  0.00    +0.127 C 
ATOM     13  C   UNL     1      -3.011  -1.665  24.744  0.00  0.00    +0.306 C 
ATOM     15  C   UNL     1       2.217  -0.736  23.452  0.00  0.00    +0.241 C 
ENDROOT
BRANCH   6  14
ATOM     14  C   UNL     1      -4.998  -0.121  24.391  0.00  0.00    +0.144 C 
BRANCH  14  16
ATOM      1  F   UNL     1      -5.469   5.306  25.816  0.00  0.00    -0.205 F 
ATOM     16  C   UNL     1      -5.124   1.327  24.771  0.00  0.00    -0.030 A 
ATOM     18  C   UNL     1      -6.068   1.719  25.719  0.00  0.00    +0.008 A 
ATOM     19  C   UNL     1      -4.294   2.278  24.177  0.00  0.00    +0.008 A 
ATOM     20  C   UNL     1      -6.186   3.063  26.071  0.00  0.00    +0.038 A 
ATOM     21  C   UNL     1      -4.412   3.623  24.530  0.00  0.00    +0.038 A 
ATOM     22  C   UNL     1      -5.357   4.016  25.477  0.00  0.00    +0.123 A 
ENDBRANCH  14  16
ENDBRANCH   6  14
BRANCH  15  17
ATOM     17  C   UNL     1       2.450   0.385  22.470  0.00  0.00    +0.255 C 
BRANCH  17   4
ATOM      4  O   UNL     1       3.400   1.242  23.054  0.00  0.00    -0.374 OA
ATOM     23  C   UNL     1       4.719   0.706  22.986  0.00  0.00    +0.194 C 
ENDBRANCH  17   4
ENDBRANCH  15  17
TORSDOF 4
ENDMDL
