MODEL 1
REMARK VINA RESULT:      -5.8      0.000      0.000
REMARK  Name = 26742955
REMARK  11 active torsions:
REMARK  status: ('A' for Active; 'I' for Inactive)
REMARK    1  A    between atoms: N_4  and  C_17
REMARK    2  A    between atoms: N_4  and  C_18
REMARK    3  A    between atoms: C_6  and  C_12
REMARK    4  A    between atoms: C_7  and  C_10
REMARK    5  A    between atoms: C_10  and  C_13
REMARK    6  A    between atoms: C_12  and  C_14
REMARK    7  A    between atoms: C_16  and  C_19
REMARK    8  A    between atoms: C_17  and  C_21
REMARK    9  A    between atoms: C_19  and  C_20
REMARK   10  A    between atoms: C_20  and  C_22
REMARK   11  A    between atoms: C_22  and  C_25
REMARK                            x       y       z     vdW  Elec       q    Type
REMARK                         _______ _______ _______ _____ _____    ______ ____
ROOT
ATOM      3  N   UNL     1       0.151   5.016  24.191  0.00  0.00    -0.316 NA
ATOM      6  C   UNL     1      -2.269   4.098  25.609  0.00  0.00    +0.004 C 
ATOM      7  C   UNL     1      -1.032   3.193  25.394  0.00  0.00    +0.012 C 
ATOM      8  C   UNL     1      -1.829   5.571  25.561  0.00  0.00    +0.019 C 
ATOM      9  C   UNL     1      -0.237   3.605  24.143  0.00  0.00    +0.085 C 
ATOM     11  C   UNL     1      -1.011   5.894  24.312  0.00  0.00    +0.081 C 
ATOM     29  H   UNL     1       0.666   5.252  23.344  0.00  0.00    +0.122 HD
ENDROOT
BRANCH   7  10
ATOM     10  C   UNL     1      -1.379   1.705  25.344  0.00  0.00    +0.064 C 
BRANCH  10  13
ATOM      2  O   UNL     1       0.473  -0.737  23.455  0.00  0.00    -0.359 OA
ATOM      5  N   UNL     1      -0.618  -0.343  24.221  0.00  0.00    -0.083 NA
ATOM     13  C   UNL     1      -0.389   0.940  24.515  0.00  0.00    +0.084 A 
ATOM     15  C   UNL     1       0.819   1.406  23.966  0.00  0.00    +0.071 A 
ATOM     16  C   UNL     1       1.321   0.314  23.309  0.00  0.00    +0.138 A 
BRANCH  16  19
ATOM     19  C   UNL     1       2.535   0.071  22.521  0.00  0.00    +0.077 C 
BRANCH  19  20
ATOM     20  C   UNL     1       3.690   1.033  22.878  0.00  0.00    +0.007 C 
BRANCH  20  22
ATOM     22  C   UNL     1       4.975   0.295  23.252  0.00  0.00    -0.003 C 
ATOM     25  C   UNL     1       4.680  -1.072  23.847  0.00  0.00    +0.004 C 
ENDBRANCH  20  22
ENDBRANCH  19  20
ENDBRANCH  16  19
ENDBRANCH  10  13
ENDBRANCH   7  10
BRANCH   6  12
ATOM     12  C   UNL     1      -3.411   3.838  24.619  0.00  0.00    +0.100 C 
BRANCH  12  14
ATOM      1  O   UNL     1      -5.013   2.862  26.110  0.00  0.00    -0.276 OA
ATOM      4  N   UNL     1      -4.372   1.582  24.286  0.00  0.00    -0.300 N 
ATOM     14  C   UNL     1      -4.340   2.730  25.085  0.00  0.00    +0.216 C 
ATOM     18  C   UNL     1      -3.566   1.448  23.078  0.00  0.00    +0.132 C 
BRANCH   4  17
ATOM     17  C   UNL     1      -5.214   0.430  24.602  0.00  0.00    +0.142 C 
BRANCH  17  21
ATOM     21  C   UNL     1      -4.410  -0.828  24.754  0.00  0.00    -0.030 A 
ATOM     23  C   UNL     1      -3.651  -1.036  25.905  0.00  0.00    +0.005 A 
ATOM     24  C   UNL     1      -4.423  -1.790  23.743  0.00  0.00    +0.005 A 
ATOM     26  C   UNL     1      -2.903  -2.204  26.046  0.00  0.00    +0.000 A 
ATOM     27  C   UNL     1      -3.675  -2.959  23.885  0.00  0.00    +0.000 A 
ATOM     28  C   UNL     1      -2.915  -3.167  25.036  0.00  0.00    +0.000 A 
ENDBRANCH  17  21
ENDBRANCH   4  17
ENDBRANCH  12  14
ENDBRANCH   6  12
TORSDOF 9
ENDMDL
MODEL 2
REMARK VINA RESULT:      -5.5      1.520      4.958
REMARK  Name = 26742955
REMARK  11 active torsions:
REMARK  status: ('A' for Active; 'I' for Inactive)
REMARK    1  A    between atoms: N_4  and  C_17
REMARK    2  A    between atoms: N_4  and  C_18
REMARK    3  A    between atoms: C_6  and  C_12
REMARK    4  A    between atoms: C_7  and  C_10
REMARK    5  A    between atoms: C_10  and  C_13
REMARK    6  A    between atoms: C_12  and  C_14
REMARK    7  A    between atoms: C_16  and  C_19
REMARK    8  A    between atoms: C_17  and  C_21
REMARK    9  A    between atoms: C_19  and  C_20
REMARK   10  A    between atoms: C_20  and  C_22
REMARK   11  A    between atoms: C_22  and  C_25
REMARK                            x       y       z     vdW  Elec       q    Type
REMARK                         _______ _______ _______ _____ _____    ______ ____
ROOT
ATOM      3  N   UNL     1      -2.568  -3.135  25.175  0.00  0.00    -0.316 NA
ATOM      6  C   UNL     1      -3.655  -0.833  23.683  0.00  0.00    +0.004 C 
ATOM      7  C   UNL     1      -2.208  -0.866  24.232  0.00  0.00    +0.012 C 
ATOM      8  C   UNL     1      -4.150  -2.275  23.483  0.00  0.00    +0.019 C 
ATOM      9  C   UNL     1      -2.087  -1.782  25.461  0.00  0.00    +0.085 C 
ATOM     11  C   UNL     1      -3.961  -3.134  24.732  0.00  0.00    +0.081 C 
ATOM     29  H   UNL     1      -2.481  -3.708  26.013  0.00  0.00    +0.122 HD
ENDROOT
BRANCH   7  10
ATOM     10  C   UNL     1      -1.652   0.524  24.542  0.00  0.00    +0.064 C 
BRANCH  10  13
ATOM      2  O   UNL     1       1.679   1.603  23.706  0.00  0.00    -0.359 OA
ATOM      5  N   UNL     1       0.441   1.790  24.309  0.00  0.00    -0.083 NA
ATOM     13  C   UNL     1      -0.246   0.677  24.037  0.00  0.00    +0.084 A 
ATOM     15  C   UNL     1       0.500  -0.239  23.273  0.00  0.00    +0.071 A 
ATOM     16  C   UNL     1       1.703   0.392  23.093  0.00  0.00    +0.138 A 
BRANCH  16  19
ATOM     19  C   UNL     1       2.945   0.030  22.402  0.00  0.00    +0.077 C 
BRANCH  19  20
ATOM     20  C   UNL     1       4.120   0.978  22.735  0.00  0.00    +0.007 C 
BRANCH  20  22
ATOM     22  C   UNL     1       5.249   0.274  23.486  0.00  0.00    -0.003 C 
ATOM     25  C   UNL     1       4.846  -1.128  23.913  0.00  0.00    +0.004 C 
ENDBRANCH  20  22
ENDBRANCH  19  20
ENDBRANCH  16  19
ENDBRANCH  10  13
ENDBRANCH   7  10
BRANCH   6  12
ATOM     12  C   UNL     1      -4.633  -0.036  24.554  0.00  0.00    +0.100 C 
BRANCH  12  14
ATOM      1  O   UNL     1      -3.774   1.930  23.487  0.00  0.00    -0.276 OA
ATOM      4  N   UNL     1      -5.075   2.254  25.379  0.00  0.00    -0.300 N 
ATOM     14  C   UNL     1      -4.446   1.465  24.411  0.00  0.00    +0.216 C 
ATOM     18  C   UNL     1      -5.864   1.682  26.463  0.00  0.00    +0.132 C 
BRANCH   4  17
ATOM     17  C   UNL     1      -4.989   3.713  25.377  0.00  0.00    +0.142 C 
BRANCH  17  21
ATOM     21  C   UNL     1      -3.569   4.191  25.277  0.00  0.00    -0.030 A 
ATOM     23  C   UNL     1      -2.581   3.616  26.075  0.00  0.00    +0.005 A 
ATOM     24  C   UNL     1      -3.239   5.212  24.385  0.00  0.00    +0.005 A 
ATOM     26  C   UNL     1      -1.263   4.061  25.982  0.00  0.00    +0.000 A 
ATOM     27  C   UNL     1      -1.920   5.656  24.292  0.00  0.00    +0.000 A 
ATOM     28  C   UNL     1      -0.931   5.081  25.090  0.00  0.00    +0.000 A 
ENDBRANCH  17  21
ENDBRANCH   4  17
ENDBRANCH  12  14
ENDBRANCH   6  12
TORSDOF 9
ENDMDL
MODEL 3
REMARK VINA RESULT:      -4.1      1.586      6.924
REMARK  Name = 26742955
REMARK  11 active torsions:
REMARK  status: ('A' for Active; 'I' for Inactive)
REMARK    1  A    between atoms: N_4  and  C_17
REMARK    2  A    between atoms: N_4  and  C_18
REMARK    3  A    between atoms: C_6  and  C_12
REMARK    4  A    between atoms: C_7  and  C_10
REMARK    5  A    between atoms: C_10  and  C_13
REMARK    6  A    between atoms: C_12  and  C_14
REMARK    7  A    between atoms: C_16  and  C_19
REMARK    8  A    between atoms: C_17  and  C_21
REMARK    9  A    between atoms: C_19  and  C_20
REMARK   10  A    between atoms: C_20  and  C_22
REMARK   11  A    between atoms: C_22  and  C_25
REMARK                            x       y       z     vdW  Elec       q    Type
REMARK                         _______ _______ _______ _____ _____    ______ ____
ROOT
ATOM      3  N   UNL     1      -3.302  -3.132  24.949  0.00  0.00    -0.316 NA
ATOM      6  C   UNL     1      -1.958  -0.506  24.872  0.00  0.00    +0.004 C 
ATOM      7  C   UNL     1      -3.489  -0.667  24.709  0.00  0.00    +0.012 C 
ATOM      8  C   UNL     1      -1.406  -1.712  25.651  0.00  0.00    +0.019 C 
ATOM      9  C   UNL     1      -3.857  -2.047  24.138  0.00  0.00    +0.085 C 
ATOM     11  C   UNL     1      -1.846  -3.045  25.049  0.00  0.00    +0.081 C 
ATOM     29  H   UNL     1      -3.559  -4.028  24.535  0.00  0.00    +0.122 HD
ENDROOT
BRANCH   7  10
ATOM     10  C   UNL     1      -4.123   0.446  23.875  0.00  0.00    +0.064 C 
BRANCH  10  13
ATOM      2  O   UNL     1      -4.820   3.439  25.750  0.00  0.00    -0.359 OA
ATOM      5  N   UNL     1      -5.197   2.229  25.180  0.00  0.00    -0.083 NA
ATOM     13  C   UNL     1      -4.089   1.760  24.599  0.00  0.00    +0.084 A 
ATOM     15  C   UNL     1      -2.991   2.623  24.769  0.00  0.00    +0.071 A 
ATOM     16  C   UNL     1      -3.504   3.662  25.499  0.00  0.00    +0.138 A 
BRANCH  16  19
ATOM     19  C   UNL     1      -2.937   4.905  26.034  0.00  0.00    +0.077 C 
BRANCH  19  20
ATOM     20  C   UNL     1      -1.986   5.612  25.043  0.00  0.00    +0.007 C 
BRANCH  20  22
ATOM     22  C   UNL     1      -0.600   4.968  24.997  0.00  0.00    -0.003 C 
ATOM     25  C   UNL     1      -0.217   4.571  23.581  0.00  0.00    +0.004 C 
ENDBRANCH  20  22
ENDBRANCH  19  20
ENDBRANCH  16  19
ENDBRANCH  10  13
ENDBRANCH   7  10
BRANCH   6  12
ATOM     12  C   UNL     1      -1.206  -0.320  23.549  0.00  0.00    +0.100 C 
BRANCH  12  14
ATOM      1  O   UNL     1       0.099   1.381  24.618  0.00  0.00    -0.276 OA
ATOM      4  N   UNL     1       1.024   0.382  22.741  0.00  0.00    -0.300 N 
ATOM     14  C   UNL     1       0.020   0.563  23.698  0.00  0.00    +0.216 C 
ATOM     18  C   UNL     1       0.909  -0.592  21.662  0.00  0.00    +0.132 C 
BRANCH   4  17
ATOM     17  C   UNL     1       2.264   1.156  22.749  0.00  0.00    +0.142 C 
BRANCH  17  21
ATOM     21  C   UNL     1       3.446   0.318  23.141  0.00  0.00    -0.030 A 
ATOM     23  C   UNL     1       3.265  -1.015  23.508  0.00  0.00    +0.005 A 
ATOM     24  C   UNL     1       4.725   0.874  23.139  0.00  0.00    +0.005 A 
ATOM     26  C   UNL     1       4.363  -1.793  23.873  0.00  0.00    +0.000 A 
ATOM     27  C   UNL     1       5.824   0.095  23.504  0.00  0.00    +0.000 A 
ATOM     28  C   UNL     1       5.643  -1.239  23.871  0.00  0.00    +0.000 A 
ENDBRANCH  17  21
ENDBRANCH   4  17
ENDBRANCH  12  14
ENDBRANCH   6  12
TORSDOF 9
ENDMDL
MODEL 4
REMARK VINA RESULT:      -3.5      1.492      4.743
REMARK  Name = 26742955
REMARK  11 active torsions:
REMARK  status: ('A' for Active; 'I' for Inactive)
REMARK    1  A    between atoms: N_4  and  C_17
REMARK    2  A    between atoms: N_4  and  C_18
REMARK    3  A    between atoms: C_6  and  C_12
REMARK    4  A    between atoms: C_7  and  C_10
REMARK    5  A    between atoms: C_10  and  C_13
REMARK    6  A    between atoms: C_12  and  C_14
REMARK    7  A    between atoms: C_16  and  C_19
REMARK    8  A    between atoms: C_17  and  C_21
REMARK    9  A    between atoms: C_19  and  C_20
REMARK   10  A    between atoms: C_20  and  C_22
REMARK   11  A    between atoms: C_22  and  C_25
REMARK                            x       y       z     vdW  Elec       q    Type
REMARK                         _______ _______ _______ _____ _____    ______ ____
ROOT
ATOM      3  N   UNL     1      -1.439  -0.878  26.714  0.00  0.00    -0.316 NA
ATOM      6  C   UNL     1      -2.504  -1.935  24.173  0.00  0.00    +0.004 C 
ATOM      7  C   UNL     1      -1.171  -1.153  24.260  0.00  0.00    +0.012 C 
ATOM      8  C   UNL     1      -2.805  -2.570  25.541  0.00  0.00    +0.019 C 
ATOM      9  C   UNL     1      -1.157  -0.185  25.455  0.00  0.00    +0.085 C 
ATOM     11  C   UNL     1      -2.733  -1.557  26.682  0.00  0.00    +0.081 C 
ATOM     29  H   UNL     1      -1.431  -0.204  27.479  0.00  0.00    +0.122 HD
ENDROOT
BRANCH   7  10
ATOM     10  C   UNL     1      -0.823  -0.415  22.967  0.00  0.00    +0.064 C 
BRANCH  10  13
ATOM      2  O   UNL     1       2.210   1.429  23.566  0.00  0.00    -0.359 OA
ATOM      5  N   UNL     1       0.853   1.200  23.755  0.00  0.00    -0.083 NA
ATOM     13  C   UNL     1       0.576   0.128  23.007  0.00  0.00    +0.084 A 
ATOM     15  C   UNL     1       1.709  -0.359  22.331  0.00  0.00    +0.071 A 
ATOM     16  C   UNL     1       2.709   0.494  22.717  0.00  0.00    +0.138 A 
BRANCH  16  19
ATOM     19  C   UNL     1       4.140   0.588  22.407  0.00  0.00    +0.077 C 
BRANCH  19  20
ATOM     20  C   UNL     1       5.027   0.693  23.668  0.00  0.00    +0.007 C 
BRANCH  20  22
ATOM     22  C   UNL     1       5.674  -0.640  24.044  0.00  0.00    -0.003 C 
ATOM     25  C   UNL     1       4.684  -1.789  23.942  0.00  0.00    +0.004 C 
ENDBRANCH  20  22
ENDBRANCH  19  20
ENDBRANCH  16  19
ENDBRANCH  10  13
ENDBRANCH   7  10
BRANCH   6  12
ATOM     12  C   UNL     1      -3.690  -1.093  23.689  0.00  0.00    +0.100 C 
BRANCH  12  14
ATOM      1  O   UNL     1      -4.489  -0.219  25.773  0.00  0.00    -0.276 OA
ATOM      4  N   UNL     1      -3.804   1.328  24.187  0.00  0.00    -0.300 N 
ATOM     14  C   UNL     1      -4.035   0.030  24.653  0.00  0.00    +0.216 C 
ATOM     18  C   UNL     1      -3.267   1.598  22.859  0.00  0.00    +0.132 C 
BRANCH   4  17
ATOM     17  C   UNL     1      -4.085   2.512  24.995  0.00  0.00    +0.142 C 
BRANCH  17  21
ATOM     21  C   UNL     1      -2.913   3.448  25.047  0.00  0.00    -0.030 A 
ATOM     23  C   UNL     1      -3.085   4.800  24.749  0.00  0.00    +0.005 A 
ATOM     24  C   UNL     1      -1.650   2.965  25.392  0.00  0.00    +0.005 A 
ATOM     26  C   UNL     1      -1.996   5.669  24.795  0.00  0.00    +0.000 A 
ATOM     27  C   UNL     1      -0.560   3.835  25.439  0.00  0.00    +0.000 A 
ATOM     28  C   UNL     1      -0.732   5.187  25.141  0.00  0.00    +0.000 A 
ENDBRANCH  17  21
ENDBRANCH   4  17
ENDBRANCH  12  14
ENDBRANCH   6  12
TORSDOF 9
ENDMDL
