MODEL 1
REMARK VINA RESULT:      -4.2      0.000      0.000
REMARK  Name = 11883287
REMARK  8 active torsions:
REMARK  status: ('A' for Active; 'I' for Inactive)
REMARK    1  A    between atoms: S_1  and  N_9
REMARK    2  A    between atoms: S_1  and  C_19
REMARK    3  A    between atoms: O_4  and  C_15
REMARK    4  A    between atoms: O_4  and  C_18
REMARK    5  A    between atoms: N_9  and  C_14
REMARK    6  A    between atoms: N_11  and  C_25
REMARK    7  A    between atoms: C_18  and  C_20
REMARK    8  A    between atoms: C_26  and  C_27
REMARK                            x       y       z     vdW  Elec       q    Type
REMARK                         _______ _______ _______ _____ _____    ______ ____
ROOT
ATOM      9  N   UNL     1      -4.605  -0.649  24.224  0.00  0.00    -0.182 NA
ATOM     28  H   UNL     1      -5.295  -0.644  23.463  0.00  0.00    +0.148 HD
ENDROOT
BRANCH   9  14
ATOM      2  O   UNL     1      -2.969   1.933  24.885  0.00  0.00    -0.370 OA
ATOM      3  O   UNL     1      -5.875   2.465  25.740  0.00  0.00    -0.370 OA
ATOM     12  C   UNL     1      -5.317   1.648  24.690  0.00  0.00    +0.170 C 
ATOM     13  C   UNL     1      -4.113   2.393  24.147  0.00  0.00    +0.179 C 
ATOM     14  C   UNL     1      -4.731   0.387  25.276  0.00  0.00    +0.133 C 
ATOM     15  C   UNL     1      -4.444   3.831  24.466  0.00  0.00    +0.176 C 
ATOM     16  C   UNL     1      -3.352   0.833  25.724  0.00  0.00    +0.183 C 
ATOM     17  C   UNL     1      -5.156   3.705  25.795  0.00  0.00    +0.194 C 
BRANCH  15   4
ATOM      4  O   UNL     1      -3.311   4.665  24.548  0.00  0.00    -0.362 OA
BRANCH   4  18
ATOM     18  C   UNL     1      -2.525   4.384  25.703  0.00  0.00    +0.255 C 
BRANCH  18  20
ATOM      7  O   UNL     1      -0.492   5.236  24.711  0.00  0.00    -0.274 OA
ATOM     10  N   UNL     1      -0.451   3.173  25.730  0.00  0.00    -0.327 N 
ATOM     20  C   UNL     1      -1.064   4.336  25.319  0.00  0.00    +0.236 C 
ATOM     29  H   UNL     1      -0.949   2.446  26.232  0.00  0.00    +0.145 HD
ATOM     30  H   UNL     1       0.532   3.006  25.540  0.00  0.00    +0.145 HD
ENDBRANCH  18  20
ENDBRANCH   4  18
ENDBRANCH  15   4
ENDBRANCH   9  14
BRANCH   9   1
ATOM      1  S   UNL     1      -3.626  -2.010  24.493  0.00  0.00    +0.059 S 
ATOM      5  O   UNL     1      -3.894  -3.007  23.473  0.00  0.00    -0.153 OA
ATOM      6  O   UNL     1      -3.697  -2.366  25.897  0.00  0.00    -0.153 OA
BRANCH   1  19
ATOM     19  C   UNL     1      -2.008  -1.358  24.207  0.00  0.00    +0.105 A 
ATOM     21  C   UNL     1      -1.851  -0.301  23.327  0.00  0.00    +0.030 A 
ATOM     22  C   UNL     1      -0.929  -1.917  24.869  0.00  0.00    +0.030 A 
ATOM     23  C   UNL     1      -0.574   0.213  23.103  0.00  0.00    +0.025 A 
ATOM     24  C   UNL     1       0.348  -1.402  24.645  0.00  0.00    +0.025 A 
ATOM     25  C   UNL     1       0.525  -0.338  23.761  0.00  0.00    +0.033 A 
BRANCH  25  11
ATOM      8  O   UNL     1       2.190  -0.259  21.253  0.00  0.00    -0.276 OA
ATOM     11  N   UNL     1       1.802   0.178  23.537  0.00  0.00    -0.286 N 
ATOM     26  C   UNL     1       2.535   0.186  22.342  0.00  0.00    +0.214 C 
ATOM     27  C   UNL     1       3.882   0.840  22.517  0.00  0.00    +0.109 C 
ATOM     31  H   UNL     1       2.249   0.597  24.349  0.00  0.00    +0.155 HD
ENDBRANCH  25  11
ENDBRANCH   1  19
ENDBRANCH   9   1
TORSDOF 7
ENDMDL
MODEL 2
REMARK VINA RESULT:      -2.5      2.335      4.679
REMARK  Name = 11883287
REMARK  8 active torsions:
REMARK  status: ('A' for Active; 'I' for Inactive)
REMARK    1  A    between atoms: S_1  and  N_9
REMARK    2  A    between atoms: S_1  and  C_19
REMARK    3  A    between atoms: O_4  and  C_15
REMARK    4  A    between atoms: O_4  and  C_18
REMARK    5  A    between atoms: N_9  and  C_14
REMARK    6  A    between atoms: N_11  and  C_25
REMARK    7  A    between atoms: C_18  and  C_20
REMARK    8  A    between atoms: C_26  and  C_27
REMARK                            x       y       z     vdW  Elec       q    Type
REMARK                         _______ _______ _______ _____ _____    ______ ____
ROOT
ATOM      9  N   UNL     1      -4.317   2.150  25.642  0.00  0.00    -0.182 NA
ATOM     28  H   UNL     1      -4.843   2.025  26.515  0.00  0.00    +0.148 HD
ENDROOT
BRANCH   9  14
ATOM      2  O   UNL     1      -2.492   0.074  24.178  0.00  0.00    -0.370 OA
ATOM      3  O   UNL     1      -5.346  -1.071  24.167  0.00  0.00    -0.370 OA
ATOM     12  C   UNL     1      -4.658  -0.215  25.103  0.00  0.00    +0.170 C 
ATOM     13  C   UNL     1      -3.219  -0.688  25.155  0.00  0.00    +0.179 C 
ATOM     14  C   UNL     1      -4.561   1.183  24.545  0.00  0.00    +0.133 C 
ATOM     15  C   UNL     1      -3.336  -2.141  24.758  0.00  0.00    +0.176 C 
ATOM     16  C   UNL     1      -3.340   1.105  23.649  0.00  0.00    +0.183 C 
ATOM     17  C   UNL     1      -4.447  -2.101  23.732  0.00  0.00    +0.194 C 
BRANCH  15   4
ATOM      4  O   UNL     1      -2.145  -2.677  24.229  0.00  0.00    -0.362 OA
BRANCH   4  18
ATOM     18  C   UNL     1      -1.093  -1.715  24.201  0.00  0.00    +0.255 C 
BRANCH  18  20
ATOM      7  O   UNL     1       0.586  -2.729  25.614  0.00  0.00    -0.274 OA
ATOM     10  N   UNL     1      -0.539  -0.874  26.381  0.00  0.00    -0.327 N 
ATOM     20  C   UNL     1      -0.254  -1.849  25.451  0.00  0.00    +0.236 C 
ATOM     29  H   UNL     1      -1.239  -0.158  26.220  0.00  0.00    +0.145 HD
ATOM     30  H   UNL     1      -0.050  -0.841  27.270  0.00  0.00    +0.145 HD
ENDBRANCH  18  20
ENDBRANCH   4  18
ENDBRANCH  15   4
ENDBRANCH   9  14
BRANCH   9   1
ATOM      1  S   UNL     1      -3.522   3.614  25.315  0.00  0.00    +0.059 S 
ATOM      5  O   UNL     1      -3.414   4.389  26.536  0.00  0.00    -0.153 OA
ATOM      6  O   UNL     1      -4.104   4.205  24.124  0.00  0.00    -0.153 OA
BRANCH   1  19
ATOM     19  C   UNL     1      -1.902   3.060  24.876  0.00  0.00    +0.105 A 
ATOM     21  C   UNL     1      -1.040   2.636  25.872  0.00  0.00    +0.030 A 
ATOM     22  C   UNL     1      -1.527   3.059  23.543  0.00  0.00    +0.030 A 
ATOM     23  C   UNL     1       0.238   2.199  25.525  0.00  0.00    +0.025 A 
ATOM     24  C   UNL     1      -0.249   2.621  23.197  0.00  0.00    +0.025 A 
ATOM     25  C   UNL     1       0.634   2.192  24.188  0.00  0.00    +0.033 A 
BRANCH  25  11
ATOM      8  O   UNL     1       1.508  -0.169  22.536  0.00  0.00    -0.276 OA
ATOM     11  N   UNL     1       1.912   1.752  23.841  0.00  0.00    -0.286 N 
ATOM     26  C   UNL     1       2.263   0.639  23.066  0.00  0.00    +0.214 C 
ATOM     27  C   UNL     1       3.758   0.506  22.923  0.00  0.00    +0.109 C 
ATOM     31  H   UNL     1       2.678   2.318  24.201  0.00  0.00    +0.155 HD
ENDBRANCH  25  11
ENDBRANCH   1  19
ENDBRANCH   9   1
TORSDOF 7
ENDMDL
MODEL 3
REMARK VINA RESULT:      -2.2      2.118      5.551
REMARK  Name = 11883287
REMARK  8 active torsions:
REMARK  status: ('A' for Active; 'I' for Inactive)
REMARK    1  A    between atoms: S_1  and  N_9
REMARK    2  A    between atoms: S_1  and  C_19
REMARK    3  A    between atoms: O_4  and  C_15
REMARK    4  A    between atoms: O_4  and  C_18
REMARK    5  A    between atoms: N_9  and  C_14
REMARK    6  A    between atoms: N_11  and  C_25
REMARK    7  A    between atoms: C_18  and  C_20
REMARK    8  A    between atoms: C_26  and  C_27
REMARK                            x       y       z     vdW  Elec       q    Type
REMARK                         _______ _______ _______ _____ _____    ______ ____
ROOT
ATOM      9  N   UNL     1      -3.245   4.075  26.268  0.00  0.00    -0.182 NA
ATOM     28  H   UNL     1      -3.429   3.814  27.245  0.00  0.00    +0.148 HD
ENDROOT
BRANCH   9  14
ATOM      2  O   UNL     1      -0.776   2.157  26.232  0.00  0.00    -0.370 OA
ATOM      3  O   UNL     1      -0.419   4.128  23.898  0.00  0.00    -0.370 OA
ATOM     12  C   UNL     1      -1.600   3.581  24.523  0.00  0.00    +0.170 C 
ATOM     13  C   UNL     1      -1.280   2.145  24.887  0.00  0.00    +0.179 C 
ATOM     14  C   UNL     1      -1.834   4.251  25.855  0.00  0.00    +0.133 C 
ATOM     15  C   UNL     1      -0.204   1.785  23.889  0.00  0.00    +0.176 C 
ATOM     16  C   UNL     1      -0.925   3.472  26.787  0.00  0.00    +0.183 C 
ATOM     17  C   UNL     1       0.557   3.085  23.760  0.00  0.00    +0.194 C 
BRANCH  15   4
ATOM      4  O   UNL     1       0.623   0.725  24.312  0.00  0.00    -0.362 OA
BRANCH   4  18
ATOM     18  C   UNL     1       0.766  -0.274  23.305  0.00  0.00    +0.255 C 
BRANCH  18  20
ATOM      7  O   UNL     1       2.056  -0.263  21.261  0.00  0.00    -0.274 OA
ATOM     10  N   UNL     1       2.947   0.718  23.142  0.00  0.00    -0.327 N 
ATOM     20  C   UNL     1       1.968   0.045  22.445  0.00  0.00    +0.236 C 
ATOM     29  H   UNL     1       2.848   0.959  24.122  0.00  0.00    +0.145 HD
ATOM     30  H   UNL     1       3.812   0.996  22.689  0.00  0.00    +0.145 HD
ENDBRANCH  18  20
ENDBRANCH   4  18
ENDBRANCH  15   4
ENDBRANCH   9  14
BRANCH   9   1
ATOM      1  S   UNL     1      -4.456   3.911  25.090  0.00  0.00    +0.059 S 
ATOM      5  O   UNL     1      -4.067   4.633  23.893  0.00  0.00    -0.153 OA
ATOM      6  O   UNL     1      -5.745   4.163  25.706  0.00  0.00    -0.153 OA
BRANCH   1  19
ATOM     19  C   UNL     1      -4.385   2.182  24.731  0.00  0.00    +0.105 A 
ATOM     21  C   UNL     1      -3.847   1.763  23.527  0.00  0.00    +0.030 A 
ATOM     22  C   UNL     1      -4.868   1.279  25.662  0.00  0.00    +0.030 A 
ATOM     23  C   UNL     1      -3.790   0.399  23.244  0.00  0.00    +0.025 A 
ATOM     24  C   UNL     1      -4.811  -0.086  25.380  0.00  0.00    +0.025 A 
ATOM     25  C   UNL     1      -4.273  -0.526  24.171  0.00  0.00    +0.033 A 
BRANCH  25  11
ATOM      8  O   UNL     1      -2.111  -2.547  24.728  0.00  0.00    -0.276 OA
ATOM     11  N   UNL     1      -4.215  -1.891  23.889  0.00  0.00    -0.286 N 
ATOM     26  C   UNL     1      -3.177  -2.789  24.170  0.00  0.00    +0.214 C 
ATOM     27  C   UNL     1      -3.502  -4.185  23.701  0.00  0.00    +0.109 C 
ATOM     31  H   UNL     1      -5.033  -2.272  23.419  0.00  0.00    +0.155 HD
ENDBRANCH  25  11
ENDBRANCH   1  19
ENDBRANCH   9   1
TORSDOF 7
ENDMDL
MODEL 4
REMARK VINA RESULT:      -2.2      2.367      5.661
REMARK  Name = 11883287
REMARK  8 active torsions:
REMARK  status: ('A' for Active; 'I' for Inactive)
REMARK    1  A    between atoms: S_1  and  N_9
REMARK    2  A    between atoms: S_1  and  C_19
REMARK    3  A    between atoms: O_4  and  C_15
REMARK    4  A    between atoms: O_4  and  C_18
REMARK    5  A    between atoms: N_9  and  C_14
REMARK    6  A    between atoms: N_11  and  C_25
REMARK    7  A    between atoms: C_18  and  C_20
REMARK    8  A    between atoms: C_26  and  C_27
REMARK                            x       y       z     vdW  Elec       q    Type
REMARK                         _______ _______ _______ _____ _____    ______ ____
ROOT
ATOM      9  N   UNL     1      -3.201   4.143  26.225  0.00  0.00    -0.182 NA
ATOM     28  H   UNL     1      -3.415   3.922  27.205  0.00  0.00    +0.148 HD
ENDROOT
BRANCH   9  14
ATOM      2  O   UNL     1      -0.860   2.069  26.212  0.00  0.00    -0.370 OA
ATOM      3  O   UNL     1      -0.342   4.026  23.897  0.00  0.00    -0.370 OA
ATOM     12  C   UNL     1      -1.565   3.554  24.500  0.00  0.00    +0.170 C 
ATOM     13  C   UNL     1      -1.344   2.098  24.859  0.00  0.00    +0.179 C 
ATOM     14  C   UNL     1      -1.775   4.230  25.833  0.00  0.00    +0.133 C 
ATOM     15  C   UNL     1      -0.279   1.675  23.875  0.00  0.00    +0.176 C 
ATOM     16  C   UNL     1      -0.932   3.388  26.773  0.00  0.00    +0.183 C 
ATOM     17  C   UNL     1       0.567   2.924  23.765  0.00  0.00    +0.194 C 
BRANCH  15   4
ATOM      4  O   UNL     1       0.472   0.561  24.302  0.00  0.00    -0.362 OA
BRANCH   4  18
ATOM     18  C   UNL     1      -0.195  -0.669  24.027  0.00  0.00    +0.255 C 
BRANCH  18  20
ATOM      7  O   UNL     1       0.073  -2.565  25.501  0.00  0.00    -0.274 OA
ATOM     10  N   UNL     1      -1.115  -0.741  26.243  0.00  0.00    -0.327 N 
ATOM     20  C   UNL     1      -0.381  -1.441  25.312  0.00  0.00    +0.236 C 
ATOM     29  H   UNL     1      -1.479   0.188  26.060  0.00  0.00    +0.145 HD
ATOM     30  H   UNL     1      -1.318  -1.139  27.154  0.00  0.00    +0.145 HD
ENDBRANCH  18  20
ENDBRANCH   4  18
ENDBRANCH  15   4
ENDBRANCH   9  14
BRANCH   9   1
ATOM      1  S   UNL     1      -4.399   4.010  25.028  0.00  0.00    +0.059 S 
ATOM      5  O   UNL     1      -3.996   4.764  23.856  0.00  0.00    -0.153 OA
ATOM      6  O   UNL     1      -5.695   4.244  25.637  0.00  0.00    -0.153 OA
BRANCH   1  19
ATOM     19  C   UNL     1      -4.321   2.291  24.624  0.00  0.00    +0.105 A 
ATOM     21  C   UNL     1      -3.788   1.906  23.407  0.00  0.00    +0.030 A 
ATOM     22  C   UNL     1      -4.796   1.362  25.534  0.00  0.00    +0.030 A 
ATOM     23  C   UNL     1      -3.727   0.550  23.089  0.00  0.00    +0.025 A 
ATOM     24  C   UNL     1      -4.734   0.005  25.216  0.00  0.00    +0.025 A 
ATOM     25  C   UNL     1      -4.201  -0.401  23.993  0.00  0.00    +0.033 A 
BRANCH  25  11
ATOM      8  O   UNL     1      -3.367  -2.763  25.664  0.00  0.00    -0.276 OA
ATOM     11  N   UNL     1      -4.138  -1.758  23.676  0.00  0.00    -0.286 N 
ATOM     26  C   UNL     1      -3.738  -2.821  24.496  0.00  0.00    +0.214 C 
ATOM     27  C   UNL     1      -3.811  -4.143  23.775  0.00  0.00    +0.109 C 
ATOM     31  H   UNL     1      -4.419  -1.995  22.726  0.00  0.00    +0.155 HD
ENDBRANCH  25  11
ENDBRANCH   1  19
ENDBRANCH   9   1
TORSDOF 7
ENDMDL
MODEL 5
REMARK VINA RESULT:      -1.8      2.597      5.235
REMARK  Name = 11883287
REMARK  8 active torsions:
REMARK  status: ('A' for Active; 'I' for Inactive)
REMARK    1  A    between atoms: S_1  and  N_9
REMARK    2  A    between atoms: S_1  and  C_19
REMARK    3  A    between atoms: O_4  and  C_15
REMARK    4  A    between atoms: O_4  and  C_18
REMARK    5  A    between atoms: N_9  and  C_14
REMARK    6  A    between atoms: N_11  and  C_25
REMARK    7  A    between atoms: C_18  and  C_20
REMARK    8  A    between atoms: C_26  and  C_27
REMARK                            x       y       z     vdW  Elec       q    Type
REMARK                         _______ _______ _______ _____ _____    ______ ____
ROOT
ATOM      9  N   UNL     1      -4.743   1.634  25.145  0.00  0.00    -0.182 NA
ATOM     28  H   UNL     1      -5.411   1.586  25.924  0.00  0.00    +0.148 HD
ENDROOT
BRANCH   9  14
ATOM      2  O   UNL     1      -2.358   0.221  23.697  0.00  0.00    -0.370 OA
ATOM      3  O   UNL     1      -4.468  -1.941  24.276  0.00  0.00    -0.370 OA
ATOM     12  C   UNL     1      -4.118  -0.728  24.976  0.00  0.00    +0.170 C 
ATOM     13  C   UNL     1      -2.613  -0.576  24.865  0.00  0.00    +0.179 C 
ATOM     14  C   UNL     1      -4.660   0.469  24.234  0.00  0.00    +0.133 C 
ATOM     15  C   UNL     1      -2.152  -2.003  24.682  0.00  0.00    +0.176 C 
ATOM     16  C   UNL     1      -3.600   0.718  23.177  0.00  0.00    +0.183 C 
ATOM     17  C   UNL     1      -3.265  -2.591  23.844  0.00  0.00    +0.194 C 
BRANCH  15   4
ATOM      4  O   UNL     1      -0.897  -2.111  24.048  0.00  0.00    -0.362 OA
BRANCH   4  18
ATOM     18  C   UNL     1       0.056  -1.203  24.595  0.00  0.00    +0.255 C 
BRANCH  18  20
ATOM      7  O   UNL     1       0.816  -0.673  22.363  0.00  0.00    -0.274 OA
ATOM     10  N   UNL     1       0.732   1.005  23.935  0.00  0.00    -0.327 N 
ATOM     20  C   UNL     1       0.571  -0.293  23.504  0.00  0.00    +0.236 C 
ATOM     29  H   UNL     1       0.522   1.291  24.885  0.00  0.00    +0.145 HD
ATOM     30  H   UNL     1       1.072   1.725  23.306  0.00  0.00    +0.145 HD
ENDBRANCH  18  20
ENDBRANCH   4  18
ENDBRANCH  15   4
ENDBRANCH   9  14
BRANCH   9   1
ATOM      1  S   UNL     1      -4.067   3.120  24.679  0.00  0.00    +0.059 S 
ATOM      5  O   UNL     1      -4.793   4.203  25.316  0.00  0.00    -0.153 OA
ATOM      6  O   UNL     1      -3.877   3.116  23.241  0.00  0.00    -0.153 OA
BRANCH   1  19
ATOM     19  C   UNL     1      -2.460   3.036  25.411  0.00  0.00    +0.105 A 
ATOM     21  C   UNL     1      -1.549   4.047  25.161  0.00  0.00    +0.030 A 
ATOM     22  C   UNL     1      -2.144   1.960  26.222  0.00  0.00    +0.030 A 
ATOM     23  C   UNL     1      -0.282   3.981  25.739  0.00  0.00    +0.025 A 
ATOM     24  C   UNL     1      -0.876   1.893  26.801  0.00  0.00    +0.025 A 
ATOM     25  C   UNL     1       0.055   2.903  26.559  0.00  0.00    +0.033 A 
BRANCH  25  11
ATOM      8  O   UNL     1       0.873   2.620  29.443  0.00  0.00    -0.276 OA
ATOM     11  N   UNL     1       1.322   2.837  27.139  0.00  0.00    -0.286 N 
ATOM     26  C   UNL     1       1.647   2.707  28.496  0.00  0.00    +0.214 C 
ATOM     27  C   UNL     1       3.139   2.674  28.713  0.00  0.00    +0.109 C 
ATOM     31  H   UNL     1       2.101   2.894  26.486  0.00  0.00    +0.155 HD
ENDBRANCH  25  11
ENDBRANCH   1  19
ENDBRANCH   9   1
TORSDOF 7
ENDMDL
MODEL 6
REMARK VINA RESULT:      -1.6      2.202      4.456
REMARK  Name = 11883287
REMARK  8 active torsions:
REMARK  status: ('A' for Active; 'I' for Inactive)
REMARK    1  A    between atoms: S_1  and  N_9
REMARK    2  A    between atoms: S_1  and  C_19
REMARK    3  A    between atoms: O_4  and  C_15
REMARK    4  A    between atoms: O_4  and  C_18
REMARK    5  A    between atoms: N_9  and  C_14
REMARK    6  A    between atoms: N_11  and  C_25
REMARK    7  A    between atoms: C_18  and  C_20
REMARK    8  A    between atoms: C_26  and  C_27
REMARK                            x       y       z     vdW  Elec       q    Type
REMARK                         _______ _______ _______ _____ _____    ______ ____
ROOT
ATOM      9  N   UNL     1      -4.969   3.510  24.500  0.00  0.00    -0.182 NA
ATOM     28  H   UNL     1      -5.354   3.977  23.670  0.00  0.00    +0.148 HD
ENDROOT
BRANCH   9  14
ATOM      2  O   UNL     1      -2.237   2.480  25.621  0.00  0.00    -0.370 OA
ATOM      3  O   UNL     1      -1.818   5.408  24.777  0.00  0.00    -0.370 OA
ATOM     12  C   UNL     1      -2.690   4.376  24.268  0.00  0.00    +0.170 C 
ATOM     13  C   UNL     1      -1.922   3.071  24.350  0.00  0.00    +0.179 C 
ATOM     14  C   UNL     1      -3.851   4.175  25.210  0.00  0.00    +0.133 C 
ATOM     15  C   UNL     1      -0.485   3.532  24.287  0.00  0.00    +0.176 C 
ATOM     16  C   UNL     1      -3.278   3.237  26.256  0.00  0.00    +0.183 C 
ATOM     17  C   UNL     1      -0.534   4.832  25.058  0.00  0.00    +0.194 C 
BRANCH  15   4
ATOM      4  O   UNL     1       0.425   2.615  24.852  0.00  0.00    -0.362 OA
BRANCH   4  18
ATOM     18  C   UNL     1       0.059   1.264  24.577  0.00  0.00    +0.255 C 
BRANCH  18  20
ATOM      7  O   UNL     1       0.636  -0.207  22.748  0.00  0.00    -0.274 OA
ATOM     10  N   UNL     1       2.185   1.337  23.463  0.00  0.00    -0.327 N 
ATOM     20  C   UNL     1       0.962   0.706  23.501  0.00  0.00    +0.236 C 
ATOM     29  H   UNL     1       2.428   2.090  24.099  0.00  0.00    +0.145 HD
ATOM     30  H   UNL     1       2.892   1.064  22.789  0.00  0.00    +0.145 HD
ENDBRANCH  18  20
ENDBRANCH   4  18
ENDBRANCH  15   4
ENDBRANCH   9  14
BRANCH   9   1
ATOM      1  S   UNL     1      -5.828   2.259  25.261  0.00  0.00    +0.059 S 
ATOM      5  O   UNL     1      -7.040   1.979  24.514  0.00  0.00    -0.153 OA
ATOM      6  O   UNL     1      -5.895   2.537  26.684  0.00  0.00    -0.153 OA
BRANCH   1  19
ATOM     19  C   UNL     1      -4.732   0.886  25.056  0.00  0.00    +0.105 A 
ATOM     21  C   UNL     1      -4.477   0.058  26.134  0.00  0.00    +0.030 A 
ATOM     22  C   UNL     1      -4.151   0.667  23.819  0.00  0.00    +0.030 A 
ATOM     23  C   UNL     1      -3.613  -1.025  25.971  0.00  0.00    +0.025 A 
ATOM     24  C   UNL     1      -3.287  -0.416  23.656  0.00  0.00    +0.025 A 
ATOM     25  C   UNL     1      -3.017  -1.262  24.732  0.00  0.00    +0.033 A 
BRANCH  25  11
ATOM      8  O   UNL     1      -0.219  -1.703  25.753  0.00  0.00    -0.276 OA
ATOM     11  N   UNL     1      -2.154  -2.346  24.569  0.00  0.00    -0.286 N 
ATOM     26  C   UNL     1      -0.854  -2.498  25.068  0.00  0.00    +0.214 C 
ATOM     27  C   UNL     1      -0.253  -3.822  24.667  0.00  0.00    +0.109 C 
ATOM     31  H   UNL     1      -2.525  -3.116  24.017  0.00  0.00    +0.155 HD
ENDBRANCH  25  11
ENDBRANCH   1  19
ENDBRANCH   9   1
TORSDOF 7
ENDMDL
MODEL 7
REMARK VINA RESULT:      -1.6      2.542      5.923
REMARK  Name = 11883287
REMARK  8 active torsions:
REMARK  status: ('A' for Active; 'I' for Inactive)
REMARK    1  A    between atoms: S_1  and  N_9
REMARK    2  A    between atoms: S_1  and  C_19
REMARK    3  A    between atoms: O_4  and  C_15
REMARK    4  A    between atoms: O_4  and  C_18
REMARK    5  A    between atoms: N_9  and  C_14
REMARK    6  A    between atoms: N_11  and  C_25
REMARK    7  A    between atoms: C_18  and  C_20
REMARK    8  A    between atoms: C_26  and  C_27
REMARK                            x       y       z     vdW  Elec       q    Type
REMARK                         _______ _______ _______ _____ _____    ______ ____
ROOT
ATOM      9  N   UNL     1       0.432  -0.374  25.032  0.00  0.00    -0.182 NA
ATOM     28  H   UNL     1       0.894  -0.041  25.887  0.00  0.00    +0.148 HD
ENDROOT
BRANCH   9  14
ATOM      2  O   UNL     1      -2.539  -0.496  26.002  0.00  0.00    -0.370 OA
ATOM      3  O   UNL     1      -2.195  -2.692  23.876  0.00  0.00    -0.370 OA
ATOM     12  C   UNL     1      -1.556  -1.408  24.044  0.00  0.00    +0.170 C 
ATOM     13  C   UNL     1      -2.614  -0.457  24.568  0.00  0.00    +0.179 C 
ATOM     14  C   UNL     1      -0.545  -1.480  25.162  0.00  0.00    +0.133 C 
ATOM     15  C   UNL     1      -3.894  -1.075  24.057  0.00  0.00    +0.176 C 
ATOM     16  C   UNL     1      -1.397  -1.270  26.400  0.00  0.00    +0.183 C 
ATOM     17  C   UNL     1      -3.595  -2.554  24.157  0.00  0.00    +0.194 C 
BRANCH  15   4
ATOM      4  O   UNL     1      -5.032  -0.711  24.805  0.00  0.00    -0.362 OA
BRANCH   4  18
ATOM     18  C   UNL     1      -4.905   0.592  25.369  0.00  0.00    +0.255 C 
BRANCH  18  20
ATOM      7  O   UNL     1      -6.846   1.597  24.336  0.00  0.00    -0.274 OA
ATOM     10  N   UNL     1      -6.732   1.503  26.633  0.00  0.00    -0.327 N 
ATOM     20  C   UNL     1      -6.251   1.278  25.362  0.00  0.00    +0.236 C 
ATOM     29  H   UNL     1      -6.218   1.229  27.463  0.00  0.00    +0.145 HD
ATOM     30  H   UNL     1      -7.627   1.957  26.779  0.00  0.00    +0.145 HD
ENDBRANCH  18  20
ENDBRANCH   4  18
ENDBRANCH  15   4
ENDBRANCH   9  14
BRANCH   9   1
ATOM      1  S   UNL     1       0.470   0.557  23.613  0.00  0.00    +0.059 S 
ATOM      5  O   UNL     1       0.192  -0.293  22.470  0.00  0.00    -0.153 OA
ATOM      6  O   UNL     1       1.658   1.389  23.632  0.00  0.00    -0.153 OA
BRANCH   1  19
ATOM     19  C   UNL     1      -0.916   1.630  23.843  0.00  0.00    +0.105 A 
ATOM     21  C   UNL     1      -1.859   1.742  22.836  0.00  0.00    +0.030 A 
ATOM     22  C   UNL     1      -1.031   2.338  25.026  0.00  0.00    +0.030 A 
ATOM     23  C   UNL     1      -2.952   2.589  23.018  0.00  0.00    +0.025 A 
ATOM     24  C   UNL     1      -2.125   3.185  25.209  0.00  0.00    +0.025 A 
ATOM     25  C   UNL     1      -3.085   3.310  24.204  0.00  0.00    +0.033 A 
BRANCH  25  11
ATOM      8  O   UNL     1      -4.821   3.766  26.622  0.00  0.00    -0.276 OA
ATOM     11  N   UNL     1      -4.179   4.156  24.387  0.00  0.00    -0.286 N 
ATOM     26  C   UNL     1      -4.957   4.328  25.540  0.00  0.00    +0.214 C 
ATOM     27  C   UNL     1      -6.054   5.340  25.329  0.00  0.00    +0.109 C 
ATOM     31  H   UNL     1      -4.438   4.712  23.575  0.00  0.00    +0.155 HD
ENDBRANCH  25  11
ENDBRANCH   1  19
ENDBRANCH   9   1
TORSDOF 7
ENDMDL
MODEL 8
REMARK VINA RESULT:      -1.2      1.874      5.325
REMARK  Name = 11883287
REMARK  8 active torsions:
REMARK  status: ('A' for Active; 'I' for Inactive)
REMARK    1  A    between atoms: S_1  and  N_9
REMARK    2  A    between atoms: S_1  and  C_19
REMARK    3  A    between atoms: O_4  and  C_15
REMARK    4  A    between atoms: O_4  and  C_18
REMARK    5  A    between atoms: N_9  and  C_14
REMARK    6  A    between atoms: N_11  and  C_25
REMARK    7  A    between atoms: C_18  and  C_20
REMARK    8  A    between atoms: C_26  and  C_27
REMARK                            x       y       z     vdW  Elec       q    Type
REMARK                         _______ _______ _______ _____ _____    ______ ____
ROOT
ATOM      9  N   UNL     1      -5.304   0.157  25.910  0.00  0.00    -0.182 NA
ATOM     28  H   UNL     1      -5.502  -0.387  26.759  0.00  0.00    +0.148 HD
ENDROOT
BRANCH   9  14
ATOM      2  O   UNL     1      -2.374   0.308  24.828  0.00  0.00    -0.370 OA
ATOM      3  O   UNL     1      -3.374  -2.557  24.322  0.00  0.00    -0.370 OA
ATOM     12  C   UNL     1      -3.688  -1.597  25.354  0.00  0.00    +0.170 C 
ATOM     13  C   UNL     1      -2.403  -0.856  25.670  0.00  0.00    +0.179 C 
ATOM     14  C   UNL     1      -4.598  -0.528  24.802  0.00  0.00    +0.133 C 
ATOM     15  C   UNL     1      -1.342  -1.857  25.279  0.00  0.00    +0.176 C 
ATOM     16  C   UNL     1      -3.628   0.432  24.140  0.00  0.00    +0.183 C 
ATOM     17  C   UNL     1      -1.962  -2.522  24.071  0.00  0.00    +0.194 C 
BRANCH  15   4
ATOM      4  O   UNL     1      -0.096  -1.268  24.981  0.00  0.00    -0.362 OA
BRANCH   4  18
ATOM     18  C   UNL     1       0.046  -1.001  23.588  0.00  0.00    +0.255 C 
BRANCH  18  20
ATOM      7  O   UNL     1       1.916   0.191  22.626  0.00  0.00    -0.274 OA
ATOM     10  N   UNL     1       0.592   1.264  24.172  0.00  0.00    -0.327 N 
ATOM     20  C   UNL     1       0.958   0.189  23.393  0.00  0.00    +0.236 C 
ATOM     29  H   UNL     1      -0.205   1.233  24.799  0.00  0.00    +0.145 HD
ATOM     30  H   UNL     1       1.116   2.132  24.143  0.00  0.00    +0.145 HD
ENDBRANCH  18  20
ENDBRANCH   4  18
ENDBRANCH  15   4
ENDBRANCH   9  14
BRANCH   9   1
ATOM      1  S   UNL     1      -6.101   1.628  25.621  0.00  0.00    +0.059 S 
ATOM      5  O   UNL     1      -6.825   2.028  26.814  0.00  0.00    -0.153 OA
ATOM      6  O   UNL     1      -6.786   1.546  24.345  0.00  0.00    -0.153 OA
BRANCH   1  19
ATOM     19  C   UNL     1      -4.744   2.741  25.408  0.00  0.00    +0.105 A 
ATOM     21  C   UNL     1      -4.035   3.163  26.519  0.00  0.00    +0.030 A 
ATOM     22  C   UNL     1      -4.417   3.170  24.133  0.00  0.00    +0.030 A 
ATOM     23  C   UNL     1      -2.965   4.042  26.350  0.00  0.00    +0.025 A 
ATOM     24  C   UNL     1      -3.347   4.048  23.964  0.00  0.00    +0.025 A 
ATOM     25  C   UNL     1      -2.621   4.484  25.072  0.00  0.00    +0.033 A 
BRANCH  25  11
ATOM      8  O   UNL     1       0.126   4.018  23.930  0.00  0.00    -0.276 OA
ATOM     11  N   UNL     1      -1.549   5.362  24.904  0.00  0.00    -0.286 N 
ATOM     26  C   UNL     1      -0.285   5.089  24.365  0.00  0.00    +0.214 C 
ATOM     27  C   UNL     1       0.596   6.313  24.357  0.00  0.00    +0.109 C 
ATOM     31  H   UNL     1      -1.717   6.316  25.215  0.00  0.00    +0.155 HD
ENDBRANCH  25  11
ENDBRANCH   1  19
ENDBRANCH   9   1
TORSDOF 7
ENDMDL
MODEL 9
REMARK VINA RESULT:      -0.7      2.328      5.573
REMARK  Name = 11883287
REMARK  8 active torsions:
REMARK  status: ('A' for Active; 'I' for Inactive)
REMARK    1  A    between atoms: S_1  and  N_9
REMARK    2  A    between atoms: S_1  and  C_19
REMARK    3  A    between atoms: O_4  and  C_15
REMARK    4  A    between atoms: O_4  and  C_18
REMARK    5  A    between atoms: N_9  and  C_14
REMARK    6  A    between atoms: N_11  and  C_25
REMARK    7  A    between atoms: C_18  and  C_20
REMARK    8  A    between atoms: C_26  and  C_27
REMARK                            x       y       z     vdW  Elec       q    Type
REMARK                         _______ _______ _______ _____ _____    ______ ____
ROOT
ATOM      9  N   UNL     1       0.779  -1.246  24.606  0.00  0.00    -0.182 NA
ATOM     28  H   UNL     1       1.492  -1.116  25.334  0.00  0.00    +0.148 HD
ENDROOT
BRANCH   9  14
ATOM      2  O   UNL     1      -1.919  -0.559  26.030  0.00  0.00    -0.370 OA
ATOM      3  O   UNL     1      -2.514  -2.796  24.005  0.00  0.00    -0.370 OA
ATOM     12  C   UNL     1      -1.544  -1.727  23.999  0.00  0.00    +0.170 C 
ATOM     13  C   UNL     1      -2.216  -0.521  24.625  0.00  0.00    +0.179 C 
ATOM     14  C   UNL     1      -0.417  -2.050  24.949  0.00  0.00    +0.133 C 
ATOM     15  C   UNL     1      -3.679  -0.783  24.355  0.00  0.00    +0.176 C 
ATOM     16  C   UNL     1      -0.969  -1.603  26.290  0.00  0.00    +0.183 C 
ATOM     17  C   UNL     1      -3.763  -2.287  24.492  0.00  0.00    +0.194 C 
BRANCH  15   4
ATOM      4  O   UNL     1      -4.544  -0.119  25.248  0.00  0.00    -0.362 OA
BRANCH   4  18
ATOM     18  C   UNL     1      -4.547   1.291  25.038  0.00  0.00    +0.255 C 
BRANCH  18  20
ATOM      7  O   UNL     1      -6.883   1.622  24.512  0.00  0.00    -0.274 OA
ATOM     10  N   UNL     1      -6.025   2.586  26.418  0.00  0.00    -0.327 N 
ATOM     20  C   UNL     1      -5.939   1.832  25.268  0.00  0.00    +0.236 C 
ATOM     29  H   UNL     1      -5.228   2.744  27.025  0.00  0.00    +0.145 HD
ATOM     30  H   UNL     1      -6.903   3.012  26.697  0.00  0.00    +0.145 HD
ENDBRANCH  18  20
ENDBRANCH   4  18
ENDBRANCH  15   4
ENDBRANCH   9  14
BRANCH   9   1
ATOM      1  S   UNL     1       0.766  -0.259  23.225  0.00  0.00    +0.059 S 
ATOM      5  O   UNL     1      -0.062  -0.870  22.202  0.00  0.00    -0.153 OA
ATOM      6  O   UNL     1       2.128   0.138  22.921  0.00  0.00    -0.153 OA
BRANCH   1  19
ATOM     19  C   UNL     1      -0.072   1.182  23.814  0.00  0.00    +0.105 A 
ATOM     21  C   UNL     1       0.346   1.772  24.994  0.00  0.00    +0.030 A 
ATOM     22  C   UNL     1      -1.130   1.693  23.083  0.00  0.00    +0.030 A 
ATOM     23  C   UNL     1      -0.315   2.909  25.458  0.00  0.00    +0.025 A 
ATOM     24  C   UNL     1      -1.792   2.831  23.548  0.00  0.00    +0.025 A 
ATOM     25  C   UNL     1      -1.384   3.438  24.736  0.00  0.00    +0.033 A 
BRANCH  25  11
ATOM      8  O   UNL     1      -3.434   3.756  26.918  0.00  0.00    -0.276 OA
ATOM     11  N   UNL     1      -2.044   4.576  25.199  0.00  0.00    -0.286 N 
ATOM     26  C   UNL     1      -2.997   4.667  26.223  0.00  0.00    +0.214 C 
ATOM     27  C   UNL     1      -3.473   6.084  26.420  0.00  0.00    +0.109 C 
ATOM     31  H   UNL     1      -1.797   5.443  24.728  0.00  0.00    +0.155 HD
ENDBRANCH  25  11
ENDBRANCH   1  19
ENDBRANCH   9   1
TORSDOF 7
ENDMDL
