MODEL 1
REMARK VINA RESULT:      24.7      0.000      0.000
REMARK  Name = 7156382
REMARK  3 active torsions:
REMARK  status: ('A' for Active; 'I' for Inactive)
REMARK    1  A    between atoms: N_3  and  C_11
REMARK    2  A    between atoms: C_20  and  C_23
REMARK    3  A    between atoms: C_22  and  C_24
REMARK                            x       y       z     vdW  Elec       q    Type
REMARK                         _______ _______ _______ _____ _____    ______ ____
ROOT
ATOM      1  O   UNL     1      -0.185  -0.484  22.036  0.00  0.00    -0.267 OA
ATOM      3  N   UNL     1      -4.052  -0.093  25.206  0.00  0.00    -0.298 NA
ATOM      4  N   UNL     1      -1.610  -1.411  23.633  0.00  0.00    -0.311 N 
ATOM      6  C   UNL     1      -4.132  -1.666  23.255  0.00  0.00    +0.024 C 
ATOM      7  C   UNL     1      -3.138  -2.414  25.365  0.00  0.00    +0.050 C 
ATOM      8  C   UNL     1      -4.001  -2.863  24.189  0.00  0.00    +0.017 C 
ATOM      9  C   UNL     1      -4.790  -0.485  23.999  0.00  0.00    +0.090 C 
ATOM     10  C   UNL     1      -3.832  -1.242  26.097  0.00  0.00    +0.094 C 
ATOM     12  C   UNL     1      -2.744  -1.316  22.703  0.00  0.00    +0.130 C 
ATOM     13  C   UNL     1      -1.756  -2.000  24.891  0.00  0.00    +0.026 A 
ATOM     18  C   UNL     1      -0.685  -2.178  25.681  0.00  0.00    +0.022 A 
ATOM     19  C   UNL     1      -0.360  -0.976  23.153  0.00  0.00    +0.259 A 
ATOM     20  C   UNL     1       0.818  -1.158  24.074  0.00  0.00    +0.047 A 
ATOM     21  C   UNL     1       0.618  -1.744  25.264  0.00  0.00    +0.015 A 
ENDROOT
BRANCH  20  23
ATOM     23  C   UNL     1       2.164  -0.698  23.691  0.00  0.00    -0.012 A 
ATOM     25  C   UNL     1       3.290  -1.415  24.098  0.00  0.00    +0.017 A 
ATOM     26  C   UNL     1       2.314   0.452  22.920  0.00  0.00    +0.009 A 
ATOM     27  C   UNL     1       4.581  -0.989  23.741  0.00  0.00    -0.017 A 
ATOM     28  C   UNL     1       3.587   0.890  22.556  0.00  0.00    +0.009 A 
ATOM     29  C   UNL     1       4.731   0.180  22.958  0.00  0.00    -0.018 A 
ATOM     30  C   UNL     1       5.724  -1.698  24.143  0.00  0.00    +0.008 A 
ATOM     31  C   UNL     1       6.020   0.605  22.600  0.00  0.00    +0.008 A 
ATOM     32  C   UNL     1       6.997  -1.262  23.778  0.00  0.00    +0.001 A 
ATOM     33  C   UNL     1       7.145  -0.111  23.009  0.00  0.00    +0.001 A 
ENDBRANCH  20  23
BRANCH   3  11
ATOM      2  O   UNL     1      -6.923   5.319  24.876  0.00  0.00    -0.276 OA
ATOM      5  N   UNL     1      -5.660   3.732  26.008  0.00  0.00    -0.302 N 
ATOM     11  C   UNL     1      -4.734   0.991  25.909  0.00  0.00    +0.060 C 
ATOM     14  C   UNL     1      -3.765   2.158  26.142  0.00  0.00    +0.038 C 
ATOM     15  C   UNL     1      -5.952   1.458  25.102  0.00  0.00    +0.038 C 
ATOM     16  C   UNL     1      -4.481   3.342  26.792  0.00  0.00    +0.109 C 
ATOM     17  C   UNL     1      -6.624   2.655  25.773  0.00  0.00    +0.109 C 
ATOM     22  C   UNL     1      -5.923   5.016  25.532  0.00  0.00    +0.212 C 
ATOM     24  C   UNL     1      -4.904   6.079  25.856  0.00  0.00    +0.109 C 
ENDBRANCH   3  11
TORSDOF 2
ENDMDL
