MODEL 1
REMARK VINA RESULT:      -3.7      0.000      0.000
REMARK  Name = 25389414
REMARK  5 active torsions:
REMARK  status: ('A' for Active; 'I' for Inactive)
REMARK    1  A    between atoms: N_5  and  C_14
REMARK    2  A    between atoms: N_7  and  C_21
REMARK    3  A    between atoms: C_9  and  C_14
REMARK    4  A    between atoms: C_11  and  C_21
REMARK    5  A    between atoms: C_28  and  C_29
REMARK                            x       y       z     vdW  Elec       q    Type
REMARK                         _______ _______ _______ _____ _____    ______ ____
ROOT
ATOM      4  N   UNL     1      -2.216  -2.320  24.356  0.00  0.00    -0.298 NA
ATOM      8  C   UNL     1      -3.457  -0.638  25.905  0.00  0.00    -0.003 C 
ATOM      9  C   UNL     1      -4.309  -0.975  24.660  0.00  0.00    +0.020 C 
ATOM     10  C   UNL     1      -2.097  -0.075  25.454  0.00  0.00    +0.024 C 
ATOM     11  C   UNL     1      -1.333  -1.160  24.660  0.00  0.00    +0.074 C 
ATOM     12  C   UNL     1      -3.468  -1.857  23.711  0.00  0.00    +0.089 C 
ATOM     13  C   UNL     1      -3.183  -1.969  26.632  0.00  0.00    +0.019 C 
ATOM     15  C   UNL     1      -2.570  -2.972  25.639  0.00  0.00    +0.085 C 
ENDROOT
BRANCH   9  14
ATOM     14  C   UNL     1      -4.845   0.253  23.953  0.00  0.00    +0.089 C 
BRANCH  14   5
ATOM      1  O   UNL     1      -0.497   2.567  27.642  0.00  0.00    -0.268 OA
ATOM      5  N   UNL     1      -4.130   1.460  24.360  0.00  0.00    -0.301 NA
ATOM      6  N   UNL     1      -1.719   3.058  25.707  0.00  0.00    -0.312 N 
ATOM     16  C   UNL     1      -4.230   3.565  25.718  0.00  0.00    +0.024 C 
ATOM     17  C   UNL     1      -3.003   3.556  23.598  0.00  0.00    +0.050 C 
ATOM     18  C   UNL     1      -4.928   2.251  25.305  0.00  0.00    +0.089 C 
ATOM     19  C   UNL     1      -3.736   2.259  23.189  0.00  0.00    +0.094 C 
ATOM     20  C   UNL     1      -3.917   4.400  24.484  0.00  0.00    +0.017 C 
ATOM     22  C   UNL     1      -2.930   3.323  26.496  0.00  0.00    +0.130 C 
ATOM     23  C   UNL     1      -1.707   3.231  24.318  0.00  0.00    +0.026 A 
ATOM     24  C   UNL     1      -0.561   3.090  23.630  0.00  0.00    +0.022 A 
ATOM     25  C   UNL     1      -0.557   2.719  26.422  0.00  0.00    +0.251 A 
ATOM     26  C   UNL     1       0.659   2.742  24.300  0.00  0.00    +0.007 A 
ATOM     27  C   UNL     1       0.688   2.549  25.621  0.00  0.00    +0.070 A 
ENDBRANCH  14   5
ENDBRANCH   9  14
BRANCH  11  21
ATOM     21  C   UNL     1      -0.672  -0.585  23.406  0.00  0.00    +0.123 C 
BRANCH  21   7
ATOM      2  O   UNL     1       1.356  -0.434  21.378  0.00  0.00    -0.267 OA
ATOM      7  N   UNL     1       0.730  -0.388  23.613  0.00  0.00    -0.307 N 
ATOM     28  C   UNL     1       1.649  -0.328  22.566  0.00  0.00    +0.279 C 
ATOM     33  H   UNL     1       1.066  -0.298  24.567  0.00  0.00    +0.149 HD
BRANCH  28  29
ATOM      3  O   UNL     1       3.715  -1.193  23.529  0.00  0.00    -0.458 OA
ATOM     29  C   UNL     1       3.072  -0.145  22.949  0.00  0.00    +0.189 A 
ATOM     30  C   UNL     1       3.919   0.932  22.827  0.00  0.00    +0.054 A 
ATOM     31  C   UNL     1       5.161   0.519  23.366  0.00  0.00    +0.042 A 
ATOM     32  C   UNL     1       4.985  -0.781  23.779  0.00  0.00    +0.196 A 
ENDBRANCH  28  29
ENDBRANCH  21   7
ENDBRANCH  11  21
TORSDOF 5
ENDMDL
