MODEL 1
REMARK VINA RESULT:      -1.1      0.000      0.000
REMARK  Name = 11865671
REMARK  13 active torsions:
REMARK  status: ('A' for Active; 'I' for Inactive)
REMARK    1  A    between atoms: O_1  and  C_11
REMARK    2  A    between atoms: O_2  and  C_13
REMARK    3  A    between atoms: O_6  and  C_29
REMARK    4  A    between atoms: O_6  and  C_31
REMARK    5  A    between atoms: N_7  and  C_12
REMARK    6  A    between atoms: N_8  and  C_18
REMARK    7  A    between atoms: N_9  and  C_23
REMARK    8  A    between atoms: C_15  and  C_17
REMARK    9  A    between atoms: C_18  and  C_20
REMARK   10  A    between atoms: C_18  and  C_22
REMARK   11  A    between atoms: C_20  and  C_21
REMARK   12  A    between atoms: C_23  and  C_24
REMARK   13  A    between atoms: C_24  and  C_30
REMARK                            x       y       z     vdW  Elec       q    Type
REMARK                         _______ _______ _______ _____ _____    ______ ____
ROOT
ATOM     11  C   UNL     1      -1.240  -2.446  25.083  0.00  0.00    +0.167 C 
ATOM     12  C   UNL     1      -0.890  -1.464  23.949  0.00  0.00    +0.129 C 
ATOM     13  C   UNL     1      -2.750  -2.700  25.161  0.00  0.00    +0.149 C 
ATOM     14  C   UNL     1      -3.551  -1.396  25.320  0.00  0.00    +0.074 C 
ATOM     15  C   UNL     1      -2.999  -0.257  24.511  0.00  0.00    +0.015 C 
ATOM     16  C   UNL     1      -1.813  -0.277  23.884  0.00  0.00    +0.006 C 
ENDROOT
BRANCH  12   7
ATOM      4  O   UNL     1       0.738  -0.367  21.833  0.00  0.00    -0.253 OA
ATOM      7  N   UNL     1       0.470  -0.993  24.053  0.00  0.00    -0.291 N 
ATOM      9  N   UNL     1       2.469  -0.096  23.354  0.00  0.00    -0.299 N 
ATOM     19  C   UNL     1       1.184  -0.476  22.975  0.00  0.00    +0.300 C 
ATOM     32  H   UNL     1       0.950  -1.087  24.944  0.00  0.00    +0.151 HD
ATOM     36  H   UNL     1       2.748  -0.216  24.323  0.00  0.00    +0.150 HD
BRANCH   9  23
ATOM     23  C   UNL     1       3.423   0.471  22.430  0.00  0.00    +0.105 C 
BRANCH  23  24
ATOM     24  C   UNL     1       4.762   0.772  23.092  0.00  0.00    +0.015 C 
ATOM     30  C   UNL     1       5.359  -0.442  23.792  0.00  0.00    +0.005 C 
ENDBRANCH  23  24
ENDBRANCH   9  23
ENDBRANCH  12   7
BRANCH  15  17
ATOM      3  O   UNL     1      -4.781   1.150  25.114  0.00  0.00    -0.271 OA
ATOM      8  N   UNL     1      -3.380   1.789  23.364  0.00  0.00    -0.300 N 
ATOM     17  C   UNL     1      -3.816   0.952  24.376  0.00  0.00    +0.241 C 
ATOM     35  H   UNL     1      -2.623   1.481  22.760  0.00  0.00    +0.150 HD
BRANCH   8  18
ATOM     18  C   UNL     1      -4.028   3.040  23.039  0.00  0.00    +0.163 C 
BRANCH  18  22
ATOM      5  O   UNL     1      -4.436   4.104  20.892  0.00  0.00    -0.274 OA
ATOM     10  N   UNL     1      -2.747   2.554  21.047  0.00  0.00    -0.328 N 
ATOM     22  C   UNL     1      -3.793   3.294  21.556  0.00  0.00    +0.231 C 
ATOM     37  H   UNL     1      -2.475   2.640  20.073  0.00  0.00    +0.145 HD
ATOM     38  H   UNL     1      -2.223   1.891  21.609  0.00  0.00    +0.145 HD
ENDBRANCH  18  22
BRANCH  18  20
ATOM     20  C   UNL     1      -3.485   4.206  23.873  0.00  0.00    +0.067 C 
BRANCH  20  21
ATOM     21  C   UNL     1      -2.280   3.824  24.696  0.00  0.00    -0.045 A 
ATOM     25  C   UNL     1      -1.054   3.594  24.070  0.00  0.00    +0.007 A 
ATOM     26  C   UNL     1      -2.391   3.701  26.081  0.00  0.00    +0.007 A 
ATOM     27  C   UNL     1       0.061   3.240  24.831  0.00  0.00    +0.046 A 
ATOM     28  C   UNL     1      -1.275   3.347  26.841  0.00  0.00    +0.046 A 
ATOM     29  C   UNL     1      -0.050   3.117  26.216  0.00  0.00    +0.120 A 
BRANCH  29   6
ATOM      6  O   UNL     1       1.038   2.772  26.957  0.00  0.00    -0.495 OA
ATOM     31  C   UNL     1       0.810   2.418  28.320  0.00  0.00    +0.277 C 
ENDBRANCH  29   6
ENDBRANCH  20  21
ENDBRANCH  18  20
ENDBRANCH   8  18
ENDBRANCH  15  17
BRANCH  11   1
ATOM      1  O   UNL     1      -0.800  -1.910  26.333  0.00  0.00    -0.387 OA
ATOM     33  H   UNL     1      -0.462  -2.651  26.866  0.00  0.00    +0.210 HD
ENDBRANCH  11   1
BRANCH  13   2
ATOM      2  O   UNL     1      -3.189  -3.406  24.002  0.00  0.00    -0.389 OA
ATOM     34  H   UNL     1      -2.557  -3.220  23.287  0.00  0.00    +0.210 HD
ENDBRANCH  13   2
TORSDOF 11
ENDMDL
MODEL 2
REMARK VINA RESULT:      -0.8      2.025      2.783
REMARK  Name = 11865671
REMARK  13 active torsions:
REMARK  status: ('A' for Active; 'I' for Inactive)
REMARK    1  A    between atoms: O_1  and  C_11
REMARK    2  A    between atoms: O_2  and  C_13
REMARK    3  A    between atoms: O_6  and  C_29
REMARK    4  A    between atoms: O_6  and  C_31
REMARK    5  A    between atoms: N_7  and  C_12
REMARK    6  A    between atoms: N_8  and  C_18
REMARK    7  A    between atoms: N_9  and  C_23
REMARK    8  A    between atoms: C_15  and  C_17
REMARK    9  A    between atoms: C_18  and  C_20
REMARK   10  A    between atoms: C_18  and  C_22
REMARK   11  A    between atoms: C_20  and  C_21
REMARK   12  A    between atoms: C_23  and  C_24
REMARK   13  A    between atoms: C_24  and  C_30
REMARK                            x       y       z     vdW  Elec       q    Type
REMARK                         _______ _______ _______ _____ _____    ______ ____
ROOT
ATOM     11  C   UNL     1      -0.695  -1.954  24.923  0.00  0.00    +0.167 C 
ATOM     12  C   UNL     1      -0.758  -0.757  23.955  0.00  0.00    +0.129 C 
ATOM     13  C   UNL     1      -2.053  -2.659  25.034  0.00  0.00    +0.149 C 
ATOM     14  C   UNL     1      -3.175  -1.693  25.453  0.00  0.00    +0.074 C 
ATOM     15  C   UNL     1      -3.058  -0.335  24.822  0.00  0.00    +0.015 C 
ATOM     16  C   UNL     1      -1.985   0.094  24.141  0.00  0.00    +0.006 C 
ENDROOT
BRANCH  12   7
ATOM      4  O   UNL     1       1.388  -0.503  22.043  0.00  0.00    -0.253 OA
ATOM      7  N   UNL     1       0.412   0.080  24.068  0.00  0.00    -0.291 N 
ATOM      9  N   UNL     1       2.416   1.027  23.453  0.00  0.00    -0.299 N 
ATOM     19  C   UNL     1       1.404   0.141  23.091  0.00  0.00    +0.300 C 
ATOM     32  H   UNL     1       0.548   0.614  24.921  0.00  0.00    +0.151 HD
ATOM     36  H   UNL     1       2.340   1.521  24.337  0.00  0.00    +0.150 HD
BRANCH   9  23
ATOM     23  C   UNL     1       3.569   1.280  22.621  0.00  0.00    +0.105 C 
BRANCH  23  24
ATOM     24  C   UNL     1       4.635   0.201  22.764  0.00  0.00    +0.015 C 
ATOM     30  C   UNL     1       5.460   0.354  24.035  0.00  0.00    +0.005 C 
ENDBRANCH  23  24
ENDBRANCH   9  23
ENDBRANCH  12   7
BRANCH  15  17
ATOM      3  O   UNL     1      -5.166   0.480  24.183  0.00  0.00    -0.271 OA
ATOM      8  N   UNL     1      -4.043   1.512  25.946  0.00  0.00    -0.300 N 
ATOM     17  C   UNL     1      -4.198   0.579  24.936  0.00  0.00    +0.241 C 
ATOM     35  H   UNL     1      -3.162   1.555  26.449  0.00  0.00    +0.150 HD
BRANCH   8  18
ATOM     18  C   UNL     1      -5.035   2.520  26.248  0.00  0.00    +0.163 C 
BRANCH  18  22
ATOM      5  O   UNL     1      -7.003   1.222  26.842  0.00  0.00    -0.274 OA
ATOM     10  N   UNL     1      -6.914   2.196  24.763  0.00  0.00    -0.328 N 
ATOM     22  C   UNL     1      -6.400   1.892  26.006  0.00  0.00    +0.231 C 
ATOM     37  H   UNL     1      -7.826   1.852  24.479  0.00  0.00    +0.145 HD
ATOM     38  H   UNL     1      -6.408   2.753  24.084  0.00  0.00    +0.145 HD
ENDBRANCH  18  22
BRANCH  18  20
ATOM     20  C   UNL     1      -4.865   3.777  25.386  0.00  0.00    +0.067 C 
BRANCH  20  21
ATOM     21  C   UNL     1      -3.451   3.959  24.893  0.00  0.00    -0.045 A 
ATOM     25  C   UNL     1      -2.554   4.740  25.624  0.00  0.00    +0.007 A 
ATOM     26  C   UNL     1      -3.038   3.346  23.710  0.00  0.00    +0.007 A 
ATOM     27  C   UNL     1      -1.246   4.909  25.169  0.00  0.00    +0.046 A 
ATOM     28  C   UNL     1      -1.730   3.516  23.256  0.00  0.00    +0.046 A 
ATOM     29  C   UNL     1      -0.834   4.297  23.986  0.00  0.00    +0.120 A 
BRANCH  29   6
ATOM      6  O   UNL     1       0.442   4.462  23.543  0.00  0.00    -0.495 OA
ATOM     31  C   UNL     1       0.642   5.371  22.462  0.00  0.00    +0.277 C 
ENDBRANCH  29   6
ENDBRANCH  20  21
ENDBRANCH  18  20
ENDBRANCH   8  18
ENDBRANCH  15  17
BRANCH  11   1
ATOM      1  O   UNL     1      -0.306  -1.501  26.221  0.00  0.00    -0.387 OA
ATOM     33  H   UNL     1      -0.710  -2.099  26.874  0.00  0.00    +0.210 HD
ENDBRANCH  11   1
BRANCH  13   2
ATOM      2  O   UNL     1      -2.383  -3.286  23.796  0.00  0.00    -0.389 OA
ATOM     34  H   UNL     1      -2.918  -2.658  23.282  0.00  0.00    +0.210 HD
ENDBRANCH  13   2
TORSDOF 11
ENDMDL
MODEL 3
REMARK VINA RESULT:       0.5      2.006      4.805
REMARK  Name = 11865671
REMARK  13 active torsions:
REMARK  status: ('A' for Active; 'I' for Inactive)
REMARK    1  A    between atoms: O_1  and  C_11
REMARK    2  A    between atoms: O_2  and  C_13
REMARK    3  A    between atoms: O_6  and  C_29
REMARK    4  A    between atoms: O_6  and  C_31
REMARK    5  A    between atoms: N_7  and  C_12
REMARK    6  A    between atoms: N_8  and  C_18
REMARK    7  A    between atoms: N_9  and  C_23
REMARK    8  A    between atoms: C_15  and  C_17
REMARK    9  A    between atoms: C_18  and  C_20
REMARK   10  A    between atoms: C_18  and  C_22
REMARK   11  A    between atoms: C_20  and  C_21
REMARK   12  A    between atoms: C_23  and  C_24
REMARK   13  A    between atoms: C_24  and  C_30
REMARK                            x       y       z     vdW  Elec       q    Type
REMARK                         _______ _______ _______ _____ _____    ______ ____
ROOT
ATOM     11  C   UNL     1       0.625   3.148  24.469  0.00  0.00    +0.167 C 
ATOM     12  C   UNL     1       0.113   1.704  24.310  0.00  0.00    +0.129 C 
ATOM     13  C   UNL     1      -0.347   4.001  25.294  0.00  0.00    +0.149 C 
ATOM     14  C   UNL     1      -1.766   4.000  24.701  0.00  0.00    +0.074 C 
ATOM     15  C   UNL     1      -2.182   2.665  24.154  0.00  0.00    +0.015 C 
ATOM     16  C   UNL     1      -1.353   1.625  23.982  0.00  0.00    +0.006 C 
ENDROOT
BRANCH  12   7
ATOM      4  O   UNL     1       2.974   1.706  23.928  0.00  0.00    -0.253 OA
ATOM      7  N   UNL     1       0.857   0.984  23.304  0.00  0.00    -0.291 N 
ATOM      9  N   UNL     1       2.701   0.254  22.139  0.00  0.00    -0.299 N 
ATOM     19  C   UNL     1       2.244   1.043  23.192  0.00  0.00    +0.300 C 
ATOM     32  H   UNL     1       0.344   0.447  22.611  0.00  0.00    +0.151 HD
ATOM     36  H   UNL     1       2.024  -0.266  21.588  0.00  0.00    +0.150 HD
BRANCH   9  23
ATOM     23  C   UNL     1       4.099   0.134  21.799  0.00  0.00    +0.105 C 
BRANCH  23  24
ATOM     24  C   UNL     1       5.004   0.258  23.020  0.00  0.00    +0.015 C 
ATOM     30  C   UNL     1       5.063  -1.023  23.840  0.00  0.00    +0.005 C 
ENDBRANCH  23  24
ENDBRANCH   9  23
ENDBRANCH  12   7
BRANCH  15  17
ATOM      3  O   UNL     1      -4.006   2.738  22.675  0.00  0.00    -0.271 OA
ATOM      8  N   UNL     1      -4.348   1.980  24.853  0.00  0.00    -0.300 N 
ATOM     17  C   UNL     1      -3.592   2.472  23.803  0.00  0.00    +0.241 C 
ATOM     35  H   UNL     1      -3.917   1.880  25.768  0.00  0.00    +0.150 HD
BRANCH   8  18
ATOM     18  C   UNL     1      -5.764   1.710  24.748  0.00  0.00    +0.163 C 
BRANCH  18  22
ATOM      5  O   UNL     1      -7.001   1.622  26.839  0.00  0.00    -0.274 OA
ATOM     10  N   UNL     1      -6.263   3.663  26.083  0.00  0.00    -0.328 N 
ATOM     22  C   UNL     1      -6.424   2.297  25.988  0.00  0.00    +0.231 C 
ATOM     37  H   UNL     1      -6.642   4.177  26.871  0.00  0.00    +0.145 HD
ATOM     38  H   UNL     1      -5.781   4.206  25.375  0.00  0.00    +0.145 HD
ENDBRANCH  18  22
BRANCH  18  20
ATOM     20  C   UNL     1      -6.062   0.210  24.644  0.00  0.00    +0.067 C 
BRANCH  20  21
ATOM     21  C   UNL     1      -4.817  -0.639  24.719  0.00  0.00    -0.045 A 
ATOM     25  C   UNL     1      -3.903  -0.444  25.757  0.00  0.00    +0.007 A 
ATOM     26  C   UNL     1      -4.578  -1.617  23.753  0.00  0.00    +0.007 A 
ATOM     27  C   UNL     1      -2.751  -1.228  25.827  0.00  0.00    +0.046 A 
ATOM     28  C   UNL     1      -3.425  -2.400  23.825  0.00  0.00    +0.046 A 
ATOM     29  C   UNL     1      -2.513  -2.206  24.861  0.00  0.00    +0.120 A 
BRANCH  29   6
ATOM      6  O   UNL     1      -1.389  -2.970  24.931  0.00  0.00    -0.495 OA
ATOM     31  C   UNL     1      -0.170  -2.306  25.259  0.00  0.00    +0.277 C 
ENDBRANCH  29   6
ENDBRANCH  20  21
ENDBRANCH  18  20
ENDBRANCH   8  18
ENDBRANCH  15  17
BRANCH  11   1
ATOM      1  O   UNL     1       0.779   3.747  23.180  0.00  0.00    -0.387 OA
ATOM     33  H   UNL     1       0.300   3.192  22.541  0.00  0.00    +0.210 HD
ENDBRANCH  11   1
BRANCH  13   2
ATOM      2  O   UNL     1      -0.380   3.540  26.644  0.00  0.00    -0.389 OA
ATOM     34  H   UNL     1      -0.046   4.257  27.208  0.00  0.00    +0.210 HD
ENDBRANCH  13   2
TORSDOF 11
ENDMDL
MODEL 4
REMARK VINA RESULT:       1.2      2.206      4.976
REMARK  Name = 11865671
REMARK  13 active torsions:
REMARK  status: ('A' for Active; 'I' for Inactive)
REMARK    1  A    between atoms: O_1  and  C_11
REMARK    2  A    between atoms: O_2  and  C_13
REMARK    3  A    between atoms: O_6  and  C_29
REMARK    4  A    between atoms: O_6  and  C_31
REMARK    5  A    between atoms: N_7  and  C_12
REMARK    6  A    between atoms: N_8  and  C_18
REMARK    7  A    between atoms: N_9  and  C_23
REMARK    8  A    between atoms: C_15  and  C_17
REMARK    9  A    between atoms: C_18  and  C_20
REMARK   10  A    between atoms: C_18  and  C_22
REMARK   11  A    between atoms: C_20  and  C_21
REMARK   12  A    between atoms: C_23  and  C_24
REMARK   13  A    between atoms: C_24  and  C_30
REMARK                            x       y       z     vdW  Elec       q    Type
REMARK                         _______ _______ _______ _____ _____    ______ ____
ROOT
ATOM     11  C   UNL     1      -0.165   4.724  24.591  0.00  0.00    +0.167 C 
ATOM     12  C   UNL     1      -0.431   3.377  25.291  0.00  0.00    +0.129 C 
ATOM     13  C   UNL     1      -1.406   5.625  24.616  0.00  0.00    +0.149 C 
ATOM     14  C   UNL     1      -2.635   4.936  23.999  0.00  0.00    +0.074 C 
ATOM     15  C   UNL     1      -2.732   3.476  24.337  0.00  0.00    +0.015 C 
ATOM     16  C   UNL     1      -1.756   2.767  24.924  0.00  0.00    +0.006 C 
ENDROOT
BRANCH  12   7
ATOM      4  O   UNL     1      -0.167   1.709  22.951  0.00  0.00    -0.253 OA
ATOM      7  N   UNL     1       0.615   2.421  25.018  0.00  0.00    -0.291 N 
ATOM      9  N   UNL     1       1.778   0.817  23.849  0.00  0.00    -0.299 N 
ATOM     19  C   UNL     1       0.665   1.654  23.856  0.00  0.00    +0.300 C 
ATOM     32  H   UNL     1       1.325   2.260  25.727  0.00  0.00    +0.151 HD
ATOM     36  H   UNL     1       2.416   0.846  24.638  0.00  0.00    +0.150 HD
BRANCH   9  23
ATOM     23  C   UNL     1       2.070  -0.087  22.761  0.00  0.00    +0.105 C 
BRANCH  23  24
ATOM     24  C   UNL     1       3.388   0.245  22.071  0.00  0.00    +0.015 C 
ATOM     30  C   UNL     1       4.509   0.546  23.056  0.00  0.00    +0.005 C 
ENDBRANCH  23  24
ENDBRANCH   9  23
ENDBRANCH  12   7
BRANCH  15  17
ATOM      3  O   UNL     1      -4.416   2.734  22.877  0.00  0.00    -0.271 OA
ATOM      8  N   UNL     1      -4.576   2.211  25.143  0.00  0.00    -0.300 N 
ATOM     17  C   UNL     1      -3.984   2.778  24.028  0.00  0.00    +0.241 C 
ATOM     35  H   UNL     1      -4.173   2.386  26.059  0.00  0.00    +0.150 HD
BRANCH   8  18
ATOM     18  C   UNL     1      -5.818   1.473  25.088  0.00  0.00    +0.163 C 
BRANCH  18  22
ATOM      5  O   UNL     1      -7.182   0.897  27.016  0.00  0.00    -0.274 OA
ATOM     10  N   UNL     1      -6.423   3.056  26.811  0.00  0.00    -0.328 N 
ATOM     22  C   UNL     1      -6.562   1.751  26.387  0.00  0.00    +0.231 C 
ATOM     37  H   UNL     1      -6.858   3.371  27.673  0.00  0.00    +0.145 HD
ATOM     38  H   UNL     1      -5.905   3.750  26.283  0.00  0.00    +0.145 HD
ENDBRANCH  18  22
BRANCH  18  20
ATOM     20  C   UNL     1      -5.589  -0.033  24.916  0.00  0.00    +0.067 C 
BRANCH  20  21
ATOM     21  C   UNL     1      -4.128  -0.409  24.944  0.00  0.00    -0.045 A 
ATOM     25  C   UNL     1      -3.427  -0.570  23.748  0.00  0.00    +0.007 A 
ATOM     26  C   UNL     1      -3.478  -0.594  26.164  0.00  0.00    +0.007 A 
ATOM     27  C   UNL     1      -2.076  -0.917  23.774  0.00  0.00    +0.046 A 
ATOM     28  C   UNL     1      -2.127  -0.941  26.188  0.00  0.00    +0.046 A 
ATOM     29  C   UNL     1      -1.427  -1.103  24.993  0.00  0.00    +0.120 A 
BRANCH  29   6
ATOM      6  O   UNL     1      -0.108  -1.441  25.018  0.00  0.00    -0.495 OA
ATOM     31  C   UNL     1       0.220  -2.738  25.513  0.00  0.00    +0.277 C 
ENDBRANCH  29   6
ENDBRANCH  20  21
ENDBRANCH  18  20
ENDBRANCH   8  18
ENDBRANCH  15  17
BRANCH  11   1
ATOM      1  O   UNL     1       0.206   4.492  23.230  0.00  0.00    -0.387 OA
ATOM     33  H   UNL     1       0.600   3.604  23.182  0.00  0.00    +0.210 HD
ENDBRANCH  11   1
BRANCH  13   2
ATOM      2  O   UNL     1      -1.692   6.028  25.954  0.00  0.00    -0.389 OA
ATOM     34  H   UNL     1      -1.953   6.964  25.930  0.00  0.00    +0.210 HD
ENDBRANCH  13   2
TORSDOF 11
ENDMDL
MODEL 5
REMARK VINA RESULT:       1.8      2.120      5.362
REMARK  Name = 11865671
REMARK  13 active torsions:
REMARK  status: ('A' for Active; 'I' for Inactive)
REMARK    1  A    between atoms: O_1  and  C_11
REMARK    2  A    between atoms: O_2  and  C_13
REMARK    3  A    between atoms: O_6  and  C_29
REMARK    4  A    between atoms: O_6  and  C_31
REMARK    5  A    between atoms: N_7  and  C_12
REMARK    6  A    between atoms: N_8  and  C_18
REMARK    7  A    between atoms: N_9  and  C_23
REMARK    8  A    between atoms: C_15  and  C_17
REMARK    9  A    between atoms: C_18  and  C_20
REMARK   10  A    between atoms: C_18  and  C_22
REMARK   11  A    between atoms: C_20  and  C_21
REMARK   12  A    between atoms: C_23  and  C_24
REMARK   13  A    between atoms: C_24  and  C_30
REMARK                            x       y       z     vdW  Elec       q    Type
REMARK                         _______ _______ _______ _____ _____    ______ ____
ROOT
ATOM     11  C   UNL     1      -4.311  -2.387  24.495  0.00  0.00    +0.167 C 
ATOM     12  C   UNL     1      -3.934  -1.073  25.206  0.00  0.00    +0.129 C 
ATOM     13  C   UNL     1      -3.173  -3.413  24.570  0.00  0.00    +0.149 C 
ATOM     14  C   UNL     1      -1.855  -2.859  24.002  0.00  0.00    +0.074 C 
ATOM     15  C   UNL     1      -1.619  -1.416  24.345  0.00  0.00    +0.015 C 
ATOM     16  C   UNL     1      -2.539  -0.607  24.893  0.00  0.00    +0.006 C 
ENDROOT
BRANCH  12   7
ATOM      4  O   UNL     1      -3.611   1.742  25.753  0.00  0.00    -0.253 OA
ATOM      7  N   UNL     1      -4.862  -0.014  24.891  0.00  0.00    -0.291 N 
ATOM      9  N   UNL     1      -5.680   2.133  24.779  0.00  0.00    -0.299 N 
ATOM     19  C   UNL     1      -4.624   1.325  25.193  0.00  0.00    +0.300 C 
ATOM     32  H   UNL     1      -5.756  -0.258  24.474  0.00  0.00    +0.151 HD
ATOM     36  H   UNL     1      -6.474   1.701  24.317  0.00  0.00    +0.150 HD
BRANCH   9  23
ATOM     23  C   UNL     1      -5.692   3.564  24.970  0.00  0.00    +0.105 C 
BRANCH  23  24
ATOM     24  C   UNL     1      -4.679   4.276  24.081  0.00  0.00    +0.015 C 
ATOM     30  C   UNL     1      -4.032   3.346  23.065  0.00  0.00    +0.005 C 
ENDBRANCH  23  24
ENDBRANCH   9  23
ENDBRANCH  12   7
BRANCH  15  17
ATOM      3  O   UNL     1       0.703  -1.284  24.672  0.00  0.00    -0.271 OA
ATOM      8  N   UNL     1      -0.307   0.167  23.153  0.00  0.00    -0.300 N 
ATOM     17  C   UNL     1      -0.290  -0.853  24.087  0.00  0.00    +0.241 C 
ATOM     35  H   UNL     1      -1.200   0.498  22.799  0.00  0.00    +0.150 HD
BRANCH   8  18
ATOM     18  C   UNL     1       0.882   0.876  22.736  0.00  0.00    +0.163 C 
BRANCH  18  22
ATOM      5  O   UNL     1       1.761  -0.862  21.282  0.00  0.00    -0.274 OA
ATOM     10  N   UNL     1       3.002  -0.224  23.107  0.00  0.00    -0.328 N 
ATOM     22  C   UNL     1       1.894  -0.170  22.289  0.00  0.00    +0.231 C 
ATOM     37  H   UNL     1       3.761  -0.870  22.912  0.00  0.00    +0.145 HD
ATOM     38  H   UNL     1       3.100   0.356  23.933  0.00  0.00    +0.145 HD
ENDBRANCH  18  22
BRANCH  18  20
ATOM     20  C   UNL     1       1.467   1.737  23.862  0.00  0.00    +0.067 C 
BRANCH  20  21
ATOM     21  C   UNL     1       0.432   2.613  24.523  0.00  0.00    -0.045 A 
ATOM     25  C   UNL     1      -0.022   3.764  23.876  0.00  0.00    +0.007 A 
ATOM     26  C   UNL     1      -0.072   2.275  25.779  0.00  0.00    +0.007 A 
ATOM     27  C   UNL     1      -0.979   4.575  24.487  0.00  0.00    +0.046 A 
ATOM     28  C   UNL     1      -1.029   3.087  26.388  0.00  0.00    +0.046 A 
ATOM     29  C   UNL     1      -1.482   4.237  25.742  0.00  0.00    +0.120 A 
BRANCH  29   6
ATOM      6  O   UNL     1      -2.416   5.029  26.337  0.00  0.00    -0.495 OA
ATOM     31  C   UNL     1      -3.311   4.401  27.253  0.00  0.00    +0.277 C 
ENDBRANCH  29   6
ENDBRANCH  20  21
ENDBRANCH  18  20
ENDBRANCH   8  18
ENDBRANCH  15  17
BRANCH  11   1
ATOM      1  O   UNL     1      -4.601  -2.123  23.121  0.00  0.00    -0.387 OA
ATOM     33  H   UNL     1      -5.113  -1.296  23.083  0.00  0.00    +0.210 HD
ENDBRANCH  11   1
BRANCH  13   2
ATOM      2  O   UNL     1      -2.985  -3.839  25.918  0.00  0.00    -0.389 OA
ATOM     34  H   UNL     1      -2.108  -3.533  26.204  0.00  0.00    +0.210 HD
ENDBRANCH  13   2
TORSDOF 11
ENDMDL
