MODEL 1
REMARK VINA RESULT:       3.8      0.000      0.000
REMARK  Name = 11912188
REMARK  7 active torsions:
REMARK  status: ('A' for Active; 'I' for Inactive)
REMARK    1  A    between atoms: S_1  and  N_9
REMARK    2  A    between atoms: S_1  and  C_21
REMARK    3  A    between atoms: N_9  and  C_16
REMARK    4  A    between atoms: N_10  and  C_17
REMARK    5  A    between atoms: N_13  and  C_29
REMARK    6  A    between atoms: C_24  and  C_30
REMARK    7  A    between atoms: C_36  and  C_38
REMARK                            x       y       z     vdW  Elec       q    Type
REMARK                         _______ _______ _______ _____ _____    ______ ____
ROOT
ATOM      2  O   UNL     1      -1.068   2.723  23.252  0.00  0.00    -0.370 OA
ATOM      3  O   UNL     1      -0.875   4.196  26.002  0.00  0.00    -0.370 OA
ATOM     14  C   UNL     1      -1.330   2.889  25.611  0.00  0.00    +0.170 C 
ATOM     15  C   UNL     1      -2.030   3.037  24.274  0.00  0.00    +0.171 C 
ATOM     16  C   UNL     1      -0.153   1.992  25.316  0.00  0.00    +0.133 C 
ATOM     17  C   UNL     1      -2.403   4.499  24.209  0.00  0.00    +0.130 C 
ATOM     18  C   UNL     1       0.163   2.319  23.870  0.00  0.00    +0.183 C 
ATOM     19  C   UNL     1      -1.309   5.157  25.029  0.00  0.00    +0.185 C 
ENDROOT
BRANCH  17  10
ATOM     10  N   UNL     1      -3.691   4.708  24.834  0.00  0.00    -0.306 N 
ATOM     11  N   UNL     1      -4.061   2.427  25.054  0.00  0.00    -0.214 NA
ATOM     12  N   UNL     1      -5.683   4.035  25.821  0.00  0.00    -0.223 NA
ATOM     20  C   UNL     1      -4.514   3.678  25.255  0.00  0.00    +0.216 A 
ATOM     24  C   UNL     1      -4.889   1.447  25.475  0.00  0.00    +0.076 A 
ATOM     25  C   UNL     1      -6.461   3.007  26.218  0.00  0.00    +0.116 A 
ATOM     28  C   UNL     1      -6.112   1.680  26.071  0.00  0.00    +0.048 A 
ATOM     40  H   UNL     1      -4.003   5.653  25.029  0.00  0.00    +0.149 HD
BRANCH  24  30
ATOM      6  O   UNL     1      -4.370  -2.625  22.811  0.00  0.00    -0.453 OA
ATOM      7  O   UNL     1      -3.094  -3.718  24.539  0.00  0.00    -0.453 OA
ATOM     30  C   UNL     1      -4.406   0.104  25.264  0.00  0.00    +0.004 A 
ATOM     31  C   UNL     1      -4.682  -0.552  24.062  0.00  0.00    +0.059 A 
ATOM     32  C   UNL     1      -3.662  -0.534  26.273  0.00  0.00    +0.014 A 
ATOM     33  C   UNL     1      -4.200  -1.835  23.906  0.00  0.00    +0.167 A 
ATOM     34  C   UNL     1      -3.184  -1.835  26.090  0.00  0.00    +0.050 A 
ATOM     35  C   UNL     1      -3.471  -2.459  24.893  0.00  0.00    +0.166 A 
ATOM     37  C   UNL     1      -3.665  -3.816  23.219  0.00  0.00    +0.466 C 
ENDBRANCH  24  30
ENDBRANCH  17  10
BRANCH  16   9
ATOM      9  N   UNL     1      -0.569   0.572  25.426  0.00  0.00    -0.182 NA
ATOM     39  H   UNL     1      -0.692   0.183  26.369  0.00  0.00    +0.148 HD
BRANCH   9   1
ATOM      1  S   UNL     1      -0.443  -0.450  24.077  0.00  0.00    +0.059 S 
ATOM      4  O   UNL     1      -1.182   0.120  22.967  0.00  0.00    -0.153 OA
ATOM      5  O   UNL     1      -0.699  -1.815  24.500  0.00  0.00    -0.153 OA
BRANCH   1  21
ATOM     21  C   UNL     1       1.280  -0.345  23.698  0.00  0.00    +0.105 A 
ATOM     22  C   UNL     1       1.778   0.770  23.023  0.00  0.00    +0.030 A 
ATOM     23  C   UNL     1       2.141  -1.376  24.073  0.00  0.00    +0.030 A 
ATOM     26  C   UNL     1       3.139   0.853  22.725  0.00  0.00    +0.025 A 
ATOM     27  C   UNL     1       3.501  -1.293  23.774  0.00  0.00    +0.025 A 
ATOM     29  C   UNL     1       4.000  -0.178  23.099  0.00  0.00    +0.033 A 
BRANCH  29  13
ATOM      8  O   UNL     1       6.411  -0.966  24.722  0.00  0.00    -0.276 OA
ATOM     13  N   UNL     1       5.359  -0.095  22.800  0.00  0.00    -0.286 N 
ATOM     36  C   UNL     1       6.447  -0.477  23.598  0.00  0.00    +0.214 C 
ATOM     38  C   UNL     1       7.763  -0.224  22.908  0.00  0.00    +0.109 C 
ATOM     41  H   UNL     1       5.580   0.293  21.885  0.00  0.00    +0.155 HD
ENDBRANCH  29  13
ENDBRANCH   1  21
ENDBRANCH   9   1
ENDBRANCH  16   9
TORSDOF 6
ENDMDL
MODEL 2
REMARK VINA RESULT:       4.6      2.095      4.970
REMARK  Name = 11912188
REMARK  7 active torsions:
REMARK  status: ('A' for Active; 'I' for Inactive)
REMARK    1  A    between atoms: S_1  and  N_9
REMARK    2  A    between atoms: S_1  and  C_21
REMARK    3  A    between atoms: N_9  and  C_16
REMARK    4  A    between atoms: N_10  and  C_17
REMARK    5  A    between atoms: N_13  and  C_29
REMARK    6  A    between atoms: C_24  and  C_30
REMARK    7  A    between atoms: C_36  and  C_38
REMARK                            x       y       z     vdW  Elec       q    Type
REMARK                         _______ _______ _______ _____ _____    ______ ____
ROOT
ATOM      2  O   UNL     1      -2.115  -1.615  26.115  0.00  0.00    -0.370 OA
ATOM      3  O   UNL     1      -3.271  -1.724  23.214  0.00  0.00    -0.370 OA
ATOM     14  C   UNL     1      -2.179  -1.009  23.816  0.00  0.00    +0.170 C 
ATOM     15  C   UNL     1      -2.613  -0.613  25.213  0.00  0.00    +0.171 C 
ATOM     16  C   UNL     1      -1.009  -1.936  24.040  0.00  0.00    +0.133 C 
ATOM     17  C   UNL     1      -4.122  -0.660  25.160  0.00  0.00    +0.130 C 
ATOM     18  C   UNL     1      -1.336  -2.569  25.378  0.00  0.00    +0.183 C 
ATOM     19  C   UNL     1      -4.384  -1.735  24.121  0.00  0.00    +0.185 C 
ENDROOT
BRANCH  17  10
ATOM     10  N   UNL     1      -4.641   0.612  24.706  0.00  0.00    -0.306 N 
ATOM     11  N   UNL     1      -2.798   1.763  25.524  0.00  0.00    -0.214 NA
ATOM     12  N   UNL     1      -4.595   2.914  24.406  0.00  0.00    -0.223 NA
ATOM     20  C   UNL     1      -3.982   1.815  24.886  0.00  0.00    +0.216 A 
ATOM     24  C   UNL     1      -2.184   2.954  25.684  0.00  0.00    +0.076 A 
ATOM     25  C   UNL     1      -3.927   4.070  24.599  0.00  0.00    +0.116 A 
ATOM     28  C   UNL     1      -2.705   4.151  25.237  0.00  0.00    +0.048 A 
ATOM     40  H   UNL     1      -5.508   0.637  24.181  0.00  0.00    +0.149 HD
BRANCH  24  30
ATOM      6  O   UNL     1       0.597   2.478  29.682  0.00  0.00    -0.453 OA
ATOM      7  O   UNL     1       2.635   2.738  28.423  0.00  0.00    -0.453 OA
ATOM     30  C   UNL     1      -0.913   2.902  26.365  0.00  0.00    +0.004 A 
ATOM     31  C   UNL     1      -0.874   2.703  27.747  0.00  0.00    +0.059 A 
ATOM     32  C   UNL     1       0.276   3.054  25.630  0.00  0.00    +0.014 A 
ATOM     33  C   UNL     1       0.364   2.661  28.354  0.00  0.00    +0.167 A 
ATOM     34  C   UNL     1       1.518   3.007  26.269  0.00  0.00    +0.050 A 
ATOM     35  C   UNL     1       1.528   2.809  27.635  0.00  0.00    +0.166 A 
ATOM     37  C   UNL     1       2.038   2.527  29.719  0.00  0.00    +0.466 C 
ENDBRANCH  24  30
ENDBRANCH  17  10
BRANCH  16   9
ATOM      9  N   UNL     1       0.240  -1.144  24.157  0.00  0.00    -0.182 NA
ATOM     39  H   UNL     1       0.664  -1.056  25.089  0.00  0.00    +0.148 HD
BRANCH   9   1
ATOM      1  S   UNL     1       0.703  -0.107  22.895  0.00  0.00    +0.059 S 
ATOM      4  O   UNL     1       0.157   1.216  23.130  0.00  0.00    -0.153 OA
ATOM      5  O   UNL     1       0.470  -0.779  21.630  0.00  0.00    -0.153 OA
BRANCH   1  21
ATOM     21  C   UNL     1       2.454  -0.022  23.117  0.00  0.00    +0.105 A 
ATOM     22  C   UNL     1       3.143  -1.108  23.660  0.00  0.00    +0.030 A 
ATOM     23  C   UNL     1       3.148   1.131  22.750  0.00  0.00    +0.030 A 
ATOM     26  C   UNL     1       4.525  -1.040  23.834  0.00  0.00    +0.025 A 
ATOM     27  C   UNL     1       4.531   1.199  22.925  0.00  0.00    +0.025 A 
ATOM     29  C   UNL     1       5.219   0.113  23.467  0.00  0.00    +0.033 A 
BRANCH  29  13
ATOM      8  O   UNL     1       7.450  -1.239  21.963  0.00  0.00    -0.276 OA
ATOM     13  N   UNL     1       6.601   0.181  23.642  0.00  0.00    -0.286 N 
ATOM     36  C   UNL     1       7.600  -0.474  22.910  0.00  0.00    +0.214 C 
ATOM     38  C   UNL     1       8.979  -0.134  23.416  0.00  0.00    +0.109 C 
ATOM     41  H   UNL     1       6.914   0.786  24.400  0.00  0.00    +0.155 HD
ENDBRANCH  29  13
ENDBRANCH   1  21
ENDBRANCH   9   1
ENDBRANCH  16   9
TORSDOF 6
ENDMDL
MODEL 3
REMARK VINA RESULT:       6.1      1.286      1.386
REMARK  Name = 11912188
REMARK  7 active torsions:
REMARK  status: ('A' for Active; 'I' for Inactive)
REMARK    1  A    between atoms: S_1  and  N_9
REMARK    2  A    between atoms: S_1  and  C_21
REMARK    3  A    between atoms: N_9  and  C_16
REMARK    4  A    between atoms: N_10  and  C_17
REMARK    5  A    between atoms: N_13  and  C_29
REMARK    6  A    between atoms: C_24  and  C_30
REMARK    7  A    between atoms: C_36  and  C_38
REMARK                            x       y       z     vdW  Elec       q    Type
REMARK                         _______ _______ _______ _____ _____    ______ ____
ROOT
ATOM      2  O   UNL     1       0.557   3.748  24.023  0.00  0.00    -0.370 OA
ATOM      3  O   UNL     1      -1.129   2.273  26.202  0.00  0.00    -0.370 OA
ATOM     14  C   UNL     1      -1.113   2.225  24.765  0.00  0.00    +0.170 C 
ATOM     15  C   UNL     1      -0.855   3.634  24.270  0.00  0.00    +0.171 C 
ATOM     16  C   UNL     1       0.080   1.438  24.282  0.00  0.00    +0.133 C 
ATOM     17  C   UNL     1      -1.255   4.515  25.429  0.00  0.00    +0.130 C 
ATOM     18  C   UNL     1       1.182   2.478  24.263  0.00  0.00    +0.183 C 
ATOM     19  C   UNL     1      -0.968   3.633  26.630  0.00  0.00    +0.185 C 
ENDROOT
BRANCH  17  10
ATOM     10  N   UNL     1      -2.668   4.817  25.357  0.00  0.00    -0.306 N 
ATOM     11  N   UNL     1      -3.234   2.573  25.168  0.00  0.00    -0.214 NA
ATOM     12  N   UNL     1      -4.923   4.291  25.175  0.00  0.00    -0.223 NA
ATOM     20  C   UNL     1      -3.651   3.852  25.228  0.00  0.00    +0.216 A 
ATOM     24  C   UNL     1      -4.218   1.658  25.042  0.00  0.00    +0.076 A 
ATOM     25  C   UNL     1      -5.855   3.325  25.049  0.00  0.00    +0.116 A 
ATOM     28  C   UNL     1      -5.559   1.979  24.977  0.00  0.00    +0.048 A 
ATOM     40  H   UNL     1      -2.978   5.777  25.454  0.00  0.00    +0.149 HD
BRANCH  24  30
ATOM      6  O   UNL     1      -4.444  -2.916  23.318  0.00  0.00    -0.453 OA
ATOM      7  O   UNL     1      -2.615  -3.642  24.709  0.00  0.00    -0.453 OA
ATOM     30  C   UNL     1      -3.775   0.286  24.979  0.00  0.00    +0.004 A 
ATOM     31  C   UNL     1      -4.410  -0.609  24.115  0.00  0.00    +0.059 A 
ATOM     32  C   UNL     1      -2.708  -0.138  25.792  0.00  0.00    +0.014 A 
ATOM     33  C   UNL     1      -3.951  -1.910  24.091  0.00  0.00    +0.167 A 
ATOM     34  C   UNL     1      -2.263  -1.461  25.748  0.00  0.00    +0.050 A 
ATOM     35  C   UNL     1      -2.907  -2.325  24.885  0.00  0.00    +0.166 A 
ATOM     37  C   UNL     1      -3.591  -4.011  23.714  0.00  0.00    +0.466 C 
ENDBRANCH  24  30
ENDBRANCH  17  10
BRANCH  16   9
ATOM      9  N   UNL     1      -0.170   0.952  22.902  0.00  0.00    -0.182 NA
ATOM     39  H   UNL     1      -0.934   1.389  22.373  0.00  0.00    +0.148 HD
BRANCH   9   1
ATOM      1  S   UNL     1       0.505  -0.520  22.391  0.00  0.00    +0.059 S 
ATOM      4  O   UNL     1       0.363  -0.643  20.953  0.00  0.00    -0.153 OA
ATOM      5  O   UNL     1       0.033  -1.578  23.265  0.00  0.00    -0.153 OA
BRANCH   1  21
ATOM     21  C   UNL     1       2.218  -0.281  22.752  0.00  0.00    +0.105 A 
ATOM     22  C   UNL     1       2.884   0.845  22.264  0.00  0.00    +0.030 A 
ATOM     23  C   UNL     1       2.905  -1.217  23.524  0.00  0.00    +0.030 A 
ATOM     26  C   UNL     1       4.236   1.033  22.550  0.00  0.00    +0.025 A 
ATOM     27  C   UNL     1       4.258  -1.029  23.809  0.00  0.00    +0.025 A 
ATOM     29  C   UNL     1       4.924   0.097  23.322  0.00  0.00    +0.033 A 
BRANCH  29  13
ATOM      8  O   UNL     1       7.373  -1.145  22.087  0.00  0.00    -0.276 OA
ATOM     13  N   UNL     1       6.276   0.285  23.607  0.00  0.00    -0.286 N 
ATOM     36  C   UNL     1       7.382  -0.324  22.998  0.00  0.00    +0.214 C 
ATOM     38  C   UNL     1       8.681   0.151  23.597  0.00  0.00    +0.109 C 
ATOM     41  H   UNL     1       6.474   0.950  24.352  0.00  0.00    +0.155 HD
ENDBRANCH  29  13
ENDBRANCH   1  21
ENDBRANCH   9   1
ENDBRANCH  16   9
TORSDOF 6
ENDMDL
