MODEL 1
REMARK VINA RESULT:       8.2      0.000      0.000
REMARK  Name = 11941556
REMARK  7 active torsions:
REMARK  status: ('A' for Active; 'I' for Inactive)
REMARK    1  A    between atoms: S_1  and  C_21
REMARK    2  A    between atoms: S_1  and  C_30
REMARK    3  A    between atoms: N_6  and  C_9
REMARK    4  A    between atoms: C_16  and  C_21
REMARK    5  A    between atoms: C_19  and  C_22
REMARK    6  A    between atoms: C_23  and  C_26
REMARK    7  A    between atoms: C_25  and  C_29
REMARK                            x       y       z     vdW  Elec       q    Type
REMARK                         _______ _______ _______ _____ _____    ______ ____
ROOT
ATOM      2  O   UNL     1      -5.080  -0.445  25.351  0.00  0.00    -0.273 OA
ATOM      3  O   UNL     1      -1.886   1.714  21.761  0.00  0.00    -0.270 OA
ATOM      5  N   UNL     1      -3.337   1.689  23.545  0.00  0.00    -0.284 N 
ATOM      7  N   UNL     1      -2.904  -0.906  24.862  0.00  0.00    -0.283 N 
ATOM      8  C   UNL     1      -3.638   1.443  24.943  0.00  0.00    +0.183 C 
ATOM      9  C   UNL     1      -4.829   2.359  25.253  0.00  0.00    +0.104 C 
ATOM     10  C   UNL     1      -5.513   2.528  23.893  0.00  0.00    +0.043 C 
ATOM     11  C   UNL     1      -4.350   2.522  22.913  0.00  0.00    +0.111 C 
ATOM     12  C   UNL     1      -3.961  -0.037  25.037  0.00  0.00    +0.240 C 
ATOM     13  C   UNL     1      -2.168   1.344  22.900  0.00  0.00    +0.249 C 
ATOM     14  C   UNL     1      -1.211   0.458  23.613  0.00  0.00    +0.059 A 
ATOM     15  C   UNL     1      -1.589  -0.618  24.435  0.00  0.00    +0.046 A 
ATOM     17  C   UNL     1       0.146   0.635  23.287  0.00  0.00    +0.023 A 
ATOM     18  C   UNL     1      -0.605  -1.528  24.855  0.00  0.00    +0.024 A 
ATOM     19  C   UNL     1       1.115  -0.253  23.752  0.00  0.00    -0.017 A 
ATOM     20  C   UNL     1       0.738  -1.342  24.527  0.00  0.00    +0.010 A 
ATOM     32  H   UNL     1      -3.074  -1.864  25.160  0.00  0.00    +0.155 HD
ENDROOT
BRANCH  19  22
ATOM     22  C   UNL     1       2.507  -0.052  23.411  0.00  0.00    -0.015 A 
ATOM     23  C   UNL     1       3.479  -0.998  23.742  0.00  0.00    -0.040 A 
ATOM     24  C   UNL     1       2.874   1.114  22.736  0.00  0.00    +0.009 A 
ATOM     25  C   UNL     1       4.813  -0.778  23.401  0.00  0.00    -0.047 A 
ATOM     26  C   UNL     1       3.100  -2.254  24.466  0.00  0.00    +0.044 C 
ATOM     27  C   UNL     1       4.208   1.334  22.394  0.00  0.00    +0.001 A 
ATOM     28  C   UNL     1       5.178   0.388  22.726  0.00  0.00    +0.003 A 
ATOM     29  C   UNL     1       5.872  -1.774  23.744  0.00  0.00    +0.044 C 
ENDBRANCH  19  22
BRANCH   9   6
ATOM      4  O   UNL     1      -2.156   3.057  26.115  0.00  0.00    -0.275 OA
ATOM      6  N   UNL     1      -4.382   3.631  25.773  0.00  0.00    -0.309 N 
ATOM     16  C   UNL     1      -3.075   3.873  26.161  0.00  0.00    +0.223 C 
ATOM     31  H   UNL     1      -5.049   4.397  25.798  0.00  0.00    +0.149 HD
BRANCH  16  21
ATOM     21  C   UNL     1      -2.866   5.274  26.686  0.00  0.00    +0.164 C 
BRANCH  21   1
ATOM      1  S   UNL     1      -2.122   6.284  25.382  0.00  0.00    -0.155 S 
ATOM     30  C   UNL     1      -0.885   5.102  24.799  0.00  0.00    +0.085 C 
ENDBRANCH  21   1
ENDBRANCH  16  21
ENDBRANCH   9   6
TORSDOF 4
ENDMDL
