MODEL 1
REMARK VINA RESULT:      -0.8      0.000      0.000
REMARK  Name = 7682247
REMARK  5 active torsions:
REMARK  status: ('A' for Active; 'I' for Inactive)
REMARK    1  A    between atoms: O_3  and  C_27
REMARK    2  A    between atoms: O_3  and  C_28
REMARK    3  A    between atoms: N_4  and  C_13
REMARK    4  A    between atoms: C_13  and  C_18
REMARK    5  A    between atoms: C_14  and  C_19
REMARK                            x       y       z     vdW  Elec       q    Type
REMARK                         _______ _______ _______ _____ _____    ______ ____
ROOT
ATOM      2  O   UNL     1      -3.278   4.533  24.430  0.00  0.00    -0.268 OA
ATOM      4  N   UNL     1       0.265   1.160  23.516  0.00  0.00    -0.297 NA
ATOM      5  N   UNL     1      -2.292   2.459  24.886  0.00  0.00    -0.311 N 
ATOM      6  C   UNL     1       0.119   2.279  25.747  0.00  0.00    +0.024 C 
ATOM      7  C   UNL     1      -1.185   0.249  25.341  0.00  0.00    +0.051 C 
ATOM      8  C   UNL     1      -0.368   0.994  26.393  0.00  0.00    +0.017 C 
ATOM      9  C   UNL     1       0.984   1.965  24.510  0.00  0.00    +0.090 C 
ATOM     10  C   UNL     1      -0.288  -0.061  24.118  0.00  0.00    +0.094 C 
ATOM     11  C   UNL     1      -1.098   3.142  25.405  0.00  0.00    +0.130 C 
ATOM     12  C   UNL     1      -2.421   1.055  24.920  0.00  0.00    +0.034 A 
ATOM     14  C   UNL     1      -3.601   0.475  24.569  0.00  0.00    +0.009 A 
ATOM     15  C   UNL     1      -3.335   3.304  24.466  0.00  0.00    +0.252 A 
ATOM     16  C   UNL     1      -4.696   1.318  24.125  0.00  0.00    +0.016 A 
ATOM     17  C   UNL     1      -4.594   2.645  24.053  0.00  0.00    +0.071 A 
ENDROOT
BRANCH  14  19
ATOM      1  S   UNL     1      -3.213  -1.813  25.993  0.00  0.00    -0.097 S 
ATOM     19  C   UNL     1      -3.763  -0.952  24.619  0.00  0.00    +0.021 A 
ATOM     22  C   UNL     1      -4.324  -1.786  23.676  0.00  0.00    +0.016 A 
ATOM     25  C   UNL     1      -4.303  -3.150  24.089  0.00  0.00    +0.008 A 
ATOM     26  C   UNL     1      -3.726  -3.306  25.330  0.00  0.00    +0.046 A 
ENDBRANCH  14  19
BRANCH   4  13
ATOM     13  C   UNL     1       1.126   0.841  22.379  0.00  0.00    +0.119 C 
BRANCH  13  18
ATOM     18  C   UNL     1       2.495   0.409  22.816  0.00  0.00    -0.033 A 
ATOM     20  C   UNL     1       3.557   1.300  22.729  0.00  0.00    +0.008 A 
ATOM     21  C   UNL     1       2.687  -0.879  23.303  0.00  0.00    +0.008 A 
ATOM     23  C   UNL     1       4.831   0.900  23.134  0.00  0.00    +0.046 A 
ATOM     24  C   UNL     1       3.960  -1.279  23.709  0.00  0.00    +0.046 A 
ATOM     27  C   UNL     1       5.032  -0.391  23.624  0.00  0.00    +0.120 A 
BRANCH  27   3
ATOM      3  O   UNL     1       6.274  -0.781  24.020  0.00  0.00    -0.495 OA
ATOM     28  C   UNL     1       7.355  -0.512  23.129  0.00  0.00    +0.277 C 
ENDBRANCH  27   3
ENDBRANCH  13  18
ENDBRANCH   4  13
TORSDOF 4
ENDMDL
