MODEL 1
REMARK VINA RESULT:      -4.7      0.000      0.000
REMARK  Name = 86769014
REMARK  2 active torsions:
REMARK  status: ('A' for Active; 'I' for Inactive)
REMARK    1  A    between atoms: N_3  and  C_8
REMARK    2  A    between atoms: N_5  and  C_17
REMARK                            x       y       z     vdW  Elec       q    Type
REMARK                         _______ _______ _______ _____ _____    ______ ____
ROOT
ATOM      2  O   UNL     1      17.151  -6.290  23.748  0.00  0.00    -0.252 OA
ATOM      3  N   UNL     1      16.449  -7.857  28.507  0.00  0.00    -0.296 NA
ATOM      4  N   UNL     1      17.130  -6.672  26.048  0.00  0.00    -0.278 N 
ATOM      5  N   UNL     1      17.205  -4.517  25.356  0.00  0.00    -0.254 N 
ATOM      6  C   UNL     1      17.299  -5.914  27.261  0.00  0.00    +0.109 C 
ATOM      7  C   UNL     1      16.326  -6.395  28.337  0.00  0.00    +0.108 C 
ATOM      9  C   UNL     1      16.145  -8.560  27.244  0.00  0.00    +0.104 C 
ATOM     10  C   UNL     1      17.085  -8.119  26.119  0.00  0.00    +0.125 C 
ATOM     11  C   UNL     1      17.096  -4.471  26.810  0.00  0.00    +0.139 C 
ATOM     14  C   UNL     1      17.168  -5.868  24.897  0.00  0.00    +0.309 C 
ENDROOT
BRANCH   3   8
ATOM      1  O   UNL     1      12.914  -9.028  30.444  0.00  0.00    -0.380 OA
ATOM      8  C   UNL     1      15.565  -8.320  29.574  0.00  0.00    +0.061 C 
ATOM     12  C   UNL     1      14.490  -7.270  29.869  0.00  0.00    +0.047 C 
ATOM     13  C   UNL     1      14.907  -9.654  29.202  0.00  0.00    +0.047 C 
ATOM     15  C   UNL     1      13.495  -7.803  30.892  0.00  0.00    +0.161 C 
ATOM     16  C   UNL     1      13.889 -10.055  30.264  0.00  0.00    +0.161 C 
ENDBRANCH   3   8
BRANCH   5  17
ATOM     17  C   UNL     1      17.254  -3.339  24.556  0.00  0.00    +0.038 A 
ATOM     18  C   UNL     1      17.357  -3.443  23.168  0.00  0.00    +0.023 A 
ATOM     19  C   UNL     1      17.200  -2.084  25.160  0.00  0.00    +0.023 A 
ATOM     20  C   UNL     1      17.405  -2.289  22.385  0.00  0.00    +0.002 A 
ATOM     21  C   UNL     1      17.249  -0.931  24.376  0.00  0.00    +0.002 A 
ATOM     22  C   UNL     1      17.351  -1.033  22.990  0.00  0.00    +0.000 A 
ENDBRANCH   5  17
TORSDOF 2
ENDMDL
MODEL 2
REMARK VINA RESULT:      -4.6     26.763     27.952
REMARK  Name = 86769014
REMARK  2 active torsions:
REMARK  status: ('A' for Active; 'I' for Inactive)
REMARK    1  A    between atoms: N_3  and  C_8
REMARK    2  A    between atoms: N_5  and  C_17
REMARK                            x       y       z     vdW  Elec       q    Type
REMARK                         _______ _______ _______ _____ _____    ______ ____
ROOT
ATOM      2  O   UNL     1      -3.996 -10.779  14.245  0.00  0.00    -0.252 OA
ATOM      3  N   UNL     1      -7.190 -10.016  10.396  0.00  0.00    -0.296 NA
ATOM      4  N   UNL     1      -5.761 -10.691  12.724  0.00  0.00    -0.278 N 
ATOM      5  N   UNL     1      -6.285 -10.589  14.924  0.00  0.00    -0.254 N 
ATOM      6  C   UNL     1      -7.200 -10.731  12.750  0.00  0.00    +0.109 C 
ATOM      7  C   UNL     1      -7.785  -9.761  11.723  0.00  0.00    +0.108 C 
ATOM      9  C   UNL     1      -5.724  -9.838  10.435  0.00  0.00    +0.104 C 
ATOM     10  C   UNL     1      -5.074 -10.781  11.450  0.00  0.00    +0.125 C 
ATOM     11  C   UNL     1      -7.539 -10.411  14.202  0.00  0.00    +0.139 C 
ATOM     14  C   UNL     1      -5.196 -10.703  14.009  0.00  0.00    +0.309 C 
ENDROOT
BRANCH   3   8
ATOM      1  O   UNL     1      -8.936  -6.580   8.734  0.00  0.00    -0.380 OA
ATOM      8  C   UNL     1      -7.783  -9.133   9.395  0.00  0.00    +0.061 C 
ATOM     12  C   UNL     1      -9.207  -8.744   9.805  0.00  0.00    +0.047 C 
ATOM     13  C   UNL     1      -6.932  -7.874   9.197  0.00  0.00    +0.047 C 
ATOM     15  C   UNL     1      -9.781  -7.727   8.826  0.00  0.00    +0.161 C 
ATOM     16  C   UNL     1      -7.632  -6.905   8.251  0.00  0.00    +0.161 C 
ENDBRANCH   3   8
BRANCH   5  17
ATOM     17  C   UNL     1      -6.211 -10.561  16.347  0.00  0.00    +0.038 A 
ATOM     18  C   UNL     1      -4.973 -10.647  16.983  0.00  0.00    +0.023 A 
ATOM     19  C   UNL     1      -7.378 -10.448  17.102  0.00  0.00    +0.023 A 
ATOM     20  C   UNL     1      -4.902 -10.620  18.377  0.00  0.00    +0.002 A 
ATOM     21  C   UNL     1      -7.306 -10.421  18.495  0.00  0.00    +0.002 A 
ATOM     22  C   UNL     1      -6.069 -10.506  19.132  0.00  0.00    +0.000 A 
ENDBRANCH   5  17
TORSDOF 2
ENDMDL
MODEL 3
REMARK VINA RESULT:      -4.3     26.189     27.580
REMARK  Name = 86769014
REMARK  2 active torsions:
REMARK  status: ('A' for Active; 'I' for Inactive)
REMARK    1  A    between atoms: N_3  and  C_8
REMARK    2  A    between atoms: N_5  and  C_17
REMARK                            x       y       z     vdW  Elec       q    Type
REMARK                         _______ _______ _______ _____ _____    ______ ____
ROOT
ATOM      2  O   UNL     1      -5.609 -10.371  17.317  0.00  0.00    -0.252 OA
ATOM      3  N   UNL     1      -5.678 -10.229  12.260  0.00  0.00    -0.296 NA
ATOM      4  N   UNL     1      -6.015 -10.582  15.031  0.00  0.00    -0.278 N 
ATOM      5  N   UNL     1      -7.816 -10.392  16.390  0.00  0.00    -0.254 N 
ATOM      6  C   UNL     1      -7.143 -10.781  14.158  0.00  0.00    +0.109 C 
ATOM      7  C   UNL     1      -6.989  -9.953  12.882  0.00  0.00    +0.108 C 
ATOM      9  C   UNL     1      -4.577  -9.887  13.183  0.00  0.00    +0.104 C 
ATOM     10  C   UNL     1      -4.674 -10.681  14.488  0.00  0.00    +0.125 C 
ATOM     11  C   UNL     1      -8.337 -10.403  15.028  0.00  0.00    +0.139 C 
ATOM     14  C   UNL     1      -6.391 -10.445  16.377  0.00  0.00    +0.309 C 
ENDROOT
BRANCH   3   8
ATOM      1  O   UNL     1      -4.879  -9.480   8.208  0.00  0.00    -0.380 OA
ATOM      8  C   UNL     1      -5.543  -9.487  11.009  0.00  0.00    +0.061 C 
ATOM     12  C   UNL     1      -4.097  -9.549  10.507  0.00  0.00    +0.047 C 
ATOM     13  C   UNL     1      -6.492 -10.035   9.939  0.00  0.00    +0.047 C 
ATOM     15  C   UNL     1      -3.981  -8.882   9.142  0.00  0.00    +0.161 C 
ATOM     16  C   UNL     1      -6.243  -9.341   8.604  0.00  0.00    +0.161 C 
ENDBRANCH   3   8
BRANCH   5  17
ATOM     17  C   UNL     1      -8.660 -10.260  17.531  0.00  0.00    +0.038 A 
ATOM     18  C   UNL     1      -8.255 -10.775  18.762  0.00  0.00    +0.023 A 
ATOM     19  C   UNL     1      -9.893  -9.617  17.414  0.00  0.00    +0.023 A 
ATOM     20  C   UNL     1      -9.082 -10.645  19.878  0.00  0.00    +0.002 A 
ATOM     21  C   UNL     1     -10.720  -9.489  18.530  0.00  0.00    +0.002 A 
ATOM     22  C   UNL     1     -10.314 -10.002  19.762  0.00  0.00    +0.000 A 
ENDBRANCH   5  17
TORSDOF 2
ENDMDL
MODEL 4
REMARK VINA RESULT:      -2.6      1.262      1.995
REMARK  Name = 86769014
REMARK  2 active torsions:
REMARK  status: ('A' for Active; 'I' for Inactive)
REMARK    1  A    between atoms: N_3  and  C_8
REMARK    2  A    between atoms: N_5  and  C_17
REMARK                            x       y       z     vdW  Elec       q    Type
REMARK                         _______ _______ _______ _____ _____    ______ ____
ROOT
ATOM      2  O   UNL     1      16.960  -5.129  22.988  0.00  0.00    -0.252 OA
ATOM      3  N   UNL     1      16.552  -7.832  27.245  0.00  0.00    -0.296 NA
ATOM      4  N   UNL     1      17.093  -6.077  25.114  0.00  0.00    -0.278 N 
ATOM      5  N   UNL     1      17.193  -3.819  24.979  0.00  0.00    -0.254 N 
ATOM      6  C   UNL     1      17.377  -5.652  26.460  0.00  0.00    +0.109 C 
ATOM      7  C   UNL     1      16.468  -6.373  27.455  0.00  0.00    +0.108 C 
ATOM      9  C   UNL     1      16.132  -8.190  25.875  0.00  0.00    +0.104 C 
ATOM     10  C   UNL     1      17.002  -7.495  24.825  0.00  0.00    +0.125 C 
ATOM     11  C   UNL     1      17.192  -4.139  26.401  0.00  0.00    +0.139 C 
ATOM     14  C   UNL     1      17.075  -5.010  24.201  0.00  0.00    +0.309 C 
ENDROOT
BRANCH   3   8
ATOM      1  O   UNL     1      15.581 -10.176  30.590  0.00  0.00    -0.380 OA
ATOM      8  C   UNL     1      15.732  -8.536  28.229  0.00  0.00    +0.061 C 
ATOM     12  C   UNL     1      16.046 -10.035  28.209  0.00  0.00    +0.047 C 
ATOM     13  C   UNL     1      15.957  -7.972  29.636  0.00  0.00    +0.047 C 
ATOM     15  C   UNL     1      15.284 -10.751  29.317  0.00  0.00    +0.161 C 
ATOM     16  C   UNL     1      15.198  -8.803  30.666  0.00  0.00    +0.161 C 
ENDBRANCH   3   8
BRANCH   5  17
ATOM     17  C   UNL     1      17.225  -2.479  24.496  0.00  0.00    +0.038 A 
ATOM     18  C   UNL     1      17.193  -1.413  25.395  0.00  0.00    +0.023 A 
ATOM     19  C   UNL     1      17.286  -2.234  23.125  0.00  0.00    +0.023 A 
ATOM     20  C   UNL     1      17.224  -0.100  24.922  0.00  0.00    +0.002 A 
ATOM     21  C   UNL     1      17.316  -0.921  22.652  0.00  0.00    +0.002 A 
ATOM     22  C   UNL     1      17.286   0.145  23.550  0.00  0.00    +0.000 A 
ENDBRANCH   5  17
TORSDOF 2
ENDMDL
MODEL 5
REMARK VINA RESULT:      -2.5     18.152     19.353
REMARK  Name = 86769014
REMARK  2 active torsions:
REMARK  status: ('A' for Active; 'I' for Inactive)
REMARK    1  A    between atoms: N_3  and  C_8
REMARK    2  A    between atoms: N_5  and  C_17
REMARK                            x       y       z     vdW  Elec       q    Type
REMARK                         _______ _______ _______ _____ _____    ______ ____
ROOT
ATOM      2  O   UNL     1      -2.798  -0.696  25.933  0.00  0.00    -0.252 OA
ATOM      3  N   UNL     1       1.313  -0.639  22.983  0.00  0.00    -0.296 NA
ATOM      4  N   UNL     1      -1.192  -0.485  24.255  0.00  0.00    -0.278 N 
ATOM      5  N   UNL     1      -2.706   1.186  24.455  0.00  0.00    -0.254 N 
ATOM      6  C   UNL     1      -0.923   0.376  23.133  0.00  0.00    +0.109 C 
ATOM      7  C   UNL     1       0.577   0.641  23.005  0.00  0.00    +0.108 C 
ATOM      9  C   UNL     1       1.071  -1.404  24.224  0.00  0.00    +0.104 C 
ATOM     10  C   UNL     1      -0.418  -1.701  24.415  0.00  0.00    +0.125 C 
ATOM     11  C   UNL     1      -1.771   1.610  23.420  0.00  0.00    +0.139 C 
ATOM     14  C   UNL     1      -2.309  -0.072  24.998  0.00  0.00    +0.309 C 
ENDROOT
BRANCH   3   8
ATOM      1  O   UNL     1       5.230   0.584  23.866  0.00  0.00    -0.380 OA
ATOM      8  C   UNL     1       2.743  -0.401  22.803  0.00  0.00    +0.061 C 
ATOM     12  C   UNL     1       3.052   1.096  22.918  0.00  0.00    +0.047 C 
ATOM     13  C   UNL     1       3.565  -1.186  23.831  0.00  0.00    +0.047 C 
ATOM     15  C   UNL     1       4.556   1.332  22.854  0.00  0.00    +0.161 C 
ATOM     16  C   UNL     1       5.042  -0.823  23.716  0.00  0.00    +0.161 C 
ENDBRANCH   3   8
BRANCH   5  17
ATOM     17  C   UNL     1      -3.797   1.999  24.879  0.00  0.00    +0.038 A 
ATOM     18  C   UNL     1      -3.594   3.350  25.159  0.00  0.00    +0.023 A 
ATOM     19  C   UNL     1      -5.069   1.441  25.016  0.00  0.00    +0.023 A 
ATOM     20  C   UNL     1      -4.664   4.144  25.574  0.00  0.00    +0.002 A 
ATOM     21  C   UNL     1      -6.137   2.236  25.432  0.00  0.00    +0.002 A 
ATOM     22  C   UNL     1      -5.935   3.587  25.710  0.00  0.00    +0.000 A 
ENDBRANCH   5  17
TORSDOF 2
ENDMDL
MODEL 6
REMARK VINA RESULT:      -2.2      1.550      2.135
REMARK  Name = 86769014
REMARK  2 active torsions:
REMARK  status: ('A' for Active; 'I' for Inactive)
REMARK    1  A    between atoms: N_3  and  C_8
REMARK    2  A    between atoms: N_5  and  C_17
REMARK                            x       y       z     vdW  Elec       q    Type
REMARK                         _______ _______ _______ _____ _____    ______ ____
ROOT
ATOM      2  O   UNL     1      15.964  -7.134  24.660  0.00  0.00    -0.252 OA
ATOM      3  N   UNL     1      16.620  -9.381  29.146  0.00  0.00    -0.296 NA
ATOM      4  N   UNL     1      16.655  -7.911  26.746  0.00  0.00    -0.278 N 
ATOM      5  N   UNL     1      16.970  -5.713  26.303  0.00  0.00    -0.254 N 
ATOM      6  C   UNL     1      17.400  -7.422  27.878  0.00  0.00    +0.109 C 
ATOM      7  C   UNL     1      16.778  -7.913  29.185  0.00  0.00    +0.108 C 
ATOM      9  C   UNL     1      15.747  -9.784  28.024  0.00  0.00    +0.104 C 
ATOM     10  C   UNL     1      16.312  -9.318  26.680  0.00  0.00    +0.125 C 
ATOM     11  C   UNL     1      17.384  -5.909  27.687  0.00  0.00    +0.139 C 
ATOM     14  C   UNL     1      16.473  -6.933  25.755  0.00  0.00    +0.309 C 
ENDROOT
BRANCH   3   8
ATOM      1  O   UNL     1      14.362  -9.448  32.683  0.00  0.00    -0.380 OA
ATOM      8  C   UNL     1      16.080  -9.868  30.412  0.00  0.00    +0.061 C 
ATOM     12  C   UNL     1      16.443  -8.909  31.550  0.00  0.00    +0.047 C 
ATOM     13  C   UNL     1      14.559 -10.036  30.334  0.00  0.00    +0.047 C 
ATOM     15  C   UNL     1      15.777  -9.350  32.848  0.00  0.00    +0.161 C 
ATOM     16  C   UNL     1      13.997 -10.416  31.699  0.00  0.00    +0.161 C 
ENDBRANCH   3   8
BRANCH   5  17
ATOM     17  C   UNL     1      17.002  -4.438  25.668  0.00  0.00    +0.038 A 
ATOM     18  C   UNL     1      17.307  -3.297  26.411  0.00  0.00    +0.023 A 
ATOM     19  C   UNL     1      16.728  -4.331  24.305  0.00  0.00    +0.023 A 
ATOM     20  C   UNL     1      17.338  -2.048  25.788  0.00  0.00    +0.002 A 
ATOM     21  C   UNL     1      16.759  -3.082  23.684  0.00  0.00    +0.002 A 
ATOM     22  C   UNL     1      17.064  -1.941  24.425  0.00  0.00    +0.000 A 
ENDBRANCH   5  17
TORSDOF 2
ENDMDL
