MODEL 1
REMARK VINA RESULT:       9.6      0.000      0.000
REMARK  Name = 11912204
REMARK  8 active torsions:
REMARK  status: ('A' for Active; 'I' for Inactive)
REMARK    1  A    between atoms: S_1  and  C_25
REMARK    2  A    between atoms: S_1  and  C_27
REMARK    3  A    between atoms: O_8  and  C_34
REMARK    4  A    between atoms: O_8  and  C_38
REMARK    5  A    between atoms: N_11  and  C_18
REMARK    6  A    between atoms: C_13  and  C_17
REMARK    7  A    between atoms: C_20  and  C_25
REMARK    8  A    between atoms: C_22  and  C_26
REMARK                            x       y       z     vdW  Elec       q    Type
REMARK                         _______ _______ _______ _____ _____    ______ ____
ROOT
ATOM      3  O   UNL     1      -0.887   5.380  25.629  0.00  0.00    -0.274 OA
ATOM      4  O   UNL     1       0.742  -0.397  21.669  0.00  0.00    -0.270 OA
ATOM      9  N   UNL     1       0.546   1.401  23.157  0.00  0.00    -0.283 N 
ATOM     10  N   UNL     1      -0.717   3.846  23.894  0.00  0.00    -0.296 N 
ATOM     13  C   UNL     1      -0.884   1.589  22.883  0.00  0.00    +0.179 C 
ATOM     14  C   UNL     1      -1.302   3.057  22.806  0.00  0.00    +0.139 C 
ATOM     15  C   UNL     1       1.141   2.270  24.188  0.00  0.00    +0.128 C 
ATOM     16  C   UNL     1       0.735   3.726  24.005  0.00  0.00    +0.127 C 
ATOM     20  C   UNL     1      -1.416   4.694  24.750  0.00  0.00    +0.237 C 
ATOM     22  C   UNL     1       1.216   0.341  22.531  0.00  0.00    +0.247 C 
ENDROOT
BRANCH  22  26
ATOM     26  C   UNL     1       2.602   0.059  22.932  0.00  0.00    +0.037 A 
ATOM     28  C   UNL     1       3.590   1.020  22.729  0.00  0.00    +0.016 A 
ATOM     29  C   UNL     1       2.919  -1.165  23.513  0.00  0.00    +0.016 A 
ATOM     30  C   UNL     1       4.905   0.752  23.109  0.00  0.00    +0.046 A 
ATOM     31  C   UNL     1       4.235  -1.432  23.894  0.00  0.00    +0.046 A 
ATOM     34  C   UNL     1       5.227  -0.473  23.692  0.00  0.00    +0.120 A 
BRANCH  34   8
ATOM      8  O   UNL     1       6.511  -0.734  24.063  0.00  0.00    -0.495 OA
ATOM     38  C   UNL     1       7.533  -0.448  23.109  0.00  0.00    +0.277 C 
ENDBRANCH  34   8
ENDBRANCH  22  26
BRANCH  13  17
ATOM      2  O   UNL     1      -1.648   1.277  25.124  0.00  0.00    -0.274 OA
ATOM     11  N   UNL     1      -2.214  -0.303  23.512  0.00  0.00    -0.302 N 
ATOM     17  C   UNL     1      -1.620   0.860  23.969  0.00  0.00    +0.236 C 
ATOM     39  H   UNL     1      -2.099  -0.571  22.539  0.00  0.00    +0.150 HD
BRANCH  11  18
ATOM      5  O   UNL     1      -0.830  -1.862  25.280  0.00  0.00    -0.274 OA
ATOM     12  N   UNL     1      -2.490  -3.431  25.287  0.00  0.00    -0.314 N 
ATOM     18  C   UNL     1      -2.960  -1.194  24.361  0.00  0.00    +0.159 C 
ATOM     19  C   UNL     1      -4.108  -1.838  23.596  0.00  0.00    +0.033 C 
ATOM     21  C   UNL     1      -4.766  -2.899  24.463  0.00  0.00    +0.021 C 
ATOM     23  C   UNL     1      -3.745  -3.971  24.797  0.00  0.00    +0.104 C 
ATOM     24  C   UNL     1      -1.980  -2.186  24.978  0.00  0.00    +0.233 C 
ATOM     40  H   UNL     1      -1.862  -4.081  25.750  0.00  0.00    +0.149 HD
ENDBRANCH  11  18
ENDBRANCH  13  17
BRANCH  20  25
ATOM     25  C   UNL     1      -2.911   4.753  24.567  0.00  0.00    +0.267 C 
BRANCH  25   1
ATOM      1  S   UNL     1      -3.691   4.287  26.066  0.00  0.00    +0.005 S 
ATOM      6  O   UNL     1      -4.544   5.377  26.523  0.00  0.00    -0.169 OA
ATOM      7  O   UNL     1      -2.676   3.742  26.959  0.00  0.00    -0.169 OA
BRANCH   1  27
ATOM     27  C   UNL     1      -4.769   2.958  25.608  0.00  0.00    +0.089 A 
ATOM     32  C   UNL     1      -5.705   2.508  26.521  0.00  0.00    +0.027 A 
ATOM     33  C   UNL     1      -4.652   2.401  24.349  0.00  0.00    +0.027 A 
ATOM     35  C   UNL     1      -6.554   1.461  26.160  0.00  0.00    +0.002 A 
ATOM     36  C   UNL     1      -5.501   1.354  23.989  0.00  0.00    +0.002 A 
ATOM     37  C   UNL     1      -6.452   0.885  24.894  0.00  0.00    +0.000 A 
ENDBRANCH   1  27
ENDBRANCH  25   1
ENDBRANCH  20  25
TORSDOF 7
ENDMDL
