MODEL 1
REMARK VINA RESULT:       8.8      0.000      0.000
REMARK  Name = 11911745
REMARK  7 active torsions:
REMARK  status: ('A' for Active; 'I' for Inactive)
REMARK    1  A    between atoms: N_5  and  C_12
REMARK    2  A    between atoms: N_6  and  C_13
REMARK    3  A    between atoms: N_9  and  C_26
REMARK    4  A    between atoms: N_9  and  C_29
REMARK    5  A    between atoms: N_9  and  C_30
REMARK    6  A    between atoms: C_16  and  C_18
REMARK    7  A    between atoms: C_21  and  C_27
REMARK                            x       y       z     vdW  Elec       q    Type
REMARK                         _______ _______ _______ _____ _____    ______ ____
ROOT
ATOM      2  O   UNL     1      -2.657  -1.252  26.115  0.00  0.00    -0.370 OA
ATOM      3  O   UNL     1      -3.996  -1.222  23.296  0.00  0.00    -0.370 OA
ATOM     10  C   UNL     1      -2.704  -0.815  23.777  0.00  0.00    +0.171 C 
ATOM     11  C   UNL     1      -2.904  -0.212  25.154  0.00  0.00    +0.171 C 
ATOM     12  C   UNL     1      -1.832  -2.024  24.029  0.00  0.00    +0.130 C 
ATOM     13  C   UNL     1      -4.361   0.187  25.175  0.00  0.00    +0.130 C 
ATOM     14  C   UNL     1      -2.254  -2.444  25.425  0.00  0.00    +0.185 C 
ATOM     15  C   UNL     1      -4.998  -0.833  24.247  0.00  0.00    +0.185 C 
ENDROOT
BRANCH  13   6
ATOM      6  N   UNL     1      -4.517   1.520  24.635  0.00  0.00    -0.306 N 
ATOM      7  N   UNL     1      -2.567   2.292  25.686  0.00  0.00    -0.214 NA
ATOM      8  N   UNL     1      -3.898   3.759  24.314  0.00  0.00    -0.223 NA
ATOM     17  C   UNL     1      -3.634   2.555  24.886  0.00  0.00    +0.216 A 
ATOM     21  C   UNL     1      -1.727   3.324  25.907  0.00  0.00    +0.083 A 
ATOM     22  C   UNL     1      -3.017   4.746  24.579  0.00  0.00    +0.116 A 
ATOM     23  C   UNL     1      -1.903   4.585  25.376  0.00  0.00    +0.049 A 
ATOM     34  H   UNL     1      -5.280   1.712  23.996  0.00  0.00    +0.149 HD
BRANCH  21  27
ATOM      1  S   UNL     1       0.936   2.778  26.048  0.00  0.00    -0.095 S 
ATOM     27  C   UNL     1      -0.607   3.017  26.757  0.00  0.00    +0.038 A 
ATOM     28  C   UNL     1      -0.566   2.872  28.130  0.00  0.00    +0.017 A 
ATOM     31  C   UNL     1       0.743   2.564  28.601  0.00  0.00    +0.008 A 
ATOM     32  C   UNL     1       1.657   2.484  27.574  0.00  0.00    +0.046 A 
ENDBRANCH  21  27
ENDBRANCH  13   6
BRANCH  12   5
ATOM      4  O   UNL     1      -0.664   0.235  22.696  0.00  0.00    -0.270 OA
ATOM      5  N   UNL     1      -0.432  -1.677  23.987  0.00  0.00    -0.304 N 
ATOM     16  C   UNL     1       0.040  -0.560  23.314  0.00  0.00    +0.244 C 
ATOM     33  H   UNL     1       0.219  -2.351  24.379  0.00  0.00    +0.149 HD
BRANCH  16  18
ATOM     18  C   UNL     1       1.511  -0.357  23.344  0.00  0.00    +0.037 A 
ATOM     19  C   UNL     1       2.322  -1.414  23.702  0.00  0.00    +0.015 A 
ATOM     20  C   UNL     1       2.020   0.881  23.011  0.00  0.00    +0.015 A 
ATOM     24  C   UNL     1       3.704  -1.224  23.728  0.00  0.00    +0.024 A 
ATOM     25  C   UNL     1       3.401   1.072  23.038  0.00  0.00    +0.024 A 
ATOM     26  C   UNL     1       4.243   0.019  23.397  0.00  0.00    +0.029 A 
BRANCH  26   9
ATOM      9  N   UNL     1       5.640   0.212  23.422  0.00  0.00    -0.336 N 
ATOM     29  C   UNL     1       6.514  -0.658  22.661  0.00  0.00    +0.129 C 
ATOM     30  C   UNL     1       6.221   1.274  24.220  0.00  0.00    +0.129 C 
ENDBRANCH  26   9
ENDBRANCH  16  18
ENDBRANCH  12   5
TORSDOF 5
ENDMDL
MODEL 2
REMARK VINA RESULT:       9.7      1.740      2.343
REMARK  Name = 11911745
REMARK  7 active torsions:
REMARK  status: ('A' for Active; 'I' for Inactive)
REMARK    1  A    between atoms: N_5  and  C_12
REMARK    2  A    between atoms: N_6  and  C_13
REMARK    3  A    between atoms: N_9  and  C_26
REMARK    4  A    between atoms: N_9  and  C_29
REMARK    5  A    between atoms: N_9  and  C_30
REMARK    6  A    between atoms: C_16  and  C_18
REMARK    7  A    between atoms: C_21  and  C_27
REMARK                            x       y       z     vdW  Elec       q    Type
REMARK                         _______ _______ _______ _____ _____    ______ ____
ROOT
ATOM      2  O   UNL     1      -4.319  -0.110  26.269  0.00  0.00    -0.370 OA
ATOM      3  O   UNL     1      -5.965   0.916  23.824  0.00  0.00    -0.370 OA
ATOM     10  C   UNL     1      -4.567   0.960  24.159  0.00  0.00    +0.171 C 
ATOM     11  C   UNL     1      -4.468   1.182  25.656  0.00  0.00    +0.171 C 
ATOM     12  C   UNL     1      -3.933  -0.396  23.946  0.00  0.00    +0.130 C 
ATOM     13  C   UNL     1      -5.801   1.788  26.028  0.00  0.00    +0.130 C 
ATOM     14  C   UNL     1      -4.254  -1.112  25.245  0.00  0.00    +0.185 C 
ATOM     15  C   UNL     1      -6.741   1.182  25.001  0.00  0.00    +0.185 C 
ENDROOT
BRANCH  13   6
ATOM      6  N   UNL     1      -5.751   3.226  25.873  0.00  0.00    -0.306 N 
ATOM      7  N   UNL     1      -3.417   3.229  25.636  0.00  0.00    -0.214 NA
ATOM      8  N   UNL     1      -4.674   5.284  25.547  0.00  0.00    -0.223 NA
ATOM     17  C   UNL     1      -4.579   3.935  25.680  0.00  0.00    +0.216 A 
ATOM     21  C   UNL     1      -2.294   3.953  25.445  0.00  0.00    +0.083 A 
ATOM     22  C   UNL     1      -3.512   5.943  25.359  0.00  0.00    +0.116 A 
ATOM     23  C   UNL     1      -2.280   5.324  25.299  0.00  0.00    +0.049 A 
ATOM     34  H   UNL     1      -6.616   3.754  25.852  0.00  0.00    +0.149 HD
BRANCH  21  27
ATOM      1  S   UNL     1      -0.175   3.129  23.948  0.00  0.00    -0.095 S 
ATOM     27  C   UNL     1      -1.081   3.180  25.403  0.00  0.00    +0.038 A 
ATOM     28  C   UNL     1      -0.490   2.428  26.399  0.00  0.00    +0.017 A 
ATOM     31  C   UNL     1       0.716   1.807  25.962  0.00  0.00    +0.008 A 
ATOM     32  C   UNL     1       1.004   2.105  24.650  0.00  0.00    +0.046 A 
ENDBRANCH  21  27
ENDBRANCH  13   6
BRANCH  12   5
ATOM      4  O   UNL     1      -1.994  -2.502  24.176  0.00  0.00    -0.270 OA
ATOM      5  N   UNL     1      -2.508  -0.281  23.750  0.00  0.00    -0.304 N 
ATOM     16  C   UNL     1      -1.647  -1.360  23.883  0.00  0.00    +0.244 C 
ATOM     33  H   UNL     1      -2.138   0.655  23.619  0.00  0.00    +0.149 HD
BRANCH  16  18
ATOM     18  C   UNL     1      -0.205  -1.071  23.674  0.00  0.00    +0.037 A 
ATOM     19  C   UNL     1       0.168  -0.282  22.605  0.00  0.00    +0.015 A 
ATOM     20  C   UNL     1       0.715  -1.598  24.556  0.00  0.00    +0.015 A 
ATOM     24  C   UNL     1       1.522  -0.009  22.410  0.00  0.00    +0.024 A 
ATOM     25  C   UNL     1       2.069  -1.325  24.361  0.00  0.00    +0.024 A 
ATOM     26  C   UNL     1       2.472  -0.531  23.287  0.00  0.00    +0.029 A 
BRANCH  26   9
ATOM      9  N   UNL     1       3.841  -0.254  23.091  0.00  0.00    -0.336 N 
ATOM     29  C   UNL     1       4.854  -1.093  23.699  0.00  0.00    +0.129 C 
ATOM     30  C   UNL     1       4.252   0.882  22.289  0.00  0.00    +0.129 C 
ENDBRANCH  26   9
ENDBRANCH  16  18
ENDBRANCH  12   5
TORSDOF 5
ENDMDL
