MODEL 1
REMARK VINA RESULT:      -4.6      0.000      0.000
REMARK  Name = 26745329
REMARK  4 active torsions:
REMARK  status: ('A' for Active; 'I' for Inactive)
REMARK    1  A    between atoms: N_3  and  C_19
REMARK    2  A    between atoms: N_4  and  C_7
REMARK    3  A    between atoms: C_10  and  C_15
REMARK    4  A    between atoms: C_19  and  C_20
REMARK                            x       y       z     vdW  Elec       q    Type
REMARK                         _______ _______ _______ _____ _____    ______ ____
ROOT
ATOM      3  N   UNL     1      -0.022   1.052  23.589  0.00  0.00    -0.281 NA
ATOM      5  N   UNL     1      -3.074   3.194  23.644  0.00  0.00    -0.347 N 
ATOM      6  N   UNL     1      -2.404   3.723  25.710  0.00  0.00    -0.240 NA
ATOM     10  C   UNL     1       0.039   0.866  25.060  0.00  0.00    +0.150 C 
ATOM     14  C   UNL     1      -0.441   2.116  25.852  0.00  0.00    +0.085 C 
ATOM     16  C   UNL     1      -1.365   1.377  23.058  0.00  0.00    +0.140 C 
ATOM     17  C   UNL     1      -1.606   2.746  25.185  0.00  0.00    +0.065 A 
ATOM     18  C   UNL     1      -1.996   2.408  23.913  0.00  0.00    +0.053 A 
ATOM     21  C   UNL     1      -3.281   3.970  24.757  0.00  0.00    +0.197 A 
ATOM     28  H   UNL     1      -3.621   3.206  22.794  0.00  0.00    +0.167 HD
ENDROOT
BRANCH  10  15
ATOM      2  O   UNL     1      -0.247  -1.457  25.552  0.00  0.00    -0.274 OA
ATOM      4  N   UNL     1      -2.090  -0.041  25.691  0.00  0.00    -0.311 N 
ATOM     15  C   UNL     1      -0.757  -0.343  25.465  0.00  0.00    +0.231 C 
ATOM     27  H   UNL     1      -2.406   0.918  25.584  0.00  0.00    +0.149 HD
BRANCH   4   7
ATOM      7  C   UNL     1      -3.073  -1.031  26.070  0.00  0.00    +0.073 C 
ATOM      8  C   UNL     1      -4.478  -0.611  25.627  0.00  0.00    +0.022 C 
ATOM      9  C   UNL     1      -2.705  -2.412  25.514  0.00  0.00    +0.022 C 
ATOM     11  C   UNL     1      -4.667  -0.704  24.113  0.00  0.00    +0.002 C 
ATOM     12  C   UNL     1      -2.898  -2.503  24.000  0.00  0.00    +0.002 C 
ATOM     13  C   UNL     1      -4.306  -2.090  23.585  0.00  0.00    +0.000 C 
ENDBRANCH   4   7
ENDBRANCH  10  15
BRANCH   3  19
ATOM     19  C   UNL     1       0.596  -0.040  22.841  0.00  0.00    +0.120 C 
BRANCH  19  20
ATOM      1 CL   UNL     1       6.579  -0.079  23.470  0.00  0.00    -0.084 Cl
ATOM     20  C   UNL     1       2.094  -0.050  22.998  0.00  0.00    -0.033 A 
ATOM     22  C   UNL     1       2.839   1.072  22.639  0.00  0.00    +0.006 A 
ATOM     23  C   UNL     1       2.734  -1.182  23.503  0.00  0.00    +0.006 A 
ATOM     24  C   UNL     1       4.227   1.062  22.784  0.00  0.00    +0.020 A 
ATOM     25  C   UNL     1       4.121  -1.192  23.647  0.00  0.00    +0.020 A 
ATOM     26  C   UNL     1       4.867  -0.070  23.289  0.00  0.00    +0.041 A 
ENDBRANCH  19  20
ENDBRANCH   3  19
TORSDOF 4
ENDMDL
MODEL 2
REMARK VINA RESULT:      -3.5      3.007      5.833
REMARK  Name = 26745329
REMARK  4 active torsions:
REMARK  status: ('A' for Active; 'I' for Inactive)
REMARK    1  A    between atoms: N_3  and  C_19
REMARK    2  A    between atoms: N_4  and  C_7
REMARK    3  A    between atoms: C_10  and  C_15
REMARK    4  A    between atoms: C_19  and  C_20
REMARK                            x       y       z     vdW  Elec       q    Type
REMARK                         _______ _______ _______ _____ _____    ______ ____
ROOT
ATOM      3  N   UNL     1      -0.712   0.319  25.526  0.00  0.00    -0.281 NA
ATOM      5  N   UNL     1       1.376  -0.511  22.550  0.00  0.00    -0.347 N 
ATOM      6  N   UNL     1       2.476   1.366  23.067  0.00  0.00    -0.240 NA
ATOM     10  C   UNL     1      -0.464   1.781  25.462  0.00  0.00    +0.150 C 
ATOM     14  C   UNL     1       0.965   2.135  24.960  0.00  0.00    +0.085 C 
ATOM     16  C   UNL     1      -0.545  -0.398  24.241  0.00  0.00    +0.140 C 
ATOM     17  C   UNL     1       1.384   1.215  23.873  0.00  0.00    +0.065 A 
ATOM     18  C   UNL     1       0.694   0.066  23.577  0.00  0.00    +0.053 A 
ATOM     21  C   UNL     1       2.443   0.309  22.279  0.00  0.00    +0.197 A 
ATOM     28  H   UNL     1       1.146  -1.373  22.074  0.00  0.00    +0.167 HD
ENDROOT
BRANCH  10  15
ATOM      2  O   UNL     1      -1.458   2.380  23.371  0.00  0.00    -0.274 OA
ATOM      4  N   UNL     1      -2.444   3.130  25.342  0.00  0.00    -0.311 N 
ATOM     15  C   UNL     1      -1.498   2.446  24.596  0.00  0.00    +0.231 C 
ATOM     27  H   UNL     1      -2.378   3.122  26.354  0.00  0.00    +0.149 HD
BRANCH   4   7
ATOM      7  C   UNL     1      -3.533   3.872  24.748  0.00  0.00    +0.073 C 
ATOM      8  C   UNL     1      -4.117   3.126  23.544  0.00  0.00    +0.022 C 
ATOM      9  C   UNL     1      -4.618   4.185  25.786  0.00  0.00    +0.022 C 
ATOM     11  C   UNL     1      -4.914   1.887  23.953  0.00  0.00    +0.002 C 
ATOM     12  C   UNL     1      -5.414   2.944  26.191  0.00  0.00    +0.002 C 
ATOM     13  C   UNL     1      -5.993   2.225  24.978  0.00  0.00    +0.000 C 
ENDBRANCH   4   7
ENDBRANCH  10  15
BRANCH   3  19
ATOM     19  C   UNL     1      -1.978  -0.026  26.167  0.00  0.00    +0.120 C 
BRANCH  19  20
ATOM      1 CL   UNL     1      -5.212  -3.844  22.828  0.00  0.00    -0.084 Cl
ATOM     20  C   UNL     1      -2.788  -0.982  25.332  0.00  0.00    -0.033 A 
ATOM     22  C   UNL     1      -3.652  -0.492  24.354  0.00  0.00    +0.006 A 
ATOM     23  C   UNL     1      -2.672  -2.357  25.536  0.00  0.00    +0.006 A 
ATOM     24  C   UNL     1      -4.403  -1.378  23.580  0.00  0.00    +0.020 A 
ATOM     25  C   UNL     1      -3.423  -3.242  24.763  0.00  0.00    +0.020 A 
ATOM     26  C   UNL     1      -4.287  -2.752  23.785  0.00  0.00    +0.041 A 
ENDBRANCH  19  20
ENDBRANCH   3  19
TORSDOF 4
ENDMDL
MODEL 3
REMARK VINA RESULT:      -3.1     16.081     18.364
REMARK  Name = 26745329
REMARK  4 active torsions:
REMARK  status: ('A' for Active; 'I' for Inactive)
REMARK    1  A    between atoms: N_3  and  C_19
REMARK    2  A    between atoms: N_4  and  C_7
REMARK    3  A    between atoms: C_10  and  C_15
REMARK    4  A    between atoms: C_19  and  C_20
REMARK                            x       y       z     vdW  Elec       q    Type
REMARK                         _______ _______ _______ _____ _____    ______ ____
ROOT
ATOM      3  N   UNL     1      16.151  -5.538  30.501  0.00  0.00    -0.281 NA
ATOM      5  N   UNL     1      12.423  -5.581  30.566  0.00  0.00    -0.347 N 
ATOM      6  N   UNL     1      12.666  -4.906  32.683  0.00  0.00    -0.240 NA
ATOM     10  C   UNL     1      16.314  -5.756  31.960  0.00  0.00    +0.150 C 
ATOM     14  C   UNL     1      15.198  -5.077  32.805  0.00  0.00    +0.085 C 
ATOM     16  C   UNL     1      14.868  -6.019  29.939  0.00  0.00    +0.140 C 
ATOM     17  C   UNL     1      13.882  -5.197  32.132  0.00  0.00    +0.065 A 
ATOM     18  C   UNL     1      13.758  -5.610  30.829  0.00  0.00    +0.053 A 
ATOM     21  C   UNL     1      11.806  -5.149  31.714  0.00  0.00    +0.197 A 
ATOM     28  H   UNL     1      11.968  -5.830  29.698  0.00  0.00    +0.167 HD
ENDROOT
BRANCH  10  15
ATOM      2  O   UNL     1      17.405  -7.770  32.645  0.00  0.00    -0.274 OA
ATOM      4  N   UNL     1      15.159  -7.857  32.038  0.00  0.00    -0.311 N 
ATOM     15  C   UNL     1      16.373  -7.227  32.263  0.00  0.00    +0.231 C 
ATOM     27  H   UNL     1      14.369  -7.309  31.717  0.00  0.00    +0.149 HD
BRANCH   4   7
ATOM      7  C   UNL     1      14.956  -9.275  32.233  0.00  0.00    +0.073 C 
ATOM      8  C   UNL     1      13.573  -9.557  32.828  0.00  0.00    +0.022 C 
ATOM      9  C   UNL     1      15.165 -10.046  30.924  0.00  0.00    +0.022 C 
ATOM     11  C   UNL     1      12.445  -9.325  31.823  0.00  0.00    +0.002 C 
ATOM     12  C   UNL     1      14.034  -9.813  29.922  0.00  0.00    +0.002 C 
ATOM     13  C   UNL     1      12.669 -10.111  30.534  0.00  0.00    +0.000 C 
ENDBRANCH   4   7
ENDBRANCH  10  15
BRANCH   3  19
ATOM     19  C   UNL     1      17.287  -6.012  29.715  0.00  0.00    +0.120 C 
BRANCH  19  20
ATOM      1 CL   UNL     1      16.876  -4.338  23.951  0.00  0.00    -0.084 Cl
ATOM     20  C   UNL     1      17.185  -5.593  28.272  0.00  0.00    -0.033 A 
ATOM     22  C   UNL     1      16.869  -6.535  27.294  0.00  0.00    +0.006 A 
ATOM     23  C   UNL     1      17.405  -4.263  27.915  0.00  0.00    +0.006 A 
ATOM     24  C   UNL     1      16.774  -6.146  25.957  0.00  0.00    +0.020 A 
ATOM     25  C   UNL     1      17.311  -3.874  26.579  0.00  0.00    +0.020 A 
ATOM     26  C   UNL     1      16.995  -4.816  25.600  0.00  0.00    +0.041 A 
ENDBRANCH  19  20
ENDBRANCH   3  19
TORSDOF 4
ENDMDL
MODEL 4
REMARK VINA RESULT:      -3.0     16.760     18.814
REMARK  Name = 26745329
REMARK  4 active torsions:
REMARK  status: ('A' for Active; 'I' for Inactive)
REMARK    1  A    between atoms: N_3  and  C_19
REMARK    2  A    between atoms: N_4  and  C_7
REMARK    3  A    between atoms: C_10  and  C_15
REMARK    4  A    between atoms: C_19  and  C_20
REMARK                            x       y       z     vdW  Elec       q    Type
REMARK                         _______ _______ _______ _____ _____    ______ ____
ROOT
ATOM      3  N   UNL     1      14.974  -6.599  31.311  0.00  0.00    -0.281 NA
ATOM      5  N   UNL     1      11.339  -7.430  31.221  0.00  0.00    -0.347 N 
ATOM      6  N   UNL     1      11.843  -8.851  32.872  0.00  0.00    -0.240 NA
ATOM     10  C   UNL     1      15.399  -7.913  31.858  0.00  0.00    +0.150 C 
ATOM     14  C   UNL     1      14.362  -8.526  32.843  0.00  0.00    +0.085 C 
ATOM     16  C   UNL     1      13.683  -6.617  30.584  0.00  0.00    +0.140 C 
ATOM     17  C   UNL     1      12.978  -8.279  32.372  0.00  0.00    +0.065 A 
ATOM     18  C   UNL     1      12.693  -7.398  31.358  0.00  0.00    +0.053 A 
ATOM     21  C   UNL     1      10.871  -8.320  32.155  0.00  0.00    +0.197 A 
ATOM     28  H   UNL     1      10.782  -6.906  30.559  0.00  0.00    +0.167 HD
ENDROOT
BRANCH  10  15
ATOM      2  O   UNL     1      15.270 -10.030  30.755  0.00  0.00    -0.274 OA
ATOM      4  N   UNL     1      16.461  -8.305  29.744  0.00  0.00    -0.311 N 
ATOM     15  C   UNL     1      15.684  -8.875  30.738  0.00  0.00    +0.231 C 
ATOM     27  H   UNL     1      16.753  -7.338  29.835  0.00  0.00    +0.149 HD
BRANCH   4   7
ATOM      7  C   UNL     1      16.894  -9.027  28.567  0.00  0.00    +0.073 C 
ATOM      8  C   UNL     1      15.773  -9.921  28.027  0.00  0.00    +0.022 C 
ATOM      9  C   UNL     1      17.405  -8.065  27.488  0.00  0.00    +0.022 C 
ATOM     11  C   UNL     1      14.648  -9.120  27.373  0.00  0.00    +0.002 C 
ATOM     12  C   UNL     1      16.277  -7.267  26.835  0.00  0.00    +0.002 C 
ATOM     13  C   UNL     1      15.180  -8.179  26.296  0.00  0.00    +0.000 C 
ENDBRANCH   4   7
ENDBRANCH  10  15
BRANCH   3  19
ATOM     19  C   UNL     1      16.014  -5.933  30.533  0.00  0.00    +0.120 C 
BRANCH  19  20
ATOM      1 CL   UNL     1      16.720  -0.193  32.190  0.00  0.00    -0.084 Cl
ATOM     20  C   UNL     1      16.190  -4.496  30.947  0.00  0.00    -0.033 A 
ATOM     22  C   UNL     1      16.032  -4.132  32.284  0.00  0.00    +0.006 A 
ATOM     23  C   UNL     1      16.512  -3.529  29.994  0.00  0.00    +0.006 A 
ATOM     24  C   UNL     1      16.195  -2.800  32.668  0.00  0.00    +0.020 A 
ATOM     25  C   UNL     1      16.675  -2.198  30.378  0.00  0.00    +0.020 A 
ATOM     26  C   UNL     1      16.517  -1.834  31.714  0.00  0.00    +0.041 A 
ENDBRANCH  19  20
ENDBRANCH   3  19
TORSDOF 4
ENDMDL
MODEL 5
REMARK VINA RESULT:      -2.6      1.530      2.472
REMARK  Name = 26745329
REMARK  4 active torsions:
REMARK  status: ('A' for Active; 'I' for Inactive)
REMARK    1  A    between atoms: N_3  and  C_19
REMARK    2  A    between atoms: N_4  and  C_7
REMARK    3  A    between atoms: C_10  and  C_15
REMARK    4  A    between atoms: C_19  and  C_20
REMARK                            x       y       z     vdW  Elec       q    Type
REMARK                         _______ _______ _______ _____ _____    ______ ____
ROOT
ATOM      3  N   UNL     1       0.621   1.134  24.076  0.00  0.00    -0.281 NA
ATOM      5  N   UNL     1      -0.765   4.597  24.079  0.00  0.00    -0.347 N 
ATOM      6  N   UNL     1      -1.351   4.129  26.186  0.00  0.00    -0.240 NA
ATOM     10  C   UNL     1      -0.298   0.620  25.123  0.00  0.00    +0.150 C 
ATOM     14  C   UNL     1      -0.652   1.687  26.199  0.00  0.00    +0.085 C 
ATOM     16  C   UNL     1       0.118   2.311  23.330  0.00  0.00    +0.140 C 
ATOM     17  C   UNL     1      -0.833   3.021  25.577  0.00  0.00    +0.065 A 
ATOM     18  C   UNL     1      -0.461   3.285  24.282  0.00  0.00    +0.053 A 
ATOM     21  C   UNL     1      -1.298   5.062  25.255  0.00  0.00    +0.197 A 
ATOM     28  H   UNL     1      -0.630   5.128  23.229  0.00  0.00    +0.167 HD
ENDROOT
BRANCH  10  15
ATOM      2  O   UNL     1      -1.645  -1.092  24.137  0.00  0.00    -0.274 OA
ATOM      4  N   UNL     1      -2.531   1.050  24.361  0.00  0.00    -0.311 N 
ATOM     15  C   UNL     1      -1.551   0.079  24.494  0.00  0.00    +0.231 C 
ATOM     27  H   UNL     1      -2.343   1.992  24.687  0.00  0.00    +0.149 HD
BRANCH   4   7
ATOM      7  C   UNL     1      -3.823   0.793  23.765  0.00  0.00    +0.073 C 
ATOM      8  C   UNL     1      -4.701  -0.050  24.697  0.00  0.00    +0.022 C 
ATOM      9  C   UNL     1      -4.521   2.102  23.379  0.00  0.00    +0.022 C 
ATOM     11  C   UNL     1      -5.189   0.736  25.912  0.00  0.00    +0.002 C 
ATOM     12  C   UNL     1      -5.010   2.885  24.597  0.00  0.00    +0.002 C 
ATOM     13  C   UNL     1      -5.890   2.029  25.502  0.00  0.00    +0.000 C 
ENDBRANCH   4   7
ENDBRANCH  10  15
BRANCH   3  19
ATOM     19  C   UNL     1       1.104   0.096  23.169  0.00  0.00    +0.120 C 
BRANCH  19  20
ATOM      1 CL   UNL     1       7.099  -0.383  23.296  0.00  0.00    -0.084 Cl
ATOM     20  C   UNL     1       2.604  -0.023  23.201  0.00  0.00    -0.033 A 
ATOM     22  C   UNL     1       3.200  -1.191  23.677  0.00  0.00    +0.006 A 
ATOM     23  C   UNL     1       3.398   1.033  22.754  0.00  0.00    +0.006 A 
ATOM     24  C   UNL     1       4.591  -1.301  23.708  0.00  0.00    +0.020 A 
ATOM     25  C   UNL     1       4.788   0.923  22.785  0.00  0.00    +0.020 A 
ATOM     26  C   UNL     1       5.384  -0.244  23.261  0.00  0.00    +0.041 A 
ENDBRANCH  19  20
ENDBRANCH   3  19
TORSDOF 4
ENDMDL
MODEL 6
REMARK VINA RESULT:      -1.9      3.209      7.073
REMARK  Name = 26745329
REMARK  4 active torsions:
REMARK  status: ('A' for Active; 'I' for Inactive)
REMARK    1  A    between atoms: N_3  and  C_19
REMARK    2  A    between atoms: N_4  and  C_7
REMARK    3  A    between atoms: C_10  and  C_15
REMARK    4  A    between atoms: C_19  and  C_20
REMARK                            x       y       z     vdW  Elec       q    Type
REMARK                         _______ _______ _______ _____ _____    ______ ____
ROOT
ATOM      3  N   UNL     1      -1.563   0.763  25.033  0.00  0.00    -0.281 NA
ATOM      5  N   UNL     1      -3.834  -1.958  23.873  0.00  0.00    -0.347 N 
ATOM      6  N   UNL     1      -2.327  -3.321  24.806  0.00  0.00    -0.240 NA
ATOM     10  C   UNL     1      -0.337  -0.073  25.028  0.00  0.00    +0.150 C 
ATOM     14  C   UNL     1      -0.608  -1.554  25.422  0.00  0.00    +0.085 C 
ATOM     16  C   UNL     1      -2.640   0.293  24.131  0.00  0.00    +0.140 C 
ATOM     17  C   UNL     1      -1.887  -2.028  24.840  0.00  0.00    +0.065 A 
ATOM     18  C   UNL     1      -2.799  -1.171  24.276  0.00  0.00    +0.053 A 
ATOM     21  C   UNL     1      -3.503  -3.246  24.214  0.00  0.00    +0.197 A 
ATOM     28  H   UNL     1      -4.681  -1.660  23.409  0.00  0.00    +0.167 HD
ENDROOT
BRANCH  10  15
ATOM      2  O   UNL     1      -0.314   0.007  22.639  0.00  0.00    -0.274 OA
ATOM      4  N   UNL     1       1.713   0.010  23.785  0.00  0.00    -0.311 N 
ATOM     15  C   UNL     1       0.332  -0.008  23.683  0.00  0.00    +0.231 C 
ATOM     27  H   UNL     1       2.143  -0.011  24.703  0.00  0.00    +0.149 HD
BRANCH   4   7
ATOM      7  C   UNL     1       2.590   0.049  22.636  0.00  0.00    +0.073 C 
ATOM      8  C   UNL     1       3.525   1.261  22.697  0.00  0.00    +0.022 C 
ATOM      9  C   UNL     1       3.382  -1.257  22.503  0.00  0.00    +0.022 C 
ATOM     11  C   UNL     1       4.602   1.116  23.771  0.00  0.00    +0.002 C 
ATOM     12  C   UNL     1       4.460  -1.398  23.578  0.00  0.00    +0.002 C 
ATOM     13  C   UNL     1       5.384  -0.185  23.612  0.00  0.00    +0.000 C 
ENDBRANCH   4   7
ENDBRANCH  10  15
BRANCH   3  19
ATOM     19  C   UNL     1      -1.294   2.186  24.846  0.00  0.00    +0.120 C 
BRANCH  19  20
ATOM      1 CL   UNL     1      -6.269   5.507  25.484  0.00  0.00    -0.084 Cl
ATOM     20  C   UNL     1      -2.539   3.018  25.006  0.00  0.00    -0.033 A 
ATOM     22  C   UNL     1      -3.472   3.081  23.972  0.00  0.00    +0.006 A 
ATOM     23  C   UNL     1      -2.759   3.724  26.188  0.00  0.00    +0.006 A 
ATOM     24  C   UNL     1      -4.626   3.852  24.120  0.00  0.00    +0.020 A 
ATOM     25  C   UNL     1      -3.911   4.496  26.336  0.00  0.00    +0.020 A 
ATOM     26  C   UNL     1      -4.844   4.559  25.302  0.00  0.00    +0.041 A 
ENDBRANCH  19  20
ENDBRANCH   3  19
TORSDOF 4
ENDMDL
MODEL 7
REMARK VINA RESULT:      -1.5      3.148      5.843
REMARK  Name = 26745329
REMARK  4 active torsions:
REMARK  status: ('A' for Active; 'I' for Inactive)
REMARK    1  A    between atoms: N_3  and  C_19
REMARK    2  A    between atoms: N_4  and  C_7
REMARK    3  A    between atoms: C_10  and  C_15
REMARK    4  A    between atoms: C_19  and  C_20
REMARK                            x       y       z     vdW  Elec       q    Type
REMARK                         _______ _______ _______ _____ _____    ______ ____
ROOT
ATOM      3  N   UNL     1      -0.083   2.920  24.097  0.00  0.00    -0.281 NA
ATOM      5  N   UNL     1       2.798   0.644  23.444  0.00  0.00    -0.347 N 
ATOM      6  N   UNL     1       1.437  -0.295  21.938  0.00  0.00    -0.240 NA
ATOM     10  C   UNL     1      -1.121   1.955  23.655  0.00  0.00    +0.150 C 
ATOM     14  C   UNL     1      -0.649   1.049  22.481  0.00  0.00    +0.085 C 
ATOM     16  C   UNL     1       1.188   2.306  24.544  0.00  0.00    +0.140 C 
ATOM     17  C   UNL     1       0.770   0.655  22.657  0.00  0.00    +0.065 A 
ATOM     18  C   UNL     1       1.587   1.250  23.587  0.00  0.00    +0.053 A 
ATOM     21  C   UNL     1       2.658  -0.279  22.438  0.00  0.00    +0.197 A 
ATOM     28  H   UNL     1       3.638   0.831  23.974  0.00  0.00    +0.167 HD
ENDROOT
BRANCH  10  15
ATOM      2  O   UNL     1      -0.897   0.992  25.832  0.00  0.00    -0.274 OA
ATOM      4  N   UNL     1      -2.791   0.497  24.571  0.00  0.00    -0.311 N 
ATOM     15  C   UNL     1      -1.573   1.111  24.814  0.00  0.00    +0.231 C 
ATOM     27  H   UNL     1      -3.262   0.663  23.688  0.00  0.00    +0.149 HD
BRANCH   4   7
ATOM      7  C   UNL     1      -3.434  -0.386  25.519  0.00  0.00    +0.073 C 
ATOM      8  C   UNL     1      -4.710  -0.993  24.927  0.00  0.00    +0.022 C 
ATOM      9  C   UNL     1      -2.469  -1.478  25.996  0.00  0.00    +0.022 C 
ATOM     11  C   UNL     1      -4.417  -2.032  23.846  0.00  0.00    +0.002 C 
ATOM     12  C   UNL     1      -2.180  -2.517  24.913  0.00  0.00    +0.002 C 
ATOM     13  C   UNL     1      -3.464  -3.114  24.347  0.00  0.00    +0.000 C 
ENDBRANCH   4   7
ENDBRANCH  10  15
BRANCH   3  19
ATOM     19  C   UNL     1      -0.575   3.894  25.068  0.00  0.00    +0.120 C 
BRANCH  19  20
ATOM      1 CL   UNL     1      -6.573   3.790  25.515  0.00  0.00    -0.084 Cl
ATOM     20  C   UNL     1      -2.076   3.867  25.179  0.00  0.00    -0.033 A 
ATOM     22  C   UNL     1      -2.680   3.795  26.434  0.00  0.00    +0.006 A 
ATOM     23  C   UNL     1      -2.862   3.915  24.028  0.00  0.00    +0.006 A 
ATOM     24  C   UNL     1      -4.072   3.770  26.537  0.00  0.00    +0.020 A 
ATOM     25  C   UNL     1      -4.252   3.889  24.131  0.00  0.00    +0.020 A 
ATOM     26  C   UNL     1      -4.857   3.818  25.386  0.00  0.00    +0.041 A 
ENDBRANCH  19  20
ENDBRANCH   3  19
TORSDOF 4
ENDMDL
