MODEL 1
REMARK VINA RESULT:      -4.5      0.000      0.000
REMARK  Name = 75536749
REMARK  5 active torsions:
REMARK  status: ('A' for Active; 'I' for Inactive)
REMARK    1  A    between atoms: O_4  and  C_12
REMARK    2  A    between atoms: N_7  and  C_10
REMARK    3  A    between atoms: N_7  and  C_11
REMARK    4  A    between atoms: N_8  and  C_20
REMARK    5  A    between atoms: C_13  and  C_20
REMARK                            x       y       z     vdW  Elec       q    Type
REMARK                         _______ _______ _______ _____ _____    ______ ____
ROOT
ATOM      3  O   UNL     1      -0.195   3.302  23.553  0.00  0.00    -0.371 OA
ATOM     10  C   UNL     1      -1.084   3.910  25.670  0.00  0.00    +0.111 C 
ATOM     12  C   UNL     1      -0.501   2.511  25.762  0.00  0.00    +0.164 C 
ATOM     13  C   UNL     1       0.445   2.509  24.569  0.00  0.00    +0.165 C 
ATOM     16  C   UNL     1      -1.243   4.072  24.168  0.00  0.00    +0.181 C 
ENDROOT
BRANCH  12   4
ATOM      4  O   UNL     1       0.183   2.284  26.978  0.00  0.00    -0.388 OA
ATOM     27  H   UNL     1      -0.390   1.754  27.557  0.00  0.00    +0.210 HD
ENDBRANCH  12   4
BRANCH  10   7
ATOM      7  N   UNL     1      -2.336   4.068  26.392  0.00  0.00    -0.306 NA
ATOM     26  H   UNL     1      -2.457   5.038  26.680  0.00  0.00    +0.123 HD
BRANCH   7  11
ATOM      1  F   UNL     1      -6.167   1.544  26.447  0.00  0.00    -0.206 F 
ATOM      2  F   UNL     1      -7.018   1.765  24.459  0.00  0.00    -0.206 F 
ATOM     11  C   UNL     1      -3.472   3.644  25.574  0.00  0.00    +0.054 C 
ATOM     14  C   UNL     1      -4.780   4.133  26.210  0.00  0.00    +0.024 C 
ATOM     15  C   UNL     1      -3.464   2.119  25.423  0.00  0.00    +0.024 C 
ATOM     17  C   UNL     1      -5.995   3.649  25.420  0.00  0.00    +0.077 C 
ATOM     18  C   UNL     1      -4.679   1.633  24.634  0.00  0.00    +0.077 C 
ATOM     19  C   UNL     1      -5.976   2.140  25.241  0.00  0.00    +0.249 C 
ENDBRANCH   7  11
ENDBRANCH  10   7
BRANCH  13  20
ATOM     20  C   UNL     1       0.730   1.119  24.031  0.00  0.00    +0.140 C 
BRANCH  20   8
ATOM      5  O   UNL     1      -4.443  -2.673  24.252  0.00  0.00    -0.377 OA
ATOM      6  O   UNL     1       0.325  -1.526  24.904  0.00  0.00    -0.253 OA
ATOM      8  N   UNL     1      -0.487   0.354  23.869  0.00  0.00    -0.297 N 
ATOM      9  N   UNL     1      -1.848  -1.565  24.095  0.00  0.00    -0.281 N 
ATOM     21  C   UNL     1      -0.606  -0.951  24.330  0.00  0.00    +0.302 C 
ATOM     22  C   UNL     1      -2.060  -2.944  24.540  0.00  0.00    +0.137 C 
ATOM     23  C   UNL     1      -2.950  -1.012  23.293  0.00  0.00    +0.137 C 
ATOM     24  C   UNL     1      -3.436  -3.109  25.166  0.00  0.00    +0.179 C 
ATOM     25  C   UNL     1      -4.295  -1.284  23.959  0.00  0.00    +0.179 C 
ATOM     28  H   UNL     1      -1.241   0.819  23.386  0.00  0.00    +0.150 HD
ENDBRANCH  20   8
ENDBRANCH  13  20
TORSDOF 5
ENDMDL
MODEL 2
REMARK VINA RESULT:      -4.2     17.262     19.693
REMARK  Name = 75536749
REMARK  5 active torsions:
REMARK  status: ('A' for Active; 'I' for Inactive)
REMARK    1  A    between atoms: O_4  and  C_12
REMARK    2  A    between atoms: N_7  and  C_10
REMARK    3  A    between atoms: N_7  and  C_11
REMARK    4  A    between atoms: N_8  and  C_20
REMARK    5  A    between atoms: C_13  and  C_20
REMARK                            x       y       z     vdW  Elec       q    Type
REMARK                         _______ _______ _______ _____ _____    ______ ____
ROOT
ATOM      3  O   UNL     1      13.382  -7.046  31.874  0.00  0.00    -0.371 OA
ATOM     10  C   UNL     1      15.005  -7.688  30.263  0.00  0.00    +0.111 C 
ATOM     12  C   UNL     1      14.289  -8.928  30.766  0.00  0.00    +0.164 C 
ATOM     13  C   UNL     1      13.010  -8.322  31.326  0.00  0.00    +0.165 C 
ATOM     16  C   UNL     1      14.675  -6.686  31.357  0.00  0.00    +0.181 C 
ENDROOT
BRANCH  12   4
ATOM      4  O   UNL     1      14.025  -9.861  29.736  0.00  0.00    -0.388 OA
ATOM     27  H   UNL     1      14.715  -9.770  29.057  0.00  0.00    +0.210 HD
ENDBRANCH  12   4
BRANCH  10   7
ATOM      7  N   UNL     1      16.434  -7.874  30.078  0.00  0.00    -0.306 NA
ATOM     26  H   UNL     1      16.705  -8.820  30.346  0.00  0.00    +0.123 HD
BRANCH   7  11
ATOM      1  F   UNL     1      15.003  -8.226  25.733  0.00  0.00    -0.206 F 
ATOM      2  F   UNL     1      16.636  -7.438  24.534  0.00  0.00    -0.206 F 
ATOM     11  C   UNL     1      16.823  -7.618  28.691  0.00  0.00    +0.054 C 
ATOM     14  C   UNL     1      15.849  -6.620  28.055  0.00  0.00    +0.024 C 
ATOM     15  C   UNL     1      16.858  -8.937  27.910  0.00  0.00    +0.024 C 
ATOM     17  C   UNL     1      16.182  -6.382  26.583  0.00  0.00    +0.077 C 
ATOM     18  C   UNL     1      17.191  -8.699  26.437  0.00  0.00    +0.077 C 
ATOM     19  C   UNL     1      16.248  -7.688  25.809  0.00  0.00    +0.249 C 
ENDBRANCH   7  11
ENDBRANCH  10   7
BRANCH  13  20
ATOM     20  C   UNL     1      12.363  -9.174  32.403  0.00  0.00    +0.140 C 
BRANCH  20   8
ATOM      5  O   UNL     1       6.202  -9.662  30.672  0.00  0.00    -0.377 OA
ATOM      6  O   UNL     1      10.105  -7.562  32.872  0.00  0.00    -0.253 OA
ATOM      8  N   UNL     1      11.000  -9.513  32.062  0.00  0.00    -0.297 N 
ATOM      9  N   UNL     1       8.670  -9.130  31.942  0.00  0.00    -0.281 N 
ATOM     21  C   UNL     1       9.936  -8.659  32.328  0.00  0.00    +0.302 C 
ATOM     22  C   UNL     1       7.491  -8.297  32.192  0.00  0.00    +0.137 C 
ATOM     23  C   UNL     1       8.364 -10.474  31.432  0.00  0.00    +0.137 C 
ATOM     24  C   UNL     1       6.548  -8.316  30.999  0.00  0.00    +0.179 C 
ATOM     25  C   UNL     1       7.360 -10.404  30.286  0.00  0.00    +0.179 C 
ATOM     28  H   UNL     1      10.861 -10.416  31.633  0.00  0.00    +0.150 HD
ENDBRANCH  20   8
ENDBRANCH  13  20
TORSDOF 5
ENDMDL
MODEL 3
REMARK VINA RESULT:      -3.7      2.467      4.729
REMARK  Name = 75536749
REMARK  5 active torsions:
REMARK  status: ('A' for Active; 'I' for Inactive)
REMARK    1  A    between atoms: O_4  and  C_12
REMARK    2  A    between atoms: N_7  and  C_10
REMARK    3  A    between atoms: N_7  and  C_11
REMARK    4  A    between atoms: N_8  and  C_20
REMARK    5  A    between atoms: C_13  and  C_20
REMARK                            x       y       z     vdW  Elec       q    Type
REMARK                         _______ _______ _______ _____ _____    ______ ____
ROOT
ATOM      3  O   UNL     1      -0.075   3.618  25.740  0.00  0.00    -0.371 OA
ATOM     10  C   UNL     1       0.068   1.297  25.259  0.00  0.00    +0.111 C 
ATOM     12  C   UNL     1      -0.922   1.940  24.304  0.00  0.00    +0.164 C 
ATOM     13  C   UNL     1      -0.499   3.400  24.383  0.00  0.00    +0.165 C 
ATOM     16  C   UNL     1       0.144   2.340  26.361  0.00  0.00    +0.181 C 
ENDROOT
BRANCH  12   4
ATOM      4  O   UNL     1      -0.820   1.431  22.989  0.00  0.00    -0.388 OA
ATOM     27  H   UNL     1      -1.298   2.030  22.392  0.00  0.00    +0.210 HD
ENDBRANCH  12   4
BRANCH  10   7
ATOM      7  N   UNL     1      -0.351  -0.009  25.742  0.00  0.00    -0.306 NA
ATOM     26  H   UNL     1      -0.686   0.061  26.702  0.00  0.00    +0.123 HD
BRANCH   7  11
ATOM      1  F   UNL     1      -3.696  -3.147  25.616  0.00  0.00    -0.206 F 
ATOM      2  F   UNL     1      -4.564  -2.968  23.632  0.00  0.00    -0.206 F 
ATOM     11  C   UNL     1      -1.395  -0.575  24.889  0.00  0.00    +0.054 C 
ATOM     14  C   UNL     1      -2.769  -0.350  25.531  0.00  0.00    +0.024 C 
ATOM     15  C   UNL     1      -1.126  -2.067  24.659  0.00  0.00    +0.024 C 
ATOM     17  C   UNL     1      -3.881  -0.992  24.702  0.00  0.00    +0.077 C 
ATOM     18  C   UNL     1      -2.238  -2.710  23.830  0.00  0.00    +0.077 C 
ATOM     19  C   UNL     1      -3.604  -2.464  24.446  0.00  0.00    +0.249 C 
ENDBRANCH   7  11
ENDBRANCH  10   7
BRANCH  13  20
ATOM     20  C   UNL     1      -1.615   4.368  24.032  0.00  0.00    +0.140 C 
BRANCH  20   8
ATOM      5  O   UNL     1      -6.982   1.766  26.403  0.00  0.00    -0.377 OA
ATOM      6  O   UNL     1      -3.555   2.643  22.944  0.00  0.00    -0.253 OA
ATOM      8  N   UNL     1      -2.859   3.992  24.665  0.00  0.00    -0.297 N 
ATOM      9  N   UNL     1      -4.934   2.866  24.796  0.00  0.00    -0.281 N 
ATOM     21  C   UNL     1      -3.767   3.132  24.059  0.00  0.00    +0.302 C 
ATOM     22  C   UNL     1      -5.950   1.975  24.229  0.00  0.00    +0.137 C 
ATOM     23  C   UNL     1      -5.333   3.518  26.052  0.00  0.00    +0.137 C 
ATOM     24  C   UNL     1      -6.491   1.025  25.285  0.00  0.00    +0.179 C 
ATOM     25  C   UNL     1      -5.928   2.504  27.023  0.00  0.00    +0.179 C 
ATOM     28  H   UNL     1      -3.040   4.405  25.568  0.00  0.00    +0.150 HD
ENDBRANCH  20   8
ENDBRANCH  13  20
TORSDOF 5
ENDMDL
MODEL 4
REMARK VINA RESULT:      -3.7      2.369      4.912
REMARK  Name = 75536749
REMARK  5 active torsions:
REMARK  status: ('A' for Active; 'I' for Inactive)
REMARK    1  A    between atoms: O_4  and  C_12
REMARK    2  A    between atoms: N_7  and  C_10
REMARK    3  A    between atoms: N_7  and  C_11
REMARK    4  A    between atoms: N_8  and  C_20
REMARK    5  A    between atoms: C_13  and  C_20
REMARK                            x       y       z     vdW  Elec       q    Type
REMARK                         _______ _______ _______ _____ _____    ______ ____
ROOT
ATOM      3  O   UNL     1      -0.606   3.141  26.514  0.00  0.00    -0.371 OA
ATOM     10  C   UNL     1       0.332   1.835  24.766  0.00  0.00    +0.111 C 
ATOM     12  C   UNL     1      -0.355   3.048  24.164  0.00  0.00    +0.164 C 
ATOM     13  C   UNL     1      -0.406   3.982  25.365  0.00  0.00    +0.165 C 
ATOM     16  C   UNL     1      -0.303   1.785  26.146  0.00  0.00    +0.181 C 
ENDROOT
BRANCH  12   4
ATOM      4  O   UNL     1       0.373   3.609  23.089  0.00  0.00    -0.388 OA
ATOM     27  H   UNL     1      -0.122   4.374  22.751  0.00  0.00    +0.210 HD
ENDBRANCH  12   4
BRANCH  10   7
ATOM      7  N   UNL     1       0.130   0.614  24.005  0.00  0.00    -0.306 NA
ATOM     26  H   UNL     1       1.028   0.182  23.786  0.00  0.00    +0.123 HD
BRANCH   7  11
ATOM      1  F   UNL     1      -3.568  -2.076  23.628  0.00  0.00    -0.206 F 
ATOM      2  F   UNL     1      -3.777  -3.026  25.572  0.00  0.00    -0.206 F 
ATOM     11  C   UNL     1      -0.712  -0.331  24.738  0.00  0.00    +0.054 C 
ATOM     14  C   UNL     1      -0.676  -1.701  24.051  0.00  0.00    +0.024 C 
ATOM     15  C   UNL     1      -2.144   0.210  24.826  0.00  0.00    +0.024 C 
ATOM     17  C   UNL     1      -1.601  -2.696  24.749  0.00  0.00    +0.077 C 
ATOM     18  C   UNL     1      -3.070  -0.786  25.524  0.00  0.00    +0.077 C 
ATOM     19  C   UNL     1      -3.015  -2.154  24.866  0.00  0.00    +0.249 C 
ENDBRANCH   7  11
ENDBRANCH  10   7
BRANCH  13  20
ATOM     20  C   UNL     1      -1.521   5.009  25.279  0.00  0.00    +0.140 C 
BRANCH  20   8
ATOM      5  O   UNL     1      -6.872   1.506  25.814  0.00  0.00    -0.377 OA
ATOM      6  O   UNL     1      -2.878   3.295  23.507  0.00  0.00    -0.253 OA
ATOM      8  N   UNL     1      -2.814   4.406  25.513  0.00  0.00    -0.297 N 
ATOM      9  N   UNL     1      -4.678   3.064  24.952  0.00  0.00    -0.281 N 
ATOM     21  C   UNL     1      -3.419   3.568  24.584  0.00  0.00    +0.302 C 
ATOM     22  C   UNL     1      -5.390   2.178  24.029  0.00  0.00    +0.137 C 
ATOM     23  C   UNL     1      -5.455   3.454  26.137  0.00  0.00    +0.137 C 
ATOM     24  C   UNL     1      -6.028   1.015  24.773  0.00  0.00    +0.179 C 
ATOM     25  C   UNL     1      -6.114   2.238  26.778  0.00  0.00    +0.179 C 
ATOM     28  H   UNL     1      -3.262   4.644  26.386  0.00  0.00    +0.150 HD
ENDBRANCH  20   8
ENDBRANCH  13  20
TORSDOF 5
ENDMDL
MODEL 5
REMARK VINA RESULT:      -3.5      2.599      4.945
REMARK  Name = 75536749
REMARK  5 active torsions:
REMARK  status: ('A' for Active; 'I' for Inactive)
REMARK    1  A    between atoms: O_4  and  C_12
REMARK    2  A    between atoms: N_7  and  C_10
REMARK    3  A    between atoms: N_7  and  C_11
REMARK    4  A    between atoms: N_8  and  C_20
REMARK    5  A    between atoms: C_13  and  C_20
REMARK                            x       y       z     vdW  Elec       q    Type
REMARK                         _______ _______ _______ _____ _____    ______ ____
ROOT
ATOM      3  O   UNL     1      -3.595  -1.386  26.310  0.00  0.00    -0.371 OA
ATOM     10  C   UNL     1      -4.589   0.122  24.768  0.00  0.00    +0.111 C 
ATOM     12  C   UNL     1      -3.568  -0.730  24.037  0.00  0.00    +0.164 C 
ATOM     13  C   UNL     1      -3.448  -1.918  24.982  0.00  0.00    +0.165 C 
ATOM     16  C   UNL     1      -4.160  -0.067  26.213  0.00  0.00    +0.181 C 
ENDROOT
BRANCH  12   4
ATOM      4  O   UNL     1      -4.004  -1.121  22.751  0.00  0.00    -0.388 OA
ATOM     27  H   UNL     1      -4.888  -1.518  22.835  0.00  0.00    +0.210 HD
ENDBRANCH  12   4
BRANCH  10   7
ATOM      7  N   UNL     1      -4.588   1.516  24.355  0.00  0.00    -0.306 NA
ATOM     26  H   UNL     1      -5.440   1.978  24.669  0.00  0.00    +0.123 HD
BRANCH   7  11
ATOM      1  F   UNL     1      -2.259   5.462  24.118  0.00  0.00    -0.206 F 
ATOM      2  F   UNL     1      -0.591   5.218  25.491  0.00  0.00    -0.206 F 
ATOM     11  C   UNL     1      -3.417   2.219  24.878  0.00  0.00    +0.054 C 
ATOM     14  C   UNL     1      -3.860   3.491  25.613  0.00  0.00    +0.024 C 
ATOM     15  C   UNL     1      -2.452   2.547  23.732  0.00  0.00    +0.024 C 
ATOM     17  C   UNL     1      -2.657   4.289  26.113  0.00  0.00    +0.077 C 
ATOM     18  C   UNL     1      -1.249   3.346  24.232  0.00  0.00    +0.077 C 
ATOM     19  C   UNL     1      -1.683   4.591  24.987  0.00  0.00    +0.249 C 
ENDBRANCH   7  11
ENDBRANCH  10   7
BRANCH  13  20
ATOM     20  C   UNL     1      -2.121  -2.646  24.865  0.00  0.00    +0.140 C 
BRANCH  20   8
ATOM      5  O   UNL     1       2.562   0.644  21.962  0.00  0.00    -0.377 OA
ATOM      6  O   UNL     1      -0.581  -0.419  25.632  0.00  0.00    -0.253 OA
ATOM      8  N   UNL     1      -1.196  -1.928  24.017  0.00  0.00    -0.297 N 
ATOM      9  N   UNL     1       0.383  -0.238  23.529  0.00  0.00    -0.281 N 
ATOM     21  C   UNL     1      -0.471  -0.834  24.473  0.00  0.00    +0.302 C 
ATOM     22  C   UNL     1       1.180   0.927  23.922  0.00  0.00    +0.137 C 
ATOM     23  C   UNL     1       0.461  -0.570  22.100  0.00  0.00    +0.137 C 
ATOM     24  C   UNL     1       2.596   0.826  23.378  0.00  0.00    +0.179 C 
ATOM     25  C   UNL     1       1.910  -0.580  21.624  0.00  0.00    +0.179 C 
ATOM     28  H   UNL     1      -1.120  -2.258  23.066  0.00  0.00    +0.150 HD
ENDBRANCH  20   8
ENDBRANCH  13  20
TORSDOF 5
ENDMDL
MODEL 6
REMARK VINA RESULT:      -2.9      2.668      4.946
REMARK  Name = 75536749
REMARK  5 active torsions:
REMARK  status: ('A' for Active; 'I' for Inactive)
REMARK    1  A    between atoms: O_4  and  C_12
REMARK    2  A    between atoms: N_7  and  C_10
REMARK    3  A    between atoms: N_7  and  C_11
REMARK    4  A    between atoms: N_8  and  C_20
REMARK    5  A    between atoms: C_13  and  C_20
REMARK                            x       y       z     vdW  Elec       q    Type
REMARK                         _______ _______ _______ _____ _____    ______ ____
ROOT
ATOM      3  O   UNL     1      -1.397  -2.303  23.476  0.00  0.00    -0.371 OA
ATOM     10  C   UNL     1       0.039  -0.751  24.558  0.00  0.00    +0.111 C 
ATOM     12  C   UNL     1      -1.231  -0.905  25.376  0.00  0.00    +0.164 C 
ATOM     13  C   UNL     1      -1.746  -2.245  24.870  0.00  0.00    +0.165 C 
ATOM     16  C   UNL     1      -0.404  -1.297  23.211  0.00  0.00    +0.181 C 
ENDROOT
BRANCH  12   4
ATOM      4  O   UNL     1      -0.982  -0.926  26.768  0.00  0.00    -0.388 OA
ATOM     27  H   UNL     1      -1.824  -0.774  27.231  0.00  0.00    +0.210 HD
ENDBRANCH  12   4
BRANCH  10   7
ATOM      7  N   UNL     1       0.522   0.618  24.483  0.00  0.00    -0.306 NA
ATOM     26  H   UNL     1       0.841   0.828  23.538  0.00  0.00    +0.123 HD
BRANCH   7  11
ATOM      1  F   UNL     1      -0.421   5.091  24.874  0.00  0.00    -0.206 F 
ATOM      2  F   UNL     1      -2.455   5.175  25.636  0.00  0.00    -0.206 F 
ATOM     11  C   UNL     1      -0.518   1.566  24.881  0.00  0.00    +0.054 C 
ATOM     14  C   UNL     1      -0.910   2.440  23.683  0.00  0.00    +0.024 C 
ATOM     15  C   UNL     1      -0.021   2.420  26.054  0.00  0.00    +0.024 C 
ATOM     17  C   UNL     1      -1.945   3.491  24.080  0.00  0.00    +0.077 C 
ATOM     18  C   UNL     1      -1.057   3.472  26.450  0.00  0.00    +0.077 C 
ATOM     19  C   UNL     1      -1.471   4.321  25.261  0.00  0.00    +0.249 C 
ENDBRANCH   7  11
ENDBRANCH  10   7
BRANCH  13  20
ATOM     20  C   UNL     1      -3.246  -2.411  25.031  0.00  0.00    +0.140 C 
BRANCH  20   8
ATOM      5  O   UNL     1      -6.449   3.083  25.894  0.00  0.00    -0.377 OA
ATOM      6  O   UNL     1      -3.698  -0.174  23.384  0.00  0.00    -0.253 OA
ATOM      8  N   UNL     1      -3.874  -1.175  25.441  0.00  0.00    -0.297 N 
ATOM      9  N   UNL     1      -4.681   1.023  25.111  0.00  0.00    -0.281 N 
ATOM     21  C   UNL     1      -4.061  -0.114  24.564  0.00  0.00    +0.302 C 
ATOM     22  C   UNL     1      -4.911   2.192  24.259  0.00  0.00    +0.137 C 
ATOM     23  C   UNL     1      -5.004   1.235  26.530  0.00  0.00    +0.137 C 
ATOM     24  C   UNL     1      -6.289   2.784  24.507  0.00  0.00    +0.179 C 
ATOM     25  C   UNL     1      -6.371   1.895  26.682  0.00  0.00    +0.179 C 
ATOM     28  H   UNL     1      -4.155  -1.120  26.410  0.00  0.00    +0.150 HD
ENDBRANCH  20   8
ENDBRANCH  13  20
TORSDOF 5
ENDMDL
MODEL 7
REMARK VINA RESULT:      -2.8      2.856      4.805
REMARK  Name = 75536749
REMARK  5 active torsions:
REMARK  status: ('A' for Active; 'I' for Inactive)
REMARK    1  A    between atoms: O_4  and  C_12
REMARK    2  A    between atoms: N_7  and  C_10
REMARK    3  A    between atoms: N_7  and  C_11
REMARK    4  A    between atoms: N_8  and  C_20
REMARK    5  A    between atoms: C_13  and  C_20
REMARK                            x       y       z     vdW  Elec       q    Type
REMARK                         _______ _______ _______ _____ _____    ______ ____
ROOT
ATOM      3  O   UNL     1      -6.210   2.325  26.191  0.00  0.00    -0.371 OA
ATOM     10  C   UNL     1      -4.692   3.933  25.324  0.00  0.00    +0.111 C 
ATOM     12  C   UNL     1      -4.600   2.667  24.492  0.00  0.00    +0.164 C 
ATOM     13  C   UNL     1      -5.932   2.005  24.817  0.00  0.00    +0.165 C 
ATOM     16  C   UNL     1      -5.359   3.415  26.587  0.00  0.00    +0.181 C 
ENDROOT
BRANCH  12   4
ATOM      4  O   UNL     1      -4.465   2.932  23.110  0.00  0.00    -0.388 OA
ATOM     27  H   UNL     1      -5.349   2.912  22.707  0.00  0.00    +0.210 HD
ENDBRANCH  12   4
BRANCH  10   7
ATOM      7  N   UNL     1      -3.404   4.558  25.580  0.00  0.00    -0.306 NA
ATOM     26  H   UNL     1      -3.195   4.541  26.577  0.00  0.00    +0.123 HD
BRANCH   7  11
ATOM      1  F   UNL     1       0.667   2.493  26.045  0.00  0.00    -0.206 F 
ATOM      2  F   UNL     1       1.231   1.897  24.032  0.00  0.00    -0.206 F 
ATOM     11  C   UNL     1      -2.338   3.888  24.835  0.00  0.00    +0.054 C 
ATOM     14  C   UNL     1      -2.191   2.442  25.326  0.00  0.00    +0.024 C 
ATOM     15  C   UNL     1      -1.026   4.666  24.995  0.00  0.00    +0.024 C 
ATOM     17  C   UNL     1      -1.037   1.732  24.620  0.00  0.00    +0.077 C 
ATOM     18  C   UNL     1       0.129   3.955  24.289  0.00  0.00    +0.077 C 
ATOM     19  C   UNL     1       0.260   2.513  24.749  0.00  0.00    +0.249 C 
ENDBRANCH   7  11
ENDBRANCH  10   7
BRANCH  13  20
ATOM     20  C   UNL     1      -5.914   0.498  24.634  0.00  0.00    +0.140 C 
BRANCH  20   8
ATOM      5  O   UNL     1      -0.122  -2.068  25.660  0.00  0.00    -0.377 OA
ATOM      6  O   UNL     1      -4.428  -1.482  23.296  0.00  0.00    -0.253 OA
ATOM      8  N   UNL     1      -4.669  -0.075  25.093  0.00  0.00    -0.297 N 
ATOM      9  N   UNL     1      -2.800  -1.516  24.948  0.00  0.00    -0.281 N 
ATOM     21  C   UNL     1      -3.994  -1.053  24.371  0.00  0.00    +0.302 C 
ATOM     22  C   UNL     1      -2.028  -2.553  24.259  0.00  0.00    +0.137 C 
ATOM     23  C   UNL     1      -2.294  -1.173  26.285  0.00  0.00    +0.137 C 
ATOM     24  C   UNL     1      -0.539  -2.246  24.307  0.00  0.00    +0.179 C 
ATOM     25  C   UNL     1      -0.786  -0.951  26.253  0.00  0.00    +0.179 C 
ATOM     28  H   UNL     1      -4.324   0.264  25.979  0.00  0.00    +0.150 HD
ENDBRANCH  20   8
ENDBRANCH  13  20
TORSDOF 5
ENDMDL
MODEL 8
REMARK VINA RESULT:      -2.7      2.886      5.179
REMARK  Name = 75536749
REMARK  5 active torsions:
REMARK  status: ('A' for Active; 'I' for Inactive)
REMARK    1  A    between atoms: O_4  and  C_12
REMARK    2  A    between atoms: N_7  and  C_10
REMARK    3  A    between atoms: N_7  and  C_11
REMARK    4  A    between atoms: N_8  and  C_20
REMARK    5  A    between atoms: C_13  and  C_20
REMARK                            x       y       z     vdW  Elec       q    Type
REMARK                         _______ _______ _______ _____ _____    ______ ____
ROOT
ATOM      3  O   UNL     1      -2.225  -2.548  24.190  0.00  0.00    -0.371 OA
ATOM     10  C   UNL     1      -3.456  -0.529  24.410  0.00  0.00    +0.111 C 
ATOM     12  C   UNL     1      -2.149  -0.398  25.173  0.00  0.00    +0.164 C 
ATOM     13  C   UNL     1      -1.313  -1.483  24.510  0.00  0.00    +0.165 C 
ATOM     16  C   UNL     1      -3.567  -2.037  24.262  0.00  0.00    +0.181 C 
ENDROOT
BRANCH  12   4
ATOM      4  O   UNL     1      -1.563   0.881  25.033  0.00  0.00    -0.388 OA
ATOM     27  H   UNL     1      -0.811   0.807  24.421  0.00  0.00    +0.210 HD
ENDBRANCH  12   4
BRANCH  10   7
ATOM      7  N   UNL     1      -4.594   0.058  25.098  0.00  0.00    -0.306 NA
ATOM     26  H   UNL     1      -4.441   0.047  26.106  0.00  0.00    +0.123 HD
BRANCH   7  11
ATOM      1  F   UNL     1      -2.696   4.227  24.835  0.00  0.00    -0.206 F 
ATOM      2  F   UNL     1      -4.198   5.472  23.876  0.00  0.00    -0.206 F 
ATOM     11  C   UNL     1      -4.833   1.428  24.645  0.00  0.00    +0.054 C 
ATOM     14  C   UNL     1      -3.805   1.807  23.571  0.00  0.00    +0.024 C 
ATOM     15  C   UNL     1      -4.769   2.389  25.839  0.00  0.00    +0.024 C 
ATOM     17  C   UNL     1      -3.980   3.258  23.125  0.00  0.00    +0.077 C 
ATOM     18  C   UNL     1      -4.943   3.840  25.393  0.00  0.00    +0.077 C 
ATOM     19  C   UNL     1      -3.948   4.211  24.307  0.00  0.00    +0.249 C 
ENDBRANCH   7  11
ENDBRANCH  10   7
BRANCH  13  20
ATOM     20  C   UNL     1      -0.199  -2.009  25.398  0.00  0.00    +0.140 C 
BRANCH  20   8
ATOM      5  O   UNL     1       5.259   0.194  22.840  0.00  0.00    -0.377 OA
ATOM      6  O   UNL     1       0.352  -0.120  23.386  0.00  0.00    -0.253 OA
ATOM      8  N   UNL     1       1.102  -1.736  24.831  0.00  0.00    -0.297 N 
ATOM      9  N   UNL     1       2.613  -0.637  23.383  0.00  0.00    -0.281 N 
ATOM     21  C   UNL     1       1.292  -0.784  23.837  0.00  0.00    +0.302 C 
ATOM     22  C   UNL     1       2.903   0.340  22.330  0.00  0.00    +0.137 C 
ATOM     23  C   UNL     1       3.756  -1.484  23.753  0.00  0.00    +0.137 C 
ATOM     24  C   UNL     1       4.180   1.106  22.634  0.00  0.00    +0.179 C 
ATOM     25  C   UNL     1       5.008  -0.641  23.971  0.00  0.00    +0.179 C 
ATOM     28  H   UNL     1       1.866  -2.291  25.188  0.00  0.00    +0.150 HD
ENDBRANCH  20   8
ENDBRANCH  13  20
TORSDOF 5
ENDMDL
MODEL 9
REMARK VINA RESULT:      -2.4      2.528      4.495
REMARK  Name = 75536749
REMARK  5 active torsions:
REMARK  status: ('A' for Active; 'I' for Inactive)
REMARK    1  A    between atoms: O_4  and  C_12
REMARK    2  A    between atoms: N_7  and  C_10
REMARK    3  A    between atoms: N_7  and  C_11
REMARK    4  A    between atoms: N_8  and  C_20
REMARK    5  A    between atoms: C_13  and  C_20
REMARK                            x       y       z     vdW  Elec       q    Type
REMARK                         _______ _______ _______ _____ _____    ______ ____
ROOT
ATOM      3  O   UNL     1      -3.287   4.062  23.430  0.00  0.00    -0.371 OA
ATOM     10  C   UNL     1      -4.892   2.812  24.656  0.00  0.00    +0.111 C 
ATOM     12  C   UNL     1      -3.782   3.249  25.596  0.00  0.00    +0.164 C 
ATOM     13  C   UNL     1      -3.184   4.415  24.821  0.00  0.00    +0.165 C 
ATOM     16  C   UNL     1      -4.222   2.977  23.302  0.00  0.00    +0.181 C 
ENDROOT
BRANCH  12   4
ATOM      4  O   UNL     1      -4.267   3.650  26.862  0.00  0.00    -0.388 OA
ATOM     27  H   UNL     1      -4.829   4.433  26.740  0.00  0.00    +0.210 HD
ENDBRANCH  12   4
BRANCH  10   7
ATOM      7  N   UNL     1      -5.359   1.457  24.895  0.00  0.00    -0.306 NA
ATOM     26  H   UNL     1      -6.060   1.198  24.202  0.00  0.00    +0.123 HD
BRANCH   7  11
ATOM      1  F   UNL     1      -4.357  -3.020  24.810  0.00  0.00    -0.206 F 
ATOM      2  F   UNL     1      -2.186  -3.113  24.771  0.00  0.00    -0.206 F 
ATOM     11  C   UNL     1      -4.249   0.504  24.862  0.00  0.00    +0.054 C 
ATOM     14  C   UNL     1      -4.327  -0.340  23.584  0.00  0.00    +0.024 C 
ATOM     15  C   UNL     1      -4.285  -0.379  26.115  0.00  0.00    +0.024 C 
ATOM     17  C   UNL     1      -3.223  -1.396  23.549  0.00  0.00    +0.077 C 
ATOM     18  C   UNL     1      -3.181  -1.436  26.081  0.00  0.00    +0.077 C 
ATOM     19  C   UNL     1      -3.235  -2.254  24.803  0.00  0.00    +0.249 C 
ENDBRANCH   7  11
ENDBRANCH  10   7
BRANCH  13  20
ATOM     20  C   UNL     1      -1.734   4.690  25.175  0.00  0.00    +0.140 C 
BRANCH  20   8
ATOM      5  O   UNL     1       1.269  -0.670  23.318  0.00  0.00    -0.377 OA
ATOM      6  O   UNL     1      -1.791   2.036  26.110  0.00  0.00    -0.253 OA
ATOM      8  N   UNL     1      -0.869   3.620  24.730  0.00  0.00    -0.297 N 
ATOM      9  N   UNL     1      -0.048   1.403  24.716  0.00  0.00    -0.281 N 
ATOM     21  C   UNL     1      -0.961   2.332  25.244  0.00  0.00    +0.302 C 
ATOM     22  C   UNL     1      -0.070   0.023  25.206  0.00  0.00    +0.137 C 
ATOM     23  C   UNL     1       1.063   1.703  23.801  0.00  0.00    +0.137 C 
ATOM     24  C   UNL     1       0.085  -0.964  24.060  0.00  0.00    +0.179 C 
ATOM     25  C   UNL     1       1.187   0.628  22.728  0.00  0.00    +0.179 C 
ATOM     28  H   UNL     1      -0.180   3.867  24.035  0.00  0.00    +0.150 HD
ENDBRANCH  20   8
ENDBRANCH  13  20
TORSDOF 5
ENDMDL
MODEL 10
REMARK VINA RESULT:      -2.3      2.784      5.705
REMARK  Name = 75536749
REMARK  5 active torsions:
REMARK  status: ('A' for Active; 'I' for Inactive)
REMARK    1  A    between atoms: O_4  and  C_12
REMARK    2  A    between atoms: N_7  and  C_10
REMARK    3  A    between atoms: N_7  and  C_11
REMARK    4  A    between atoms: N_8  and  C_20
REMARK    5  A    between atoms: C_13  and  C_20
REMARK                            x       y       z     vdW  Elec       q    Type
REMARK                         _______ _______ _______ _____ _____    ______ ____
ROOT
ATOM      3  O   UNL     1      -2.503  -2.787  23.591  0.00  0.00    -0.371 OA
ATOM     10  C   UNL     1      -1.012  -1.839  25.177  0.00  0.00    +0.111 C 
ATOM     12  C   UNL     1      -2.396  -1.251  25.386  0.00  0.00    +0.164 C 
ATOM     13  C   UNL     1      -3.265  -2.301  24.709  0.00  0.00    +0.165 C 
ATOM     16  C   UNL     1      -1.130  -2.395  23.769  0.00  0.00    +0.181 C 
ENDROOT
BRANCH  12   4
ATOM      4  O   UNL     1      -2.722  -1.097  26.753  0.00  0.00    -0.388 OA
ATOM     27  H   UNL     1      -2.716  -0.148  26.964  0.00  0.00    +0.210 HD
ENDBRANCH  12   4
BRANCH  10   7
ATOM      7  N   UNL     1       0.061  -0.867  25.314  0.00  0.00    -0.306 NA
ATOM     26  H   UNL     1       0.850  -1.127  24.724  0.00  0.00    +0.123 HD
BRANCH   7  11
ATOM      1  F   UNL     1       0.830   3.593  26.070  0.00  0.00    -0.206 F 
ATOM      2  F   UNL     1      -0.650   4.634  24.866  0.00  0.00    -0.206 F 
ATOM     11  C   UNL     1      -0.400   0.477  24.967  0.00  0.00    +0.054 C 
ATOM     14  C   UNL     1       0.732   1.253  24.281  0.00  0.00    +0.024 C 
ATOM     15  C   UNL     1      -0.886   1.202  26.228  0.00  0.00    +0.024 C 
ATOM     17  C   UNL     1       0.310   2.687  23.967  0.00  0.00    +0.077 C 
ATOM     18  C   UNL     1      -1.308   2.637  25.914  0.00  0.00    +0.077 C 
ATOM     19  C   UNL     1      -0.201   3.401  25.207  0.00  0.00    +0.249 C 
ENDBRANCH   7  11
ENDBRANCH  10   7
BRANCH  13  20
ATOM     20  C   UNL     1      -4.597  -1.757  24.224  0.00  0.00    +0.140 C 
BRANCH  20   8
ATOM      5  O   UNL     1      -4.073   4.640  24.275  0.00  0.00    -0.377 OA
ATOM      6  O   UNL     1      -5.368   0.217  26.076  0.00  0.00    -0.253 OA
ATOM      8  N   UNL     1      -4.537  -0.329  24.008  0.00  0.00    -0.297 N 
ATOM      9  N   UNL     1      -4.826   1.937  24.617  0.00  0.00    -0.281 N 
ATOM     21  C   UNL     1      -4.938   0.584  24.977  0.00  0.00    +0.302 C 
ATOM     22  C   UNL     1      -5.234   2.967  25.576  0.00  0.00    +0.137 C 
ATOM     23  C   UNL     1      -4.472   2.454  23.288  0.00  0.00    +0.137 C 
ATOM     24  C   UNL     1      -4.241   4.118  25.594  0.00  0.00    +0.179 C 
ATOM     25  C   UNL     1      -3.530   3.648  23.404  0.00  0.00    +0.179 C 
ATOM     28  H   UNL     1      -4.202  -0.031  23.104  0.00  0.00    +0.150 HD
ENDBRANCH  20   8
ENDBRANCH  13  20
TORSDOF 5
ENDMDL
