MODEL 1
REMARK VINA RESULT:       0.5      0.000      0.000
REMARK  Name = 11883375
REMARK  7 active torsions:
REMARK  status: ('A' for Active; 'I' for Inactive)
REMARK    1  A    between atoms: O_3  and  C_13
REMARK    2  A    between atoms: O_3  and  C_17
REMARK    3  A    between atoms: N_7  and  C_12
REMARK    4  A    between atoms: N_8  and  C_18
REMARK    5  A    between atoms: N_9  and  C_19
REMARK    6  A    between atoms: C_24  and  C_30
REMARK    7  A    between atoms: C_30  and  C_31
REMARK                            x       y       z     vdW  Elec       q    Type
REMARK                         _______ _______ _______ _____ _____    ______ ____
ROOT
ATOM      1  O   UNL     1      -3.545   3.473  24.189  0.00  0.00    -0.368 OA
ATOM      2  O   UNL     1      -3.646   5.241  26.694  0.00  0.00    -0.368 OA
ATOM     10  C   UNL     1      -2.774   4.151  26.326  0.00  0.00    +0.173 C 
ATOM     11  C   UNL     1      -3.622   3.139  25.585  0.00  0.00    +0.192 C 
ATOM     12  C   UNL     1      -1.774   4.613  25.292  0.00  0.00    +0.131 C 
ATOM     13  C   UNL     1      -5.001   3.396  26.145  0.00  0.00    +0.235 C 
ATOM     14  C   UNL     1      -2.573   4.515  24.005  0.00  0.00    +0.185 C 
ATOM     15  C   UNL     1      -4.993   4.896  26.338  0.00  0.00    +0.207 C 
ENDROOT
BRANCH  12   7
ATOM      4  O   UNL     1      -0.965   2.916  23.130  0.00  0.00    -0.252 OA
ATOM      7  N   UNL     1      -0.619   3.749  25.259  0.00  0.00    -0.292 N 
ATOM      8  N   UNL     1       0.875   2.221  24.413  0.00  0.00    -0.269 N 
ATOM     16  C   UNL     1      -0.292   2.947  24.158  0.00  0.00    +0.304 C 
ATOM     32  H   UNL     1      -0.050   3.668  26.096  0.00  0.00    +0.151 HD
ATOM     33  H   UNL     1       1.312   2.365  25.320  0.00  0.00    +0.156 HD
BRANCH   8  18
ATOM     18  C   UNL     1       1.530   1.304  23.559  0.00  0.00    +0.035 A 
ATOM     20  C   UNL     1       0.811   0.261  22.973  0.00  0.00    +0.023 A 
ATOM     21  C   UNL     1       2.894   1.442  23.300  0.00  0.00    +0.023 A 
ATOM     25  C   UNL     1       1.458  -0.643  22.131  0.00  0.00    +0.002 A 
ATOM     26  C   UNL     1       3.539   0.539  22.458  0.00  0.00    +0.002 A 
ATOM     29  C   UNL     1       2.821  -0.505  21.872  0.00  0.00    +0.000 A 
ENDBRANCH   8  18
ENDBRANCH  12   7
BRANCH  13   3
ATOM      3  O   UNL     1      -6.043   2.977  25.294  0.00  0.00    -0.442 OA
BRANCH   3  17
ATOM      5  O   UNL     1      -6.902   1.148  24.221  0.00  0.00    -0.226 OA
ATOM      9  N   UNL     1      -4.726   1.157  25.086  0.00  0.00    -0.251 N 
ATOM     17  C   UNL     1      -5.970   1.688  24.806  0.00  0.00    +0.405 C 
ATOM     34  H   UNL     1      -4.080   1.764  25.585  0.00  0.00    +0.158 HD
BRANCH   9  19
ATOM     19  C   UNL     1      -4.237  -0.130  24.765  0.00  0.00    +0.037 A 
ATOM     22  C   UNL     1      -2.939  -0.493  25.123  0.00  0.00    +0.034 A 
ATOM     23  C   UNL     1      -5.053  -1.037  24.089  0.00  0.00    +0.023 A 
ATOM     24  C   UNL     1      -2.456  -1.762  24.805  0.00  0.00    +0.019 A 
ATOM     27  C   UNL     1      -4.570  -2.307  23.771  0.00  0.00    +0.002 A 
ATOM     28  C   UNL     1      -3.272  -2.669  24.129  0.00  0.00    +0.011 A 
BRANCH  24  30
ATOM      6  O   UNL     1      -0.614  -3.234  24.831  0.00  0.00    -0.292 OA
ATOM     30  C   UNL     1      -1.103  -2.141  25.179  0.00  0.00    +0.160 C 
ATOM     31  C   UNL     1      -0.244  -1.199  26.015  0.00  0.00    +0.091 C 
ENDBRANCH  24  30
ENDBRANCH   9  19
ENDBRANCH   3  17
ENDBRANCH  13   3
TORSDOF 6
ENDMDL
MODEL 2
REMARK VINA RESULT:       2.2      1.892      5.176
REMARK  Name = 11883375
REMARK  7 active torsions:
REMARK  status: ('A' for Active; 'I' for Inactive)
REMARK    1  A    between atoms: O_3  and  C_13
REMARK    2  A    between atoms: O_3  and  C_17
REMARK    3  A    between atoms: N_7  and  C_12
REMARK    4  A    between atoms: N_8  and  C_18
REMARK    5  A    between atoms: N_9  and  C_19
REMARK    6  A    between atoms: C_24  and  C_30
REMARK    7  A    between atoms: C_30  and  C_31
REMARK                            x       y       z     vdW  Elec       q    Type
REMARK                         _______ _______ _______ _____ _____    ______ ____
ROOT
ATOM      1  O   UNL     1      -2.952  -0.402  25.359  0.00  0.00    -0.368 OA
ATOM      2  O   UNL     1      -3.712  -2.947  23.823  0.00  0.00    -0.368 OA
ATOM     10  C   UNL     1      -2.829  -1.855  23.489  0.00  0.00    +0.173 C 
ATOM     11  C   UNL     1      -3.466  -0.592  24.029  0.00  0.00    +0.192 C 
ATOM     12  C   UNL     1      -1.540  -1.974  24.269  0.00  0.00    +0.131 C 
ATOM     13  C   UNL     1      -4.933  -0.947  24.042  0.00  0.00    +0.235 C 
ATOM     14  C   UNL     1      -1.917  -1.366  25.608  0.00  0.00    +0.185 C 
ATOM     15  C   UNL     1      -4.905  -2.412  24.415  0.00  0.00    +0.207 C 
ENDROOT
BRANCH  12   7
ATOM      4  O   UNL     1       1.238  -2.032  24.966  0.00  0.00    -0.252 OA
ATOM      7  N   UNL     1      -0.476  -1.232  23.637  0.00  0.00    -0.292 N 
ATOM      8  N   UNL     1       1.663  -0.489  23.248  0.00  0.00    -0.269 N 
ATOM     16  C   UNL     1       0.862  -1.317  24.039  0.00  0.00    +0.304 C 
ATOM     32  H   UNL     1      -0.716  -0.567  22.907  0.00  0.00    +0.151 HD
ATOM     33  H   UNL     1       1.192   0.039  22.519  0.00  0.00    +0.156 HD
BRANCH   8  18
ATOM     18  C   UNL     1       3.062  -0.294  23.334  0.00  0.00    +0.035 A 
ATOM     20  C   UNL     1       3.883  -1.333  23.774  0.00  0.00    +0.023 A 
ATOM     21  C   UNL     1       3.619   0.934  22.981  0.00  0.00    +0.023 A 
ATOM     25  C   UNL     1       5.262  -1.141  23.859  0.00  0.00    +0.002 A 
ATOM     26  C   UNL     1       4.997   1.125  23.066  0.00  0.00    +0.002 A 
ATOM     29  C   UNL     1       5.820   0.087  23.506  0.00  0.00    +0.000 A 
ENDBRANCH   8  18
ENDBRANCH  12   7
BRANCH  13   3
ATOM      3  O   UNL     1      -5.690  -0.182  24.953  0.00  0.00    -0.442 OA
BRANCH   3  17
ATOM      5  O   UNL     1      -6.396   1.957  24.557  0.00  0.00    -0.226 OA
ATOM      9  N   UNL     1      -4.237   1.501  25.337  0.00  0.00    -0.251 N 
ATOM     17  C   UNL     1      -5.514   1.187  24.916  0.00  0.00    +0.405 C 
ATOM     34  H   UNL     1      -3.644   0.716  25.598  0.00  0.00    +0.158 HD
BRANCH   9  19
ATOM     19  C   UNL     1      -3.647   2.781  25.450  0.00  0.00    +0.037 A 
ATOM     22  C   UNL     1      -2.365   3.005  24.950  0.00  0.00    +0.034 A 
ATOM     23  C   UNL     1      -4.349   3.819  26.062  0.00  0.00    +0.023 A 
ATOM     24  C   UNL     1      -1.784   4.267  25.063  0.00  0.00    +0.019 A 
ATOM     27  C   UNL     1      -3.767   5.082  26.175  0.00  0.00    +0.002 A 
ATOM     28  C   UNL     1      -2.485   5.307  25.675  0.00  0.00    +0.011 A 
BRANCH  24  30
ATOM      6  O   UNL     1       0.005   5.657  24.403  0.00  0.00    -0.292 OA
ATOM     30  C   UNL     1      -0.447   4.502  24.541  0.00  0.00    +0.160 C 
ATOM     31  C   UNL     1       0.442   3.328  24.147  0.00  0.00    +0.091 C 
ENDBRANCH  24  30
ENDBRANCH   9  19
ENDBRANCH   3  17
ENDBRANCH  13   3
TORSDOF 6
ENDMDL
MODEL 3
REMARK VINA RESULT:       3.0      1.913      5.466
REMARK  Name = 11883375
REMARK  7 active torsions:
REMARK  status: ('A' for Active; 'I' for Inactive)
REMARK    1  A    between atoms: O_3  and  C_13
REMARK    2  A    between atoms: O_3  and  C_17
REMARK    3  A    between atoms: N_7  and  C_12
REMARK    4  A    between atoms: N_8  and  C_18
REMARK    5  A    between atoms: N_9  and  C_19
REMARK    6  A    between atoms: C_24  and  C_30
REMARK    7  A    between atoms: C_30  and  C_31
REMARK                            x       y       z     vdW  Elec       q    Type
REMARK                         _______ _______ _______ _____ _____    ______ ____
ROOT
ATOM      1  O   UNL     1      -2.712   3.515  26.121  0.00  0.00    -0.368 OA
ATOM      2  O   UNL     1      -4.062   5.527  24.240  0.00  0.00    -0.368 OA
ATOM     10  C   UNL     1      -4.031   4.084  24.234  0.00  0.00    +0.173 C 
ATOM     11  C   UNL     1      -2.648   3.671  24.693  0.00  0.00    +0.192 C 
ATOM     12  C   UNL     1      -4.946   3.542  25.307  0.00  0.00    +0.131 C 
ATOM     13  C   UNL     1      -1.805   4.860  24.299  0.00  0.00    +0.235 C 
ATOM     14  C   UNL     1      -4.078   3.637  26.549  0.00  0.00    +0.185 C 
ATOM     15  C   UNL     1      -2.748   6.017  24.546  0.00  0.00    +0.207 C 
ENDROOT
BRANCH  12   7
ATOM      4  O   UNL     1      -3.187   1.290  25.099  0.00  0.00    -0.252 OA
ATOM      7  N   UNL     1      -5.322   2.176  25.033  0.00  0.00    -0.292 N 
ATOM      8  N   UNL     1      -5.048  -0.077  24.672  0.00  0.00    -0.269 N 
ATOM     16  C   UNL     1      -4.396   1.129  24.948  0.00  0.00    +0.304 C 
ATOM     32  H   UNL     1      -6.295   1.972  24.829  0.00  0.00    +0.151 HD
ATOM     33  H   UNL     1      -6.059  -0.037  24.577  0.00  0.00    +0.156 HD
BRANCH   8  18
ATOM     18  C   UNL     1      -4.470  -1.358  24.511  0.00  0.00    +0.035 A 
ATOM     20  C   UNL     1      -4.812  -2.142  23.408  0.00  0.00    +0.023 A 
ATOM     21  C   UNL     1      -3.560  -1.838  25.452  0.00  0.00    +0.023 A 
ATOM     25  C   UNL     1      -4.244  -3.406  23.249  0.00  0.00    +0.002 A 
ATOM     26  C   UNL     1      -2.992  -3.101  25.293  0.00  0.00    +0.002 A 
ATOM     29  C   UNL     1      -3.333  -3.885  24.190  0.00  0.00    +0.000 A 
ENDBRANCH   8  18
ENDBRANCH  12   7
BRANCH  13   3
ATOM      3  O   UNL     1      -0.614   4.979  25.043  0.00  0.00    -0.442 OA
BRANCH   3  17
ATOM      5  O   UNL     1       0.820   3.623  26.199  0.00  0.00    -0.226 OA
ATOM      9  N   UNL     1      -0.014   3.021  24.096  0.00  0.00    -0.251 N 
ATOM     17  C   UNL     1       0.139   3.833  25.203  0.00  0.00    +0.405 C 
ATOM     34  H   UNL     1      -0.628   3.371  23.364  0.00  0.00    +0.158 HD
BRANCH   9  19
ATOM     19  C   UNL     1       0.579   1.761  23.853  0.00  0.00    +0.037 A 
ATOM     22  C   UNL     1       1.904   1.684  23.423  0.00  0.00    +0.034 A 
ATOM     23  C   UNL     1      -0.163   0.595  24.041  0.00  0.00    +0.023 A 
ATOM     24  C   UNL     1       2.487   0.441  23.182  0.00  0.00    +0.019 A 
ATOM     27  C   UNL     1       0.422  -0.649  23.799  0.00  0.00    +0.002 A 
ATOM     28  C   UNL     1       1.747  -0.726  23.370  0.00  0.00    +0.011 A 
BRANCH  24  30
ATOM      6  O   UNL     1       4.184   0.589  21.549  0.00  0.00    -0.292 OA
ATOM     30  C   UNL     1       3.868   0.360  22.735  0.00  0.00    +0.160 C 
ATOM     31  C   UNL     1       4.974  -0.011  23.716  0.00  0.00    +0.091 C 
ENDBRANCH  24  30
ENDBRANCH   9  19
ENDBRANCH   3  17
ENDBRANCH  13   3
TORSDOF 6
ENDMDL
MODEL 4
REMARK VINA RESULT:       3.1      1.618      2.191
REMARK  Name = 11883375
REMARK  7 active torsions:
REMARK  status: ('A' for Active; 'I' for Inactive)
REMARK    1  A    between atoms: O_3  and  C_13
REMARK    2  A    between atoms: O_3  and  C_17
REMARK    3  A    between atoms: N_7  and  C_12
REMARK    4  A    between atoms: N_8  and  C_18
REMARK    5  A    between atoms: N_9  and  C_19
REMARK    6  A    between atoms: C_24  and  C_30
REMARK    7  A    between atoms: C_30  and  C_31
REMARK                            x       y       z     vdW  Elec       q    Type
REMARK                         _______ _______ _______ _____ _____    ______ ____
ROOT
ATOM      1  O   UNL     1      -2.722   2.700  23.857  0.00  0.00    -0.368 OA
ATOM      2  O   UNL     1      -1.001   4.999  24.936  0.00  0.00    -0.368 OA
ATOM     10  C   UNL     1      -0.776   3.574  24.893  0.00  0.00    +0.173 C 
ATOM     11  C   UNL     1      -2.114   2.909  25.143  0.00  0.00    +0.192 C 
ATOM     12  C   UNL     1      -0.416   3.148  23.489  0.00  0.00    +0.131 C 
ATOM     13  C   UNL     1      -2.851   3.953  25.947  0.00  0.00    +0.235 C 
ATOM     14  C   UNL     1      -1.778   3.035  22.827  0.00  0.00    +0.185 C 
ATOM     15  C   UNL     1      -2.361   5.241  25.324  0.00  0.00    +0.207 C 
ENDROOT
BRANCH  12   7
ATOM      4  O   UNL     1       2.420   2.742  23.458  0.00  0.00    -0.252 OA
ATOM      7  N   UNL     1       0.274   1.881  23.487  0.00  0.00    -0.292 N 
ATOM      8  N   UNL     1       2.050   0.423  23.475  0.00  0.00    -0.269 N 
ATOM     16  C   UNL     1       1.670   1.768  23.473  0.00  0.00    +0.304 C 
ATOM     32  H   UNL     1      -0.276   1.029  23.430  0.00  0.00    +0.151 HD
ATOM     33  H   UNL     1       1.300  -0.262  23.488  0.00  0.00    +0.156 HD
BRANCH   8  18
ATOM     18  C   UNL     1       3.362  -0.107  23.463  0.00  0.00    +0.035 A 
ATOM     20  C   UNL     1       3.578  -1.438  23.826  0.00  0.00    +0.023 A 
ATOM     21  C   UNL     1       4.438   0.697  23.089  0.00  0.00    +0.023 A 
ATOM     25  C   UNL     1       4.870  -1.961  23.815  0.00  0.00    +0.002 A 
ATOM     26  C   UNL     1       5.730   0.173  23.078  0.00  0.00    +0.002 A 
ATOM     29  C   UNL     1       5.946  -1.157  23.441  0.00  0.00    +0.000 A 
ENDBRANCH   8  18
ENDBRANCH  12   7
BRANCH  13   3
ATOM      3  O   UNL     1      -4.254   3.831  25.877  0.00  0.00    -0.442 OA
BRANCH   3  17
ATOM      5  O   UNL     1      -5.924   2.498  25.062  0.00  0.00    -0.226 OA
ATOM      9  N   UNL     1      -3.745   1.695  25.358  0.00  0.00    -0.251 N 
ATOM     17  C   UNL     1      -4.753   2.638  25.394  0.00  0.00    +0.405 C 
ATOM     34  H   UNL     1      -2.830   2.004  25.677  0.00  0.00    +0.158 HD
BRANCH   9  19
ATOM     19  C   UNL     1      -3.827   0.350  24.932  0.00  0.00    +0.037 A 
ATOM     22  C   UNL     1      -2.681  -0.445  24.904  0.00  0.00    +0.034 A 
ATOM     23  C   UNL     1      -5.055  -0.183  24.539  0.00  0.00    +0.023 A 
ATOM     24  C   UNL     1      -2.761  -1.771  24.483  0.00  0.00    +0.019 A 
ATOM     27  C   UNL     1      -5.135  -1.511  24.118  0.00  0.00    +0.002 A 
ATOM     28  C   UNL     1      -3.989  -2.305  24.090  0.00  0.00    +0.011 A 
BRANCH  24  30
ATOM      6  O   UNL     1      -1.518  -3.648  23.780  0.00  0.00    -0.292 OA
ATOM     30  C   UNL     1      -1.567  -2.600  24.454  0.00  0.00    +0.160 C 
ATOM     31  C   UNL     1      -0.334  -2.201  25.258  0.00  0.00    +0.091 C 
ENDBRANCH  24  30
ENDBRANCH   9  19
ENDBRANCH   3  17
ENDBRANCH  13   3
TORSDOF 6
ENDMDL
MODEL 5
REMARK VINA RESULT:       3.7      2.626      3.502
REMARK  Name = 11883375
REMARK  7 active torsions:
REMARK  status: ('A' for Active; 'I' for Inactive)
REMARK    1  A    between atoms: O_3  and  C_13
REMARK    2  A    between atoms: O_3  and  C_17
REMARK    3  A    between atoms: N_7  and  C_12
REMARK    4  A    between atoms: N_8  and  C_18
REMARK    5  A    between atoms: N_9  and  C_19
REMARK    6  A    between atoms: C_24  and  C_30
REMARK    7  A    between atoms: C_30  and  C_31
REMARK                            x       y       z     vdW  Elec       q    Type
REMARK                         _______ _______ _______ _____ _____    ______ ____
ROOT
ATOM      1  O   UNL     1      -3.089   2.099  24.056  0.00  0.00    -0.368 OA
ATOM      2  O   UNL     1      -3.505   5.137  23.978  0.00  0.00    -0.368 OA
ATOM     10  C   UNL     1      -2.593   4.315  24.737  0.00  0.00    +0.173 C 
ATOM     11  C   UNL     1      -3.341   3.050  25.104  0.00  0.00    +0.192 C 
ATOM     12  C   UNL     1      -1.472   3.829  23.849  0.00  0.00    +0.131 C 
ATOM     13  C   UNL     1      -4.779   3.511  25.107  0.00  0.00    +0.235 C 
ATOM     14  C   UNL     1      -2.103   2.633  23.158  0.00  0.00    +0.185 C 
ATOM     15  C   UNL     1      -4.796   4.511  23.972  0.00  0.00    +0.207 C 
ENDROOT
BRANCH  12   7
ATOM      4  O   UNL     1      -1.352   3.518  26.695  0.00  0.00    -0.252 OA
ATOM      7  N   UNL     1      -0.321   3.438  24.627  0.00  0.00    -0.292 N 
ATOM      8  N   UNL     1       0.910   2.919  26.497  0.00  0.00    -0.269 N 
ATOM     16  C   UNL     1      -0.346   3.309  26.021  0.00  0.00    +0.304 C 
ATOM     32  H   UNL     1       0.567   3.313  24.150  0.00  0.00    +0.151 HD
ATOM     33  H   UNL     1       1.639   2.787  25.802  0.00  0.00    +0.156 HD
BRANCH   8  18
ATOM     18  C   UNL     1       1.295   2.683  27.837  0.00  0.00    +0.035 A 
ATOM     20  C   UNL     1       2.646   2.686  28.185  0.00  0.00    +0.023 A 
ATOM     21  C   UNL     1       0.325   2.447  28.811  0.00  0.00    +0.023 A 
ATOM     25  C   UNL     1       3.026   2.452  29.506  0.00  0.00    +0.002 A 
ATOM     26  C   UNL     1       0.705   2.214  30.132  0.00  0.00    +0.002 A 
ATOM     29  C   UNL     1       2.056   2.216  30.480  0.00  0.00    +0.000 A 
ENDBRANCH   8  18
ENDBRANCH  12   7
BRANCH  13   3
ATOM      3  O   UNL     1      -5.705   2.467  24.908  0.00  0.00    -0.442 OA
BRANCH   3  17
ATOM      5  O   UNL     1      -5.722   0.679  26.333  0.00  0.00    -0.226 OA
ATOM      9  N   UNL     1      -4.440   0.677  24.375  0.00  0.00    -0.251 N 
ATOM     17  C   UNL     1      -5.316   1.203  25.303  0.00  0.00    +0.405 C 
ATOM     34  H   UNL     1      -4.222   1.270  23.577  0.00  0.00    +0.158 HD
BRANCH   9  19
ATOM     19  C   UNL     1      -3.805  -0.586  24.395  0.00  0.00    +0.037 A 
ATOM     22  C   UNL     1      -2.434  -0.675  24.632  0.00  0.00    +0.034 A 
ATOM     23  C   UNL     1      -4.552  -1.744  24.175  0.00  0.00    +0.023 A 
ATOM     24  C   UNL     1      -1.808  -1.921  24.650  0.00  0.00    +0.019 A 
ATOM     27  C   UNL     1      -3.926  -2.991  24.194  0.00  0.00    +0.002 A 
ATOM     28  C   UNL     1      -2.554  -3.079  24.431  0.00  0.00    +0.011 A 
BRANCH  24  30
ATOM      6  O   UNL     1       0.094  -2.873  25.669  0.00  0.00    -0.292 OA
ATOM     30  C   UNL     1      -0.379  -2.014  24.898  0.00  0.00    +0.160 C 
ATOM     31  C   UNL     1       0.585  -1.051  24.213  0.00  0.00    +0.091 C 
ENDBRANCH  24  30
ENDBRANCH   9  19
ENDBRANCH   3  17
ENDBRANCH  13   3
TORSDOF 6
ENDMDL
