MODEL 1
REMARK VINA RESULT:      -5.0      0.000      0.000
REMARK  Name = 75536698
REMARK  8 active torsions:
REMARK  status: ('A' for Active; 'I' for Inactive)
REMARK    1  A    between atoms: S_1  and  N_7
REMARK    2  A    between atoms: S_1  and  C_18
REMARK    3  A    between atoms: O_3  and  C_10
REMARK    4  A    between atoms: N_6  and  C_8
REMARK    5  A    between atoms: N_6  and  C_9
REMARK    6  A    between atoms: N_7  and  C_17
REMARK    7  A    between atoms: C_13  and  C_17
REMARK    8  A    between atoms: C_23  and  C_24
REMARK                            x       y       z     vdW  Elec       q    Type
REMARK                         _______ _______ _______ _____ _____    ______ ____
ROOT
ATOM      2  O   UNL     1      -1.025   2.618  26.454  0.00  0.00    -0.371 OA
ATOM      9  C   UNL     1       0.137   1.728  24.584  0.00  0.00    +0.111 C 
ATOM     10  C   UNL     1      -0.594   2.988  24.159  0.00  0.00    +0.164 C 
ATOM     13  C   UNL     1      -0.806   3.672  25.503  0.00  0.00    +0.164 C 
ATOM     16  C   UNL     1      -0.593   1.377  25.870  0.00  0.00    +0.181 C 
ENDROOT
BRANCH  10   3
ATOM      3  O   UNL     1       0.167   3.789  23.275  0.00  0.00    -0.388 OA
ATOM     26  H   UNL     1      -0.163   3.647  22.372  0.00  0.00    +0.210 HD
ENDBRANCH  10   3
BRANCH   9   6
ATOM      6  N   UNL     1       0.087   0.664  23.595  0.00  0.00    -0.306 NA
ATOM     25  H   UNL     1      -0.391   0.987  22.755  0.00  0.00    +0.123 HD
BRANCH   6   8
ATOM      8  C   UNL     1       1.420   0.195  23.263  0.00  0.00    +0.054 C 
ATOM     11  C   UNL     1       2.485   1.269  23.449  0.00  0.00    +0.019 C 
ATOM     12  C   UNL     1       1.570  -0.162  21.789  0.00  0.00    +0.019 C 
ATOM     14  C   UNL     1       3.672   0.742  22.645  0.00  0.00    +0.002 C 
ATOM     15  C   UNL     1       3.082  -0.181  21.576  0.00  0.00    +0.002 C 
ENDBRANCH   6   8
ENDBRANCH   9   6
BRANCH  13  17
ATOM     17  C   UNL     1      -1.986   4.626  25.512  0.00  0.00    +0.140 C 
BRANCH  17   7
ATOM      7  N   UNL     1      -3.193   3.916  25.978  0.00  0.00    -0.187 NA
ATOM     27  H   UNL     1      -3.074   3.336  26.818  0.00  0.00    +0.148 HD
BRANCH   7   1
ATOM      1  S   UNL     1      -4.416   3.495  24.872  0.00  0.00    +0.058 S 
ATOM      4  O   UNL     1      -4.153   4.138  23.599  0.00  0.00    -0.153 OA
ATOM      5  O   UNL     1      -5.707   3.648  25.514  0.00  0.00    -0.153 OA
BRANCH   1  18
ATOM     18  C   UNL     1      -4.141   1.761  24.672  0.00  0.00    +0.105 A 
ATOM     19  C   UNL     1      -4.541   0.872  25.670  0.00  0.00    +0.029 A 
ATOM     20  C   UNL     1      -3.520   1.280  23.519  0.00  0.00    +0.029 A 
ATOM     21  C   UNL     1      -4.322  -0.497  25.514  0.00  0.00    +0.005 A 
ATOM     22  C   UNL     1      -3.300  -0.088  23.364  0.00  0.00    +0.005 A 
ATOM     23  C   UNL     1      -3.702  -0.977  24.360  0.00  0.00    -0.050 A 
ATOM     24  C   UNL     1      -3.467  -2.440  24.195  0.00  0.00    +0.044 C 
ENDBRANCH   1  18
ENDBRANCH   7   1
ENDBRANCH  17   7
ENDBRANCH  13  17
TORSDOF 7
ENDMDL
MODEL 2
REMARK VINA RESULT:      -5.0      1.584      2.074
REMARK  Name = 75536698
REMARK  8 active torsions:
REMARK  status: ('A' for Active; 'I' for Inactive)
REMARK    1  A    between atoms: S_1  and  N_7
REMARK    2  A    between atoms: S_1  and  C_18
REMARK    3  A    between atoms: O_3  and  C_10
REMARK    4  A    between atoms: N_6  and  C_8
REMARK    5  A    between atoms: N_6  and  C_9
REMARK    6  A    between atoms: N_7  and  C_17
REMARK    7  A    between atoms: C_13  and  C_17
REMARK    8  A    between atoms: C_23  and  C_24
REMARK                            x       y       z     vdW  Elec       q    Type
REMARK                         _______ _______ _______ _____ _____    ______ ____
ROOT
ATOM      2  O   UNL     1      -1.694   4.521  25.647  0.00  0.00    -0.371 OA
ATOM      9  C   UNL     1      -0.499   2.850  24.456  0.00  0.00    +0.111 C 
ATOM     10  C   UNL     1      -1.986   2.654  24.226  0.00  0.00    +0.164 C 
ATOM     13  C   UNL     1      -2.522   4.035  24.578  0.00  0.00    +0.164 C 
ATOM     16  C   UNL     1      -0.500   3.722  25.702  0.00  0.00    +0.181 C 
ENDROOT
BRANCH  10   3
ATOM      3  O   UNL     1      -2.289   2.296  22.891  0.00  0.00    -0.388 OA
ATOM     26  H   UNL     1      -1.462   2.046  22.446  0.00  0.00    +0.210 HD
ENDBRANCH  10   3
BRANCH   9   6
ATOM      6  N   UNL     1       0.232   1.607  24.637  0.00  0.00    -0.306 NA
ATOM     25  H   UNL     1      -0.388   0.884  25.000  0.00  0.00    +0.123 HD
BRANCH   6   8
ATOM      8  C   UNL     1       0.834   1.169  23.391  0.00  0.00    +0.054 C 
ATOM     11  C   UNL     1       0.447  -0.258  23.018  0.00  0.00    +0.019 C 
ATOM     12  C   UNL     1       2.354   1.084  23.468  0.00  0.00    +0.019 C 
ATOM     14  C   UNL     1       1.498  -0.658  21.985  0.00  0.00    +0.002 C 
ATOM     15  C   UNL     1       2.727   0.208  22.275  0.00  0.00    +0.002 C 
ENDBRANCH   6   8
ENDBRANCH   9   6
BRANCH  13  17
ATOM     17  C   UNL     1      -3.975   4.021  25.018  0.00  0.00    +0.140 C 
BRANCH  17   7
ATOM      7  N   UNL     1      -4.707   2.976  24.276  0.00  0.00    -0.187 NA
ATOM     27  H   UNL     1      -5.028   3.238  23.336  0.00  0.00    +0.148 HD
BRANCH   7   1
ATOM      1  S   UNL     1      -5.570   1.777  25.120  0.00  0.00    +0.058 S 
ATOM      4  O   UNL     1      -6.804   1.489  24.415  0.00  0.00    -0.153 OA
ATOM      5  O   UNL     1      -5.597   2.118  26.529  0.00  0.00    -0.153 OA
BRANCH   1  18
ATOM     18  C   UNL     1      -4.506   0.376  24.948  0.00  0.00    +0.105 A 
ATOM     19  C   UNL     1      -3.336   0.293  25.703  0.00  0.00    +0.029 A 
ATOM     20  C   UNL     1      -4.832  -0.643  24.054  0.00  0.00    +0.029 A 
ATOM     21  C   UNL     1      -2.494  -0.811  25.566  0.00  0.00    +0.005 A 
ATOM     22  C   UNL     1      -3.990  -1.746  23.916  0.00  0.00    +0.005 A 
ATOM     23  C   UNL     1      -2.822  -1.830  24.672  0.00  0.00    -0.050 A 
ATOM     24  C   UNL     1      -1.921  -3.010  24.525  0.00  0.00    +0.044 C 
ENDBRANCH   1  18
ENDBRANCH   7   1
ENDBRANCH  17   7
ENDBRANCH  13  17
TORSDOF 7
ENDMDL
MODEL 3
REMARK VINA RESULT:      -4.6      2.000      4.769
REMARK  Name = 75536698
REMARK  8 active torsions:
REMARK  status: ('A' for Active; 'I' for Inactive)
REMARK    1  A    between atoms: S_1  and  N_7
REMARK    2  A    between atoms: S_1  and  C_18
REMARK    3  A    between atoms: O_3  and  C_10
REMARK    4  A    between atoms: N_6  and  C_8
REMARK    5  A    between atoms: N_6  and  C_9
REMARK    6  A    between atoms: N_7  and  C_17
REMARK    7  A    between atoms: C_13  and  C_17
REMARK    8  A    between atoms: C_23  and  C_24
REMARK                            x       y       z     vdW  Elec       q    Type
REMARK                         _______ _______ _______ _____ _____    ______ ____
ROOT
ATOM      2  O   UNL     1      -4.574   2.273  23.545  0.00  0.00    -0.371 OA
ATOM      9  C   UNL     1      -4.987   0.438  24.996  0.00  0.00    +0.111 C 
ATOM     10  C   UNL     1      -5.136   1.730  25.777  0.00  0.00    +0.164 C 
ATOM     13  C   UNL     1      -5.370   2.729  24.651  0.00  0.00    +0.164 C 
ATOM     16  C   UNL     1      -4.192   0.908  23.788  0.00  0.00    +0.181 C 
ENDROOT
BRANCH  10   3
ATOM      3  O   UNL     1      -6.221   1.697  26.685  0.00  0.00    -0.388 OA
ATOM     26  H   UNL     1      -6.461   2.612  26.908  0.00  0.00    +0.210 HD
ENDBRANCH  10   3
BRANCH   9   6
ATOM      6  N   UNL     1      -4.318  -0.617  25.738  0.00  0.00    -0.306 NA
ATOM     25  H   UNL     1      -4.927  -1.431  25.818  0.00  0.00    +0.123 HD
BRANCH   6   8
ATOM      8  C   UNL     1      -3.066  -0.990  25.103  0.00  0.00    +0.054 C 
ATOM     11  C   UNL     1      -3.053  -2.440  24.632  0.00  0.00    +0.019 C 
ATOM     12  C   UNL     1      -1.883  -0.949  26.062  0.00  0.00    +0.019 C 
ATOM     14  C   UNL     1      -1.570  -2.740  24.432  0.00  0.00    +0.002 C 
ATOM     15  C   UNL     1      -0.815  -1.778  25.353  0.00  0.00    +0.002 C 
ENDBRANCH   6   8
ENDBRANCH   9   6
BRANCH  13  17
ATOM     17  C   UNL     1      -4.977   4.149  25.017  0.00  0.00    +0.140 C 
BRANCH  17   7
ATOM      7  N   UNL     1      -3.644   4.452  24.460  0.00  0.00    -0.187 NA
ATOM     27  H   UNL     1      -3.518   4.241  23.462  0.00  0.00    +0.148 HD
BRANCH   7   1
ATOM      1  S   UNL     1      -2.274   4.436  25.469  0.00  0.00    +0.058 S 
ATOM      4  O   UNL     1      -2.668   4.032  26.806  0.00  0.00    -0.153 OA
ATOM      5  O   UNL     1      -1.525   5.661  25.268  0.00  0.00    -0.153 OA
BRANCH   1  18
ATOM     18  C   UNL     1      -1.321   3.125  24.764  0.00  0.00    +0.105 A 
ATOM     19  C   UNL     1      -0.193   2.646  25.432  0.00  0.00    +0.029 A 
ATOM     20  C   UNL     1      -1.693   2.571  23.539  0.00  0.00    +0.029 A 
ATOM     21  C   UNL     1       0.562   1.614  24.875  0.00  0.00    +0.005 A 
ATOM     22  C   UNL     1      -0.938   1.540  22.982  0.00  0.00    +0.005 A 
ATOM     23  C   UNL     1       0.188   1.060  23.650  0.00  0.00    -0.050 A 
ATOM     24  C   UNL     1       0.996  -0.043  23.054  0.00  0.00    +0.044 C 
ENDBRANCH   1  18
ENDBRANCH   7   1
ENDBRANCH  17   7
ENDBRANCH  13  17
TORSDOF 7
ENDMDL
MODEL 4
REMARK VINA RESULT:      -4.5      2.950      4.917
REMARK  Name = 75536698
REMARK  8 active torsions:
REMARK  status: ('A' for Active; 'I' for Inactive)
REMARK    1  A    between atoms: S_1  and  N_7
REMARK    2  A    between atoms: S_1  and  C_18
REMARK    3  A    between atoms: O_3  and  C_10
REMARK    4  A    between atoms: N_6  and  C_8
REMARK    5  A    between atoms: N_6  and  C_9
REMARK    6  A    between atoms: N_7  and  C_17
REMARK    7  A    between atoms: C_13  and  C_17
REMARK    8  A    between atoms: C_23  and  C_24
REMARK                            x       y       z     vdW  Elec       q    Type
REMARK                         _______ _______ _______ _____ _____    ______ ____
ROOT
ATOM      2  O   UNL     1       0.116   0.191  23.596  0.00  0.00    -0.371 OA
ATOM      9  C   UNL     1      -0.032   1.209  25.737  0.00  0.00    +0.111 C 
ATOM     10  C   UNL     1      -0.906  -0.031  25.717  0.00  0.00    +0.164 C 
ATOM     13  C   UNL     1      -0.299  -0.800  24.551  0.00  0.00    +0.164 C 
ATOM     16  C   UNL     1       0.152   1.471  24.250  0.00  0.00    +0.181 C 
ENDROOT
BRANCH  10   3
ATOM      3  O   UNL     1      -0.838  -0.766  26.924  0.00  0.00    -0.388 OA
ATOM     26  H   UNL     1      -1.577  -1.398  26.939  0.00  0.00    +0.210 HD
ENDBRANCH  10   3
BRANCH   9   6
ATOM      6  N   UNL     1      -0.630   2.332  26.440  0.00  0.00    -0.306 NA
ATOM     25  H   UNL     1       0.057   2.767  27.055  0.00  0.00    +0.123 HD
BRANCH   6   8
ATOM      8  C   UNL     1      -1.157   3.311  25.507  0.00  0.00    +0.054 C 
ATOM     11  C   UNL     1      -0.104   4.312  25.044  0.00  0.00    +0.019 C 
ATOM     12  C   UNL     1      -2.212   4.216  26.135  0.00  0.00    +0.019 C 
ATOM     14  C   UNL     1      -0.928   5.463  24.473  0.00  0.00    +0.002 C 
ATOM     15  C   UNL     1      -2.287   5.401  25.175  0.00  0.00    +0.002 C 
ENDBRANCH   6   8
ENDBRANCH   9   6
BRANCH  13  17
ATOM     17  C   UNL     1      -1.269  -1.767  23.898  0.00  0.00    +0.140 C 
BRANCH  17   7
ATOM      7  N   UNL     1      -2.526  -1.064  23.573  0.00  0.00    -0.187 NA
ATOM     27  H   UNL     1      -2.421  -0.167  23.082  0.00  0.00    +0.148 HD
BRANCH   7   1
ATOM      1  S   UNL     1      -3.911  -1.304  24.532  0.00  0.00    +0.058 S 
ATOM      4  O   UNL     1      -3.514  -1.837  25.822  0.00  0.00    -0.153 OA
ATOM      5  O   UNL     1      -4.920  -1.981  23.742  0.00  0.00    -0.153 OA
BRANCH   1  18
ATOM     18  C   UNL     1      -4.472   0.353  24.778  0.00  0.00    +0.105 A 
ATOM     19  C   UNL     1      -5.416   0.630  25.767  0.00  0.00    +0.029 A 
ATOM     20  C   UNL     1      -3.975   1.385  23.982  0.00  0.00    +0.029 A 
ATOM     21  C   UNL     1      -5.863   1.937  25.961  0.00  0.00    +0.005 A 
ATOM     22  C   UNL     1      -4.421   2.692  24.175  0.00  0.00    +0.005 A 
ATOM     23  C   UNL     1      -5.364   2.968  25.164  0.00  0.00    -0.050 A 
ATOM     24  C   UNL     1      -5.842   4.366  25.371  0.00  0.00    +0.044 C 
ENDBRANCH   1  18
ENDBRANCH   7   1
ENDBRANCH  17   7
ENDBRANCH  13  17
TORSDOF 7
ENDMDL
MODEL 5
REMARK VINA RESULT:      -4.5      3.131      6.409
REMARK  Name = 75536698
REMARK  8 active torsions:
REMARK  status: ('A' for Active; 'I' for Inactive)
REMARK    1  A    between atoms: S_1  and  N_7
REMARK    2  A    between atoms: S_1  and  C_18
REMARK    3  A    between atoms: O_3  and  C_10
REMARK    4  A    between atoms: N_6  and  C_8
REMARK    5  A    between atoms: N_6  and  C_9
REMARK    6  A    between atoms: N_7  and  C_17
REMARK    7  A    between atoms: C_13  and  C_17
REMARK    8  A    between atoms: C_23  and  C_24
REMARK                            x       y       z     vdW  Elec       q    Type
REMARK                         _______ _______ _______ _____ _____    ______ ____
ROOT
ATOM      2  O   UNL     1      -1.506  -0.798  25.945  0.00  0.00    -0.371 OA
ATOM      9  C   UNL     1      -3.797  -0.783  25.319  0.00  0.00    +0.111 C 
ATOM     10  C   UNL     1      -3.017  -1.621  24.323  0.00  0.00    +0.164 C 
ATOM     13  C   UNL     1      -1.769  -1.953  25.132  0.00  0.00    +0.164 C 
ATOM     16  C   UNL     1      -2.684   0.026  25.967  0.00  0.00    +0.181 C 
ENDROOT
BRANCH  10   3
ATOM      3  O   UNL     1      -3.714  -2.788  23.928  0.00  0.00    -0.388 OA
ATOM     26  H   UNL     1      -3.726  -3.405  24.679  0.00  0.00    +0.210 HD
ENDBRANCH  10   3
BRANCH   9   6
ATOM      6  N   UNL     1      -4.819   0.049  24.706  0.00  0.00    -0.306 NA
ATOM     25  H   UNL     1      -5.746  -0.297  24.948  0.00  0.00    +0.123 HD
BRANCH   6   8
ATOM      8  C   UNL     1      -4.680   1.435  25.118  0.00  0.00    +0.054 C 
ATOM     11  C   UNL     1      -5.899   1.950  25.875  0.00  0.00    +0.019 C 
ATOM     12  C   UNL     1      -4.600   2.396  23.937  0.00  0.00    +0.019 C 
ATOM     14  C   UNL     1      -5.751   3.468  25.806  0.00  0.00    +0.002 C 
ATOM     15  C   UNL     1      -4.912   3.755  24.557  0.00  0.00    +0.002 C 
ENDBRANCH   6   8
ENDBRANCH   9   6
BRANCH  13  17
ATOM     17  C   UNL     1      -0.559  -2.261  24.269  0.00  0.00    +0.140 C 
BRANCH  17   7
ATOM      7  N   UNL     1       0.474  -1.228  24.478  0.00  0.00    -0.187 NA
ATOM     27  H   UNL     1       0.649  -0.963  25.455  0.00  0.00    +0.148 HD
BRANCH   7   1
ATOM      1  S   UNL     1       0.796  -0.085  23.260  0.00  0.00    +0.058 S 
ATOM      4  O   UNL     1       0.084  -0.457  22.052  0.00  0.00    -0.153 OA
ATOM      5  O   UNL     1       2.223   0.169  23.216  0.00  0.00    -0.153 OA
BRANCH   1  18
ATOM     18  C   UNL     1       0.032   1.368  23.916  0.00  0.00    +0.105 A 
ATOM     19  C   UNL     1       0.453   1.884  25.142  0.00  0.00    +0.029 A 
ATOM     20  C   UNL     1      -0.994   1.996  23.210  0.00  0.00    +0.029 A 
ATOM     21  C   UNL     1      -0.151   3.028  25.662  0.00  0.00    +0.005 A 
ATOM     22  C   UNL     1      -1.599   3.140  23.730  0.00  0.00    +0.005 A 
ATOM     23  C   UNL     1      -1.177   3.657  24.955  0.00  0.00    -0.050 A 
ATOM     24  C   UNL     1      -1.824   4.880  25.512  0.00  0.00    +0.044 C 
ENDBRANCH   1  18
ENDBRANCH   7   1
ENDBRANCH  17   7
ENDBRANCH  13  17
TORSDOF 7
ENDMDL
MODEL 6
REMARK VINA RESULT:      -4.3      1.785      5.210
REMARK  Name = 75536698
REMARK  8 active torsions:
REMARK  status: ('A' for Active; 'I' for Inactive)
REMARK    1  A    between atoms: S_1  and  N_7
REMARK    2  A    between atoms: S_1  and  C_18
REMARK    3  A    between atoms: O_3  and  C_10
REMARK    4  A    between atoms: N_6  and  C_8
REMARK    5  A    between atoms: N_6  and  C_9
REMARK    6  A    between atoms: N_7  and  C_17
REMARK    7  A    between atoms: C_13  and  C_17
REMARK    8  A    between atoms: C_23  and  C_24
REMARK                            x       y       z     vdW  Elec       q    Type
REMARK                         _______ _______ _______ _____ _____    ______ ____
ROOT
ATOM      2  O   UNL     1      -2.571   3.130  23.647  0.00  0.00    -0.371 OA
ATOM      9  C   UNL     1      -4.544   1.966  24.273  0.00  0.00    +0.111 C 
ATOM     10  C   UNL     1      -4.094   2.836  25.432  0.00  0.00    +0.164 C 
ATOM     13  C   UNL     1      -3.212   3.849  24.714  0.00  0.00    +0.164 C 
ATOM     16  C   UNL     1      -3.273   1.893  23.441  0.00  0.00    +0.181 C 
ENDROOT
BRANCH  10   3
ATOM      3  O   UNL     1      -5.174   3.458  26.099  0.00  0.00    -0.388 OA
ATOM     26  H   UNL     1      -5.785   2.766  26.405  0.00  0.00    +0.210 HD
ENDBRANCH  10   3
BRANCH   9   6
ATOM      6  N   UNL     1      -5.030   0.658  24.680  0.00  0.00    -0.306 NA
ATOM     25  H   UNL     1      -5.839   0.393  24.119  0.00  0.00    +0.123 HD
BRANCH   6   8
ATOM      8  C   UNL     1      -3.989  -0.347  24.561  0.00  0.00    +0.054 C 
ATOM     11  C   UNL     1      -4.455  -1.592  23.815  0.00  0.00    +0.019 C 
ATOM     12  C   UNL     1      -3.560  -0.915  25.908  0.00  0.00    +0.019 C 
ATOM     14  C   UNL     1      -3.417  -2.647  24.191  0.00  0.00    +0.002 C 
ATOM     15  C   UNL     1      -2.839  -2.209  25.540  0.00  0.00    +0.002 C 
ENDBRANCH   6   8
ENDBRANCH   9   6
BRANCH  13  17
ATOM     17  C   UNL     1      -2.163   4.477  25.613  0.00  0.00    +0.140 C 
BRANCH  17   7
ATOM      7  N   UNL     1      -0.837   3.911  25.297  0.00  0.00    -0.187 NA
ATOM     27  H   UNL     1      -0.483   4.103  24.351  0.00  0.00    +0.148 HD
BRANCH   7   1
ATOM      1  S   UNL     1      -0.296   2.508  26.092  0.00  0.00    +0.058 S 
ATOM      4  O   UNL     1      -1.428   1.837  26.704  0.00  0.00    -0.153 OA
ATOM      5  O   UNL     1       0.873   2.835  26.885  0.00  0.00    -0.153 OA
BRANCH   1  18
ATOM     18  C   UNL     1       0.258   1.515  24.739  0.00  0.00    +0.105 A 
ATOM     19  C   UNL     1      -0.396   0.320  24.438  0.00  0.00    +0.029 A 
ATOM     20  C   UNL     1       1.350   1.923  23.974  0.00  0.00    +0.029 A 
ATOM     21  C   UNL     1       0.042  -0.466  23.372  0.00  0.00    +0.005 A 
ATOM     22  C   UNL     1       1.788   1.138  22.909  0.00  0.00    +0.005 A 
ATOM     23  C   UNL     1       1.134  -0.056  22.607  0.00  0.00    -0.050 A 
ATOM     24  C   UNL     1       1.602  -0.897  21.468  0.00  0.00    +0.044 C 
ENDBRANCH   1  18
ENDBRANCH   7   1
ENDBRANCH  17   7
ENDBRANCH  13  17
TORSDOF 7
ENDMDL
MODEL 7
REMARK VINA RESULT:      -4.2      2.562      4.938
REMARK  Name = 75536698
REMARK  8 active torsions:
REMARK  status: ('A' for Active; 'I' for Inactive)
REMARK    1  A    between atoms: S_1  and  N_7
REMARK    2  A    between atoms: S_1  and  C_18
REMARK    3  A    between atoms: O_3  and  C_10
REMARK    4  A    between atoms: N_6  and  C_8
REMARK    5  A    between atoms: N_6  and  C_9
REMARK    6  A    between atoms: N_7  and  C_17
REMARK    7  A    between atoms: C_13  and  C_17
REMARK    8  A    between atoms: C_23  and  C_24
REMARK                            x       y       z     vdW  Elec       q    Type
REMARK                         _______ _______ _______ _____ _____    ______ ____
ROOT
ATOM      2  O   UNL     1      -5.841   2.593  26.006  0.00  0.00    -0.371 OA
ATOM      9  C   UNL     1      -4.276   4.065  24.993  0.00  0.00    +0.111 C 
ATOM     10  C   UNL     1      -4.204   2.716  24.303  0.00  0.00    +0.164 C 
ATOM     13  C   UNL     1      -5.556   2.121  24.678  0.00  0.00    +0.164 C 
ATOM     16  C   UNL     1      -4.970   3.700  26.296  0.00  0.00    +0.181 C 
ENDROOT
BRANCH  10   3
ATOM      3  O   UNL     1      -4.050   2.827  22.901  0.00  0.00    -0.388 OA
ATOM     26  H   UNL     1      -4.911   3.060  22.516  0.00  0.00    +0.210 HD
ENDBRANCH  10   3
BRANCH   9   6
ATOM      6  N   UNL     1      -2.977   4.685  25.197  0.00  0.00    -0.306 NA
ATOM     25  H   UNL     1      -2.951   5.156  26.101  0.00  0.00    +0.123 HD
BRANCH   6   8
ATOM      8  C   UNL     1      -1.911   3.703  25.115  0.00  0.00    +0.054 C 
ATOM     11  C   UNL     1      -1.536   3.124  26.474  0.00  0.00    +0.019 C 
ATOM     12  C   UNL     1      -0.592   4.303  24.641  0.00  0.00    +0.019 C 
ATOM     14  C   UNL     1      -0.163   2.502  26.235  0.00  0.00    +0.002 C 
ATOM     15  C   UNL     1       0.445   3.261  25.052  0.00  0.00    +0.002 C 
ENDBRANCH   6   8
ENDBRANCH   9   6
BRANCH  13  17
ATOM     17  C   UNL     1      -5.571   0.604  24.658  0.00  0.00    +0.140 C 
BRANCH  17   7
ATOM      7  N   UNL     1      -4.396   0.087  25.386  0.00  0.00    -0.187 NA
ATOM     27  H   UNL     1      -3.798   0.795  25.829  0.00  0.00    +0.148 HD
BRANCH   7   1
ATOM      1  S   UNL     1      -3.693  -1.394  24.930  0.00  0.00    +0.058 S 
ATOM      4  O   UNL     1      -4.406  -1.931  23.786  0.00  0.00    -0.153 OA
ATOM      5  O   UNL     1      -3.495  -2.207  26.113  0.00  0.00    -0.153 OA
BRANCH   1  18
ATOM     18  C   UNL     1      -2.093  -0.881  24.382  0.00  0.00    +0.105 A 
ATOM     19  C   UNL     1      -1.956   0.282  23.623  0.00  0.00    +0.029 A 
ATOM     20  C   UNL     1      -0.968  -1.639  24.704  0.00  0.00    +0.029 A 
ATOM     21  C   UNL     1      -0.694   0.687  23.187  0.00  0.00    +0.005 A 
ATOM     22  C   UNL     1       0.294  -1.235  24.268  0.00  0.00    +0.005 A 
ATOM     23  C   UNL     1       0.431  -0.072  23.510  0.00  0.00    -0.050 A 
ATOM     24  C   UNL     1       1.780   0.360  23.044  0.00  0.00    +0.044 C 
ENDBRANCH   1  18
ENDBRANCH   7   1
ENDBRANCH  17   7
ENDBRANCH  13  17
TORSDOF 7
ENDMDL
MODEL 8
REMARK VINA RESULT:      -4.2      1.629      2.543
REMARK  Name = 75536698
REMARK  8 active torsions:
REMARK  status: ('A' for Active; 'I' for Inactive)
REMARK    1  A    between atoms: S_1  and  N_7
REMARK    2  A    between atoms: S_1  and  C_18
REMARK    3  A    between atoms: O_3  and  C_10
REMARK    4  A    between atoms: N_6  and  C_8
REMARK    5  A    between atoms: N_6  and  C_9
REMARK    6  A    between atoms: N_7  and  C_17
REMARK    7  A    between atoms: C_13  and  C_17
REMARK    8  A    between atoms: C_23  and  C_24
REMARK                            x       y       z     vdW  Elec       q    Type
REMARK                         _______ _______ _______ _____ _____    ______ ____
ROOT
ATOM      2  O   UNL     1      -0.600   3.103  26.547  0.00  0.00    -0.371 OA
ATOM      9  C   UNL     1       0.300   2.011  24.639  0.00  0.00    +0.111 C 
ATOM     10  C   UNL     1      -0.597   3.146  24.183  0.00  0.00    +0.164 C 
ATOM     13  C   UNL     1      -0.635   4.012  25.435  0.00  0.00    +0.164 C 
ATOM     16  C   UNL     1      -0.169   1.815  26.072  0.00  0.00    +0.181 C 
ENDROOT
BRANCH  10   3
ATOM      3  O   UNL     1      -0.068   3.848  23.074  0.00  0.00    -0.388 OA
ATOM     26  H   UNL     1       0.848   4.098  23.279  0.00  0.00    +0.210 HD
ENDBRANCH  10   3
BRANCH   9   6
ATOM      6  N   UNL     1       0.173   0.808  23.833  0.00  0.00    -0.306 NA
ATOM     25  H   UNL     1       1.015   0.668  23.276  0.00  0.00    +0.123 HD
BRANCH   6   8
ATOM      8  C   UNL     1      -0.074  -0.355  24.666  0.00  0.00    +0.054 C 
ATOM     11  C   UNL     1      -0.518  -1.572  23.862  0.00  0.00    +0.019 C 
ATOM     12  C   UNL     1      -1.240  -0.157  25.627  0.00  0.00    +0.019 C 
ATOM     14  C   UNL     1      -1.140  -2.490  24.912  0.00  0.00    +0.002 C 
ATOM     15  C   UNL     1      -1.605  -1.577  26.051  0.00  0.00    +0.002 C 
ENDBRANCH   6   8
ENDBRANCH   9   6
BRANCH  13  17
ATOM     17  C   UNL     1      -1.874   4.885  25.525  0.00  0.00    +0.140 C 
BRANCH  17   7
ATOM      7  N   UNL     1      -3.035   4.058  25.909  0.00  0.00    -0.187 NA
ATOM     27  H   UNL     1      -2.844   3.305  26.581  0.00  0.00    +0.148 HD
BRANCH   7   1
ATOM      1  S   UNL     1      -4.343   3.873  24.836  0.00  0.00    +0.058 S 
ATOM      4  O   UNL     1      -4.042   4.555  23.592  0.00  0.00    -0.153 OA
ATOM      5  O   UNL     1      -5.577   4.154  25.543  0.00  0.00    -0.153 OA
BRANCH   1  18
ATOM     18  C   UNL     1      -4.310   2.133  24.524  0.00  0.00    +0.105 A 
ATOM     19  C   UNL     1      -3.571   1.631  23.452  0.00  0.00    +0.029 A 
ATOM     20  C   UNL     1      -5.026   1.263  25.345  0.00  0.00    +0.029 A 
ATOM     21  C   UNL     1      -3.547   0.259  23.203  0.00  0.00    +0.005 A 
ATOM     22  C   UNL     1      -5.003  -0.109  25.096  0.00  0.00    +0.005 A 
ATOM     23  C   UNL     1      -4.262  -0.611  24.026  0.00  0.00    -0.050 A 
ATOM     24  C   UNL     1      -4.237  -2.078  23.758  0.00  0.00    +0.044 C 
ENDBRANCH   1  18
ENDBRANCH   7   1
ENDBRANCH  17   7
ENDBRANCH  13  17
TORSDOF 7
ENDMDL
MODEL 9
REMARK VINA RESULT:      -4.1      2.230      4.402
REMARK  Name = 75536698
REMARK  8 active torsions:
REMARK  status: ('A' for Active; 'I' for Inactive)
REMARK    1  A    between atoms: S_1  and  N_7
REMARK    2  A    between atoms: S_1  and  C_18
REMARK    3  A    between atoms: O_3  and  C_10
REMARK    4  A    between atoms: N_6  and  C_8
REMARK    5  A    between atoms: N_6  and  C_9
REMARK    6  A    between atoms: N_7  and  C_17
REMARK    7  A    between atoms: C_13  and  C_17
REMARK    8  A    between atoms: C_23  and  C_24
REMARK                            x       y       z     vdW  Elec       q    Type
REMARK                         _______ _______ _______ _____ _____    ______ ____
ROOT
ATOM      2  O   UNL     1       0.946   1.425  23.887  0.00  0.00    -0.371 OA
ATOM      9  C   UNL     1      -0.573  -0.395  24.033  0.00  0.00    +0.111 C 
ATOM     10  C   UNL     1      -0.689   0.448  25.290  0.00  0.00    +0.164 C 
ATOM     13  C   UNL     1      -0.099   1.769  24.812  0.00  0.00    +0.164 C 
ATOM     16  C   UNL     1       0.776   0.052  23.494  0.00  0.00    +0.181 C 
ENDROOT
BRANCH  10   3
ATOM      3  O   UNL     1      -2.026   0.596  25.727  0.00  0.00    -0.388 OA
ATOM     26  H   UNL     1      -2.049   1.283  26.414  0.00  0.00    +0.210 HD
ENDBRANCH  10   3
BRANCH   9   6
ATOM      6  N   UNL     1      -0.637  -1.826  24.283  0.00  0.00    -0.306 NA
ATOM     25  H   UNL     1      -0.370  -2.026  25.247  0.00  0.00    +0.123 HD
BRANCH   6   8
ATOM      8  C   UNL     1      -1.966  -2.345  24.014  0.00  0.00    +0.054 C 
ATOM     11  C   UNL     1      -2.937  -1.265  23.550  0.00  0.00    +0.019 C 
ATOM     12  C   UNL     1      -2.652  -2.885  25.263  0.00  0.00    +0.019 C 
ATOM     14  C   UNL     1      -4.310  -1.900  23.764  0.00  0.00    +0.002 C 
ATOM     15  C   UNL     1      -4.125  -2.945  24.867  0.00  0.00    +0.002 C 
ENDBRANCH   6   8
ENDBRANCH   9   6
BRANCH  13  17
ATOM     17  C   UNL     1       0.469   2.614  25.937  0.00  0.00    +0.140 C 
BRANCH  17   7
ATOM      7  N   UNL     1      -0.429   3.756  26.201  0.00  0.00    -0.187 NA
ATOM     27  H   UNL     1      -0.875   3.768  27.127  0.00  0.00    +0.148 HD
BRANCH   7   1
ATOM      1  S   UNL     1      -1.222   4.533  24.912  0.00  0.00    +0.058 S 
ATOM      4  O   UNL     1      -0.530   4.232  23.673  0.00  0.00    -0.153 OA
ATOM      5  O   UNL     1      -1.487   5.910  25.283  0.00  0.00    -0.153 OA
BRANCH   1  18
ATOM     18  C   UNL     1      -2.777   3.695  24.884  0.00  0.00    +0.105 A 
ATOM     19  C   UNL     1      -3.133   2.922  23.779  0.00  0.00    +0.029 A 
ATOM     20  C   UNL     1      -3.651   3.810  25.965  0.00  0.00    +0.029 A 
ATOM     21  C   UNL     1      -4.362   2.262  23.755  0.00  0.00    +0.005 A 
ATOM     22  C   UNL     1      -4.880   3.151  25.941  0.00  0.00    +0.005 A 
ATOM     23  C   UNL     1      -5.235   2.377  24.837  0.00  0.00    -0.050 A 
ATOM     24  C   UNL     1      -6.549   1.672  24.810  0.00  0.00    +0.044 C 
ENDBRANCH   1  18
ENDBRANCH   7   1
ENDBRANCH  17   7
ENDBRANCH  13  17
TORSDOF 7
ENDMDL
MODEL 10
REMARK VINA RESULT:      -3.3      2.388      6.544
REMARK  Name = 75536698
REMARK  8 active torsions:
REMARK  status: ('A' for Active; 'I' for Inactive)
REMARK    1  A    between atoms: S_1  and  N_7
REMARK    2  A    between atoms: S_1  and  C_18
REMARK    3  A    between atoms: O_3  and  C_10
REMARK    4  A    between atoms: N_6  and  C_8
REMARK    5  A    between atoms: N_6  and  C_9
REMARK    6  A    between atoms: N_7  and  C_17
REMARK    7  A    between atoms: C_13  and  C_17
REMARK    8  A    between atoms: C_23  and  C_24
REMARK                            x       y       z     vdW  Elec       q    Type
REMARK                         _______ _______ _______ _____ _____    ______ ____
ROOT
ATOM      2  O   UNL     1      -1.905   2.518  22.665  0.00  0.00    -0.371 OA
ATOM      9  C   UNL     1      -3.455   1.975  24.381  0.00  0.00    +0.111 C 
ATOM     10  C   UNL     1      -2.059   2.022  24.972  0.00  0.00    +0.164 C 
ATOM     13  C   UNL     1      -1.328   2.865  23.935  0.00  0.00    +0.164 C 
ATOM     16  C   UNL     1      -3.149   1.835  22.898  0.00  0.00    +0.181 C 
ENDROOT
BRANCH  10   3
ATOM      3  O   UNL     1      -2.029   2.620  26.254  0.00  0.00    -0.388 OA
ATOM     26  H   UNL     1      -2.133   1.921  26.921  0.00  0.00    +0.210 HD
ENDBRANCH  10   3
BRANCH   9   6
ATOM      6  N   UNL     1      -4.270   0.887  24.895  0.00  0.00    -0.306 NA
ATOM     25  H   UNL     1      -5.182   0.884  24.438  0.00  0.00    +0.123 HD
BRANCH   6   8
ATOM      8  C   UNL     1      -3.612  -0.394  24.706  0.00  0.00    +0.054 C 
ATOM     11  C   UNL     1      -4.441  -1.365  23.874  0.00  0.00    +0.019 C 
ATOM     12  C   UNL     1      -3.425  -1.159  26.010  0.00  0.00    +0.019 C 
ATOM     14  C   UNL     1      -3.814  -2.724  24.176  0.00  0.00    +0.002 C 
ATOM     15  C   UNL     1      -3.157  -2.591  25.553  0.00  0.00    +0.002 C 
ENDBRANCH   6   8
ENDBRANCH   9   6
BRANCH  13  17
ATOM     17  C   UNL     1       0.169   2.616  23.905  0.00  0.00    +0.140 C 
BRANCH  17   7
ATOM      7  N   UNL     1       0.463   1.296  24.495  0.00  0.00    -0.187 NA
ATOM     27  H   UNL     1       0.921   1.309  25.415  0.00  0.00    +0.148 HD
BRANCH   7   1
ATOM      1  S   UNL     1       0.714  -0.052  23.487  0.00  0.00    +0.058 S 
ATOM      4  O   UNL     1       0.221   0.247  22.156  0.00  0.00    -0.153 OA
ATOM      5  O   UNL     1       0.271  -1.247  24.178  0.00  0.00    -0.153 OA
BRANCH   1  18
ATOM     18  C   UNL     1       2.479  -0.123  23.410  0.00  0.00    +0.105 A 
ATOM     19  C   UNL     1       3.200   0.976  22.943  0.00  0.00    +0.029 A 
ATOM     20  C   UNL     1       3.149  -1.277  23.813  0.00  0.00    +0.029 A 
ATOM     21  C   UNL     1       4.593   0.921  22.879  0.00  0.00    +0.005 A 
ATOM     22  C   UNL     1       4.541  -1.333  23.749  0.00  0.00    +0.005 A 
ATOM     23  C   UNL     1       5.263  -0.235  23.283  0.00  0.00    -0.050 A 
ATOM     24  C   UNL     1       6.752  -0.294  23.214  0.00  0.00    +0.044 C 
ENDBRANCH   1  18
ENDBRANCH   7   1
ENDBRANCH  17   7
ENDBRANCH  13  17
TORSDOF 7
ENDMDL
