MODEL 1
REMARK VINA RESULT:      -1.0      0.000      0.000
REMARK  Name = 28960641
REMARK  5 active torsions:
REMARK  status: ('A' for Active; 'I' for Inactive)
REMARK    1  A    between atoms: N_3  and  C_21
REMARK    2  A    between atoms: N_4  and  C_10
REMARK    3  A    between atoms: N_5  and  C_14
REMARK    4  A    between atoms: C_11  and  C_20
REMARK    5  A    between atoms: C_23  and  C_24
REMARK                            x       y       z     vdW  Elec       q    Type
REMARK                         _______ _______ _______ _____ _____    ______ ____
ROOT
ATOM      3  N   UNL     1      -2.374  -1.972  25.116  0.00  0.00    -0.293 NA
ATOM     10  C   UNL     1      -4.339  -1.010  24.311  0.00  0.00    +0.090 C 
ATOM     11  C   UNL     1      -2.033  -1.573  23.737  0.00  0.00    +0.147 C 
ATOM     12  C   UNL     1      -3.268  -0.799  23.241  0.00  0.00    +0.052 C 
ATOM     13  C   UNL     1      -3.825  -2.190  25.123  0.00  0.00    +0.107 C 
ATOM     21  C   UNL     1      -1.646  -3.151  25.569  0.00  0.00    +0.105 C 
ENDROOT
BRANCH  10   4
ATOM      2  O   UNL     1      -4.000   1.727  23.498  0.00  0.00    -0.253 OA
ATOM      4  N   UNL     1      -4.504   0.163  25.136  0.00  0.00    -0.295 N 
ATOM      5  N   UNL     1      -4.539   2.401  25.652  0.00  0.00    -0.297 N 
ATOM     22  C   UNL     1      -4.318   1.457  24.654  0.00  0.00    +0.300 C 
ATOM     28  H   UNL     1      -4.695   0.038  26.126  0.00  0.00    +0.151 HD
ATOM     29  H   UNL     1      -4.726   2.066  26.592  0.00  0.00    +0.151 HD
BRANCH   5  14
ATOM     14  C   UNL     1      -4.416   3.826  25.433  0.00  0.00    +0.074 C 
ATOM     15  C   UNL     1      -3.646   4.494  26.577  0.00  0.00    +0.022 C 
ATOM     16  C   UNL     1      -3.766   4.122  24.078  0.00  0.00    +0.022 C 
ATOM     17  C   UNL     1      -2.155   4.156  26.554  0.00  0.00    +0.002 C 
ATOM     18  C   UNL     1      -2.275   3.784  24.058  0.00  0.00    +0.002 C 
ATOM     19  C   UNL     1      -1.528   4.469  25.199  0.00  0.00    +0.000 C 
ENDBRANCH   5  14
ENDBRANCH  10   4
BRANCH  11  20
ATOM      1  O   UNL     1      -0.899   0.592  23.705  0.00  0.00    -0.336 OA
ATOM      6  N   UNL     1       0.477  -1.164  23.503  0.00  0.00    -0.189 NA
ATOM      7  N   UNL     1       0.394   1.119  23.596  0.00  0.00    -0.054 NA
ATOM     20  C   UNL     1      -0.760  -0.759  23.642  0.00  0.00    +0.245 A 
ATOM     23  C   UNL     1       1.149   0.023  23.481  0.00  0.00    +0.222 A 
BRANCH  23  24
ATOM      8  N   UNL     1       3.095   1.239  22.894  0.00  0.00    -0.249 NA
ATOM      9  N   UNL     1       4.710  -0.964  23.529  0.00  0.00    -0.260 NA
ATOM     24  C   UNL     1       2.575   0.079  23.343  0.00  0.00    +0.129 A 
ATOM     25  C   UNL     1       3.368  -1.003  23.654  0.00  0.00    +0.142 A 
ATOM     26  C   UNL     1       4.436   1.278  22.769  0.00  0.00    +0.131 A 
ATOM     27  C   UNL     1       5.229   0.196  23.081  0.00  0.00    +0.130 A 
ENDBRANCH  23  24
ENDBRANCH  11  20
TORSDOF 4
ENDMDL
MODEL 2
REMARK VINA RESULT:      -0.7      1.588      4.643
REMARK  Name = 28960641
REMARK  5 active torsions:
REMARK  status: ('A' for Active; 'I' for Inactive)
REMARK    1  A    between atoms: N_3  and  C_21
REMARK    2  A    between atoms: N_4  and  C_10
REMARK    3  A    between atoms: N_5  and  C_14
REMARK    4  A    between atoms: C_11  and  C_20
REMARK    5  A    between atoms: C_23  and  C_24
REMARK                            x       y       z     vdW  Elec       q    Type
REMARK                         _______ _______ _______ _____ _____    ______ ____
ROOT
ATOM      3  N   UNL     1      -3.711   3.707  24.240  0.00  0.00    -0.293 NA
ATOM     10  C   UNL     1      -4.999   2.946  26.028  0.00  0.00    +0.090 C 
ATOM     11  C   UNL     1      -2.803   3.810  25.398  0.00  0.00    +0.147 C 
ATOM     12  C   UNL     1      -3.583   3.169  26.561  0.00  0.00    +0.052 C 
ATOM     13  C   UNL     1      -5.069   3.819  24.784  0.00  0.00    +0.107 C 
ATOM     21  C   UNL     1      -3.452   4.712  23.216  0.00  0.00    +0.105 C 
ENDROOT
BRANCH  10   4
ATOM      2  O   UNL     1      -3.623   1.379  24.048  0.00  0.00    -0.253 OA
ATOM      4  N   UNL     1      -5.234   1.558  25.709  0.00  0.00    -0.295 N 
ATOM      5  N   UNL     1      -4.939  -0.445  24.622  0.00  0.00    -0.297 N 
ATOM     22  C   UNL     1      -4.515   0.876  24.729  0.00  0.00    +0.300 C 
ATOM     28  H   UNL     1      -6.002   1.076  26.168  0.00  0.00    +0.151 HD
ATOM     29  H   UNL     1      -5.734  -0.737  25.183  0.00  0.00    +0.151 HD
BRANCH   5  14
ATOM     14  C   UNL     1      -4.367  -1.385  23.684  0.00  0.00    +0.074 C 
ATOM     15  C   UNL     1      -2.954  -0.958  23.269  0.00  0.00    +0.022 C 
ATOM     16  C   UNL     1      -4.373  -2.806  24.254  0.00  0.00    +0.022 C 
ATOM     17  C   UNL     1      -1.934  -1.145  24.392  0.00  0.00    +0.002 C 
ATOM     18  C   UNL     1      -3.350  -2.991  25.376  0.00  0.00    +0.002 C 
ATOM     19  C   UNL     1      -1.951  -2.570  24.936  0.00  0.00    +0.000 C 
ENDBRANCH   5  14
ENDBRANCH  10   4
BRANCH  11  20
ATOM      1  O   UNL     1      -0.544   3.282  26.168  0.00  0.00    -0.336 OA
ATOM      6  N   UNL     1      -1.031   2.472  24.137  0.00  0.00    -0.189 NA
ATOM      7  N   UNL     1       0.602   2.605  25.732  0.00  0.00    -0.054 NA
ATOM     20  C   UNL     1      -1.457   3.154  25.169  0.00  0.00    +0.245 A 
ATOM     23  C   UNL     1       0.237   2.155  24.528  0.00  0.00    +0.222 A 
BRANCH  23  24
ATOM      8  N   UNL     1       2.392   1.806  23.610  0.00  0.00    -0.249 NA
ATOM      9  N   UNL     1       1.478  -0.454  22.224  0.00  0.00    -0.260 NA
ATOM     24  C   UNL     1       1.114   1.388  23.693  0.00  0.00    +0.129 A 
ATOM     25  C   UNL     1       0.665   0.278  23.012  0.00  0.00    +0.142 A 
ATOM     26  C   UNL     1       3.205   1.075  22.822  0.00  0.00    +0.131 A 
ATOM     27  C   UNL     1       2.756  -0.035  22.141  0.00  0.00    +0.130 A 
ENDBRANCH  23  24
ENDBRANCH  11  20
TORSDOF 4
ENDMDL
MODEL 3
REMARK VINA RESULT:       1.6      1.537      4.303
REMARK  Name = 28960641
REMARK  5 active torsions:
REMARK  status: ('A' for Active; 'I' for Inactive)
REMARK    1  A    between atoms: N_3  and  C_21
REMARK    2  A    between atoms: N_4  and  C_10
REMARK    3  A    between atoms: N_5  and  C_14
REMARK    4  A    between atoms: C_11  and  C_20
REMARK    5  A    between atoms: C_23  and  C_24
REMARK                            x       y       z     vdW  Elec       q    Type
REMARK                         _______ _______ _______ _____ _____    ______ ____
ROOT
ATOM      3  N   UNL     1      -2.659   2.391  22.698  0.00  0.00    -0.293 NA
ATOM     10  C   UNL     1      -3.468   2.696  24.864  0.00  0.00    +0.090 C 
ATOM     11  C   UNL     1      -1.449   2.690  23.488  0.00  0.00    +0.147 C 
ATOM     12  C   UNL     1      -1.942   2.743  24.947  0.00  0.00    +0.052 C 
ATOM     13  C   UNL     1      -3.771   3.031  23.411  0.00  0.00    +0.107 C 
ATOM     21  C   UNL     1      -2.569   2.844  21.316  0.00  0.00    +0.105 C 
ENDROOT
BRANCH  10   4
ATOM      2  O   UNL     1      -1.923   0.357  25.503  0.00  0.00    -0.253 OA
ATOM      4  N   UNL     1      -3.979   1.394  25.220  0.00  0.00    -0.295 N 
ATOM      5  N   UNL     1      -3.897  -0.821  25.826  0.00  0.00    -0.297 N 
ATOM     22  C   UNL     1      -3.152   0.313  25.516  0.00  0.00    +0.300 C 
ATOM     28  H   UNL     1      -4.983   1.239  25.187  0.00  0.00    +0.151 HD
ATOM     29  H   UNL     1      -4.907  -0.767  25.734  0.00  0.00    +0.151 HD
BRANCH   5  14
ATOM     14  C   UNL     1      -3.297  -2.090  26.172  0.00  0.00    +0.074 C 
ATOM     15  C   UNL     1      -3.681  -3.176  25.160  0.00  0.00    +0.022 C 
ATOM     16  C   UNL     1      -1.776  -1.965  26.303  0.00  0.00    +0.022 C 
ATOM     17  C   UNL     1      -2.989  -2.986  23.810  0.00  0.00    +0.002 C 
ATOM     18  C   UNL     1      -1.087  -1.777  24.951  0.00  0.00    +0.002 C 
ATOM     19  C   UNL     1      -1.475  -2.874  23.964  0.00  0.00    +0.000 C 
ENDBRANCH   5  14
ENDBRANCH  10   4
BRANCH  11  20
ATOM      1  O   UNL     1      -0.678   0.509  22.696  0.00  0.00    -0.336 OA
ATOM      6  N   UNL     1       0.931   1.775  23.605  0.00  0.00    -0.189 NA
ATOM      7  N   UNL     1       0.500  -0.245  22.622  0.00  0.00    -0.054 NA
ATOM     20  C   UNL     1      -0.335   1.684  23.287  0.00  0.00    +0.245 A 
ATOM     23  C   UNL     1       1.404   0.569  23.177  0.00  0.00    +0.222 A 
BRANCH  23  24
ATOM      8  N   UNL     1       3.691   1.180  23.110  0.00  0.00    -0.249 NA
ATOM      9  N   UNL     1       4.450  -1.434  23.783  0.00  0.00    -0.260 NA
ATOM     24  C   UNL     1       2.784   0.206  23.317  0.00  0.00    +0.129 A 
ATOM     25  C   UNL     1       3.156  -1.079  23.647  0.00  0.00    +0.142 A 
ATOM     26  C   UNL     1       4.984   0.825  23.246  0.00  0.00    +0.131 A 
ATOM     27  C   UNL     1       5.356  -0.460  23.576  0.00  0.00    +0.130 A 
ENDBRANCH  23  24
ENDBRANCH  11  20
TORSDOF 4
ENDMDL
MODEL 4
REMARK VINA RESULT:       2.2      1.992      6.652
REMARK  Name = 28960641
REMARK  5 active torsions:
REMARK  status: ('A' for Active; 'I' for Inactive)
REMARK    1  A    between atoms: N_3  and  C_21
REMARK    2  A    between atoms: N_4  and  C_10
REMARK    3  A    between atoms: N_5  and  C_14
REMARK    4  A    between atoms: C_11  and  C_20
REMARK    5  A    between atoms: C_23  and  C_24
REMARK                            x       y       z     vdW  Elec       q    Type
REMARK                         _______ _______ _______ _____ _____    ______ ____
ROOT
ATOM      3  N   UNL     1      -2.494   4.118  25.965  0.00  0.00    -0.293 NA
ATOM     10  C   UNL     1      -1.705   5.099  24.002  0.00  0.00    +0.090 C 
ATOM     11  C   UNL     1      -3.600   3.929  25.007  0.00  0.00    +0.147 C 
ATOM     12  C   UNL     1      -3.039   4.433  23.663  0.00  0.00    +0.052 C 
ATOM     13  C   UNL     1      -1.767   5.307  25.508  0.00  0.00    +0.107 C 
ATOM     21  C   UNL     1      -2.946   4.254  27.344  0.00  0.00    +0.105 C 
ENDROOT
BRANCH  10   4
ATOM      2  O   UNL     1      -0.973   2.581  25.183  0.00  0.00    -0.253 OA
ATOM      4  N   UNL     1      -0.586   4.264  23.633  0.00  0.00    -0.295 N 
ATOM      5  N   UNL     1       0.822   2.451  23.718  0.00  0.00    -0.297 N 
ATOM     22  C   UNL     1      -0.307   3.053  24.264  0.00  0.00    +0.300 C 
ATOM     28  H   UNL     1       0.065   4.605  22.932  0.00  0.00    +0.151 HD
ATOM     29  H   UNL     1       1.340   2.963  23.010  0.00  0.00    +0.151 HD
BRANCH   5  14
ATOM     14  C   UNL     1       1.343   1.184  24.180  0.00  0.00    +0.074 C 
ATOM     15  C   UNL     1       0.338   0.053  23.936  0.00  0.00    +0.022 C 
ATOM     16  C   UNL     1       2.696   0.874  23.533  0.00  0.00    +0.022 C 
ATOM     17  C   UNL     1       0.213  -0.307  22.455  0.00  0.00    +0.002 C 
ATOM     18  C   UNL     1       2.568   0.513  22.053  0.00  0.00    +0.002 C 
ATOM     19  C   UNL     1       1.571  -0.622  21.835  0.00  0.00    +0.000 C 
ENDBRANCH   5  14
ENDBRANCH  10   4
BRANCH  11  20
ATOM      1  O   UNL     1      -5.442   2.322  24.975  0.00  0.00    -0.336 OA
ATOM      6  N   UNL     1      -3.410   1.389  24.829  0.00  0.00    -0.189 NA
ATOM      7  N   UNL     1      -5.652   0.940  24.892  0.00  0.00    -0.054 NA
ATOM     20  C   UNL     1      -4.095   2.500  24.931  0.00  0.00    +0.245 A 
ATOM     23  C   UNL     1      -4.408   0.459  24.808  0.00  0.00    +0.222 A 
BRANCH  23  24
ATOM      8  N   UNL     1      -4.545  -1.561  23.578  0.00  0.00    -0.249 NA
ATOM      9  N   UNL     1      -3.200  -2.939  25.617  0.00  0.00    -0.260 NA
ATOM     24  C   UNL     1      -4.129  -0.943  24.701  0.00  0.00    +0.129 A 
ATOM     25  C   UNL     1      -3.469  -1.620  25.703  0.00  0.00    +0.142 A 
ATOM     26  C   UNL     1      -4.277  -2.878  23.492  0.00  0.00    +0.131 A 
ATOM     27  C   UNL     1      -3.616  -3.555  24.494  0.00  0.00    +0.130 A 
ENDBRANCH  23  24
ENDBRANCH  11  20
TORSDOF 4
ENDMDL
MODEL 5
REMARK VINA RESULT:       2.9      1.580      2.097
REMARK  Name = 28960641
REMARK  5 active torsions:
REMARK  status: ('A' for Active; 'I' for Inactive)
REMARK    1  A    between atoms: N_3  and  C_21
REMARK    2  A    between atoms: N_4  and  C_10
REMARK    3  A    between atoms: N_5  and  C_14
REMARK    4  A    between atoms: C_11  and  C_20
REMARK    5  A    between atoms: C_23  and  C_24
REMARK                            x       y       z     vdW  Elec       q    Type
REMARK                         _______ _______ _______ _____ _____    ______ ____
ROOT
ATOM      3  N   UNL     1      -3.512  -0.830  25.609  0.00  0.00    -0.293 NA
ATOM     10  C   UNL     1      -4.703   0.248  23.919  0.00  0.00    +0.090 C 
ATOM     11  C   UNL     1      -2.922  -1.363  24.366  0.00  0.00    +0.147 C 
ATOM     12  C   UNL     1      -3.590  -0.550  23.240  0.00  0.00    +0.052 C 
ATOM     13  C   UNL     1      -4.883  -0.437  25.265  0.00  0.00    +0.107 C 
ATOM     21  C   UNL     1      -3.479  -1.780  26.713  0.00  0.00    +0.105 C 
ENDROOT
BRANCH  10   4
ATOM      2  O   UNL     1      -2.898   1.336  25.875  0.00  0.00    -0.253 OA
ATOM      4  N   UNL     1      -4.338   1.636  24.081  0.00  0.00    -0.295 N 
ATOM      5  N   UNL     1      -3.274   3.453  24.999  0.00  0.00    -0.297 N 
ATOM     22  C   UNL     1      -3.451   2.074  25.061  0.00  0.00    +0.300 C 
ATOM     28  H   UNL     1      -4.800   2.331  23.501  0.00  0.00    +0.151 HD
ATOM     29  H   UNL     1      -3.836   3.976  24.335  0.00  0.00    +0.151 HD
BRANCH   5  14
ATOM     14  C   UNL     1      -2.406   4.179  25.899  0.00  0.00    +0.074 C 
ATOM     15  C   UNL     1      -1.169   3.349  26.262  0.00  0.00    +0.022 C 
ATOM     16  C   UNL     1      -2.011   5.537  25.310  0.00  0.00    +0.022 C 
ATOM     17  C   UNL     1      -0.190   3.221  25.095  0.00  0.00    +0.002 C 
ATOM     18  C   UNL     1      -1.030   5.405  24.144  0.00  0.00    +0.002 C 
ATOM     19  C   UNL     1       0.197   4.585  24.531  0.00  0.00    +0.000 C 
ENDBRANCH   5  14
ENDBRANCH  10   4
BRANCH  11  20
ATOM      1  O   UNL     1      -0.732  -2.189  25.071  0.00  0.00    -0.336 OA
ATOM      6  N   UNL     1      -0.645  -0.435  23.680  0.00  0.00    -0.189 NA
ATOM      7  N   UNL     1       0.627  -1.909  24.880  0.00  0.00    -0.054 NA
ATOM     20  C   UNL     1      -1.411  -1.275  24.328  0.00  0.00    +0.245 A 
ATOM     23  C   UNL     1       0.597  -0.864  24.048  0.00  0.00    +0.222 A 
BRANCH  23  24
ATOM      8  N   UNL     1       2.845  -1.025  23.319  0.00  0.00    -0.249 NA
ATOM      9  N   UNL     1       2.956   1.749  22.923  0.00  0.00    -0.260 NA
ATOM     24  C   UNL     1       1.788  -0.227  23.568  0.00  0.00    +0.129 A 
ATOM     25  C   UNL     1       1.843   1.136  23.374  0.00  0.00    +0.142 A 
ATOM     26  C   UNL     1       3.957  -0.413  22.868  0.00  0.00    +0.131 A 
ATOM     27  C   UNL     1       4.012   0.950  22.674  0.00  0.00    +0.130 A 
ENDBRANCH  23  24
ENDBRANCH  11  20
TORSDOF 4
ENDMDL
