MODEL 1
REMARK VINA RESULT:       1.8      0.000      0.000
REMARK  Name = 11866319
REMARK  12 active torsions:
REMARK  status: ('A' for Active; 'I' for Inactive)
REMARK    1  A    between atoms: O_1  and  C_11
REMARK    2  A    between atoms: O_2  and  C_12
REMARK    3  A    between atoms: O_6  and  C_28
REMARK    4  A    between atoms: O_6  and  C_35
REMARK    5  A    between atoms: N_7  and  C_13
REMARK    6  A    between atoms: N_8  and  C_18
REMARK    7  A    between atoms: N_9  and  C_23
REMARK    8  A    between atoms: C_15  and  C_17
REMARK    9  A    between atoms: C_18  and  C_20
REMARK   10  A    between atoms: C_18  and  C_22
REMARK   11  A    between atoms: C_20  and  C_21
REMARK   12  A    between atoms: C_33  and  C_34
REMARK                            x       y       z     vdW  Elec       q    Type
REMARK                         _______ _______ _______ _____ _____    ______ ____
ROOT
ATOM     11  C   UNL     1      -1.871  -2.052  24.435  0.00  0.00    +0.167 C 
ATOM     12  C   UNL     1      -3.163  -2.494  25.131  0.00  0.00    +0.149 C 
ATOM     13  C   UNL     1      -2.122  -0.874  23.473  0.00  0.00    +0.129 C 
ATOM     14  C   UNL     1      -3.846  -1.334  25.875  0.00  0.00    +0.074 C 
ATOM     15  C   UNL     1      -3.773  -0.027  25.139  0.00  0.00    +0.015 C 
ATOM     16  C   UNL     1      -3.012   0.190  24.056  0.00  0.00    +0.006 C 
ENDROOT
BRANCH  13   7
ATOM      4  O   UNL     1       0.524  -1.604  24.294  0.00  0.00    -0.252 OA
ATOM      7  N   UNL     1      -0.887  -0.265  23.044  0.00  0.00    -0.290 N 
ATOM      9  N   UNL     1       1.379   0.087  22.910  0.00  0.00    -0.269 N 
ATOM     19  C   UNL     1       0.371  -0.683  23.495  0.00  0.00    +0.304 C 
ATOM     36  H   UNL     1      -0.927   0.446  22.319  0.00  0.00    +0.151 HD
ATOM     40  H   UNL     1       1.080   0.815  22.266  0.00  0.00    +0.156 HD
BRANCH   9  23
ATOM     23  C   UNL     1       2.776  -0.018  23.104  0.00  0.00    +0.035 A 
ATOM     29  C   UNL     1       3.309  -1.215  23.555  0.00  0.00    +0.023 A 
ATOM     30  C   UNL     1       3.582   1.076  22.839  0.00  0.00    +0.023 A 
ATOM     31  C   UNL     1       4.687  -1.320  23.746  0.00  0.00    +0.005 A 
ATOM     32  C   UNL     1       4.960   0.971  23.030  0.00  0.00    +0.005 A 
ATOM     33  C   UNL     1       5.513  -0.226  23.484  0.00  0.00    -0.050 A 
ATOM     34  C   UNL     1       6.986  -0.337  23.688  0.00  0.00    +0.044 C 
ENDBRANCH   9  23
ENDBRANCH  13   7
BRANCH  15  17
ATOM      3  O   UNL     1      -5.820   0.957  25.738  0.00  0.00    -0.271 OA
ATOM      8  N   UNL     1      -3.868   2.222  25.897  0.00  0.00    -0.300 N 
ATOM     17  C   UNL     1      -4.603   1.082  25.617  0.00  0.00    +0.241 C 
ATOM     39  H   UNL     1      -2.866   2.220  25.733  0.00  0.00    +0.150 HD
BRANCH   8  18
ATOM     18  C   UNL     1      -4.466   3.446  26.381  0.00  0.00    +0.163 C 
BRANCH  18  22
ATOM      5  O   UNL     1      -5.151   3.794  24.075  0.00  0.00    -0.274 OA
ATOM     10  N   UNL     1      -6.474   4.637  25.754  0.00  0.00    -0.328 N 
ATOM     22  C   UNL     1      -5.364   3.974  25.272  0.00  0.00    +0.231 C 
ATOM     41  H   UNL     1      -6.640   4.776  26.744  0.00  0.00    +0.145 HD
ATOM     42  H   UNL     1      -7.164   5.026  25.119  0.00  0.00    +0.145 HD
ENDBRANCH  18  22
BRANCH  18  20
ATOM     20  C   UNL     1      -3.414   4.494  26.761  0.00  0.00    +0.067 C 
BRANCH  20  21
ATOM     21  C   UNL     1      -2.252   4.531  25.799  0.00  0.00    -0.045 A 
ATOM     24  C   UNL     1      -1.962   5.709  25.129  0.00  0.00    +0.007 A 
ATOM     25  C   UNL     1      -1.494   3.387  25.604  0.00  0.00    +0.007 A 
ATOM     26  C   UNL     1      -0.887   5.743  24.240  0.00  0.00    +0.046 A 
ATOM     27  C   UNL     1      -0.421   3.421  24.715  0.00  0.00    +0.046 A 
ATOM     28  C   UNL     1      -0.117   4.600  24.033  0.00  0.00    +0.120 A 
BRANCH  28   6
ATOM      6  O   UNL     1       0.931   4.632  23.165  0.00  0.00    -0.495 OA
ATOM     35  C   UNL     1       0.910   5.642  22.158  0.00  0.00    +0.277 C 
ENDBRANCH  28   6
ENDBRANCH  20  21
ENDBRANCH  18  20
ENDBRANCH   8  18
ENDBRANCH  15  17
BRANCH  11   1
ATOM      1  O   UNL     1      -0.922  -1.664  25.430  0.00  0.00    -0.387 OA
ATOM     37  H   UNL     1      -1.389  -1.210  26.151  0.00  0.00    +0.210 HD
ENDBRANCH  11   1
BRANCH  12   2
ATOM      2  O   UNL     1      -4.063  -3.062  24.181  0.00  0.00    -0.389 OA
ATOM     38  H   UNL     1      -4.393  -3.898  24.552  0.00  0.00    +0.210 HD
ENDBRANCH  12   2
TORSDOF 10
ENDMDL
MODEL 2
REMARK VINA RESULT:       2.2      1.846      2.443
REMARK  Name = 11866319
REMARK  12 active torsions:
REMARK  status: ('A' for Active; 'I' for Inactive)
REMARK    1  A    between atoms: O_1  and  C_11
REMARK    2  A    between atoms: O_2  and  C_12
REMARK    3  A    between atoms: O_6  and  C_28
REMARK    4  A    between atoms: O_6  and  C_35
REMARK    5  A    between atoms: N_7  and  C_13
REMARK    6  A    between atoms: N_8  and  C_18
REMARK    7  A    between atoms: N_9  and  C_23
REMARK    8  A    between atoms: C_15  and  C_17
REMARK    9  A    between atoms: C_18  and  C_20
REMARK   10  A    between atoms: C_18  and  C_22
REMARK   11  A    between atoms: C_20  and  C_21
REMARK   12  A    between atoms: C_33  and  C_34
REMARK                            x       y       z     vdW  Elec       q    Type
REMARK                         _______ _______ _______ _____ _____    ______ ____
ROOT
ATOM     11  C   UNL     1      -1.812  -2.539  25.058  0.00  0.00    +0.167 C 
ATOM     12  C   UNL     1      -3.140  -2.415  25.815  0.00  0.00    +0.149 C 
ATOM     13  C   UNL     1      -1.910  -1.939  23.642  0.00  0.00    +0.129 C 
ATOM     14  C   UNL     1      -3.632  -0.960  25.885  0.00  0.00    +0.074 C 
ATOM     15  C   UNL     1      -3.388  -0.185  24.622  0.00  0.00    +0.015 C 
ATOM     16  C   UNL     1      -2.625  -0.616  23.605  0.00  0.00    +0.006 C 
ENDROOT
BRANCH  13   7
ATOM      4  O   UNL     1       0.359  -0.612  24.780  0.00  0.00    -0.252 OA
ATOM      7  N   UNL     1      -0.610  -1.784  23.038  0.00  0.00    -0.290 N 
ATOM      9  N   UNL     1       1.582  -1.125  22.844  0.00  0.00    -0.269 N 
ATOM     19  C   UNL     1       0.451  -1.118  23.664  0.00  0.00    +0.304 C 
ATOM     36  H   UNL     1      -0.432  -2.249  22.152  0.00  0.00    +0.151 HD
ATOM     40  H   UNL     1       1.489  -1.590  21.944  0.00  0.00    +0.156 HD
BRANCH   9  23
ATOM     23  C   UNL     1       2.852  -0.561  23.111  0.00  0.00    +0.035 A 
ATOM     29  C   UNL     1       3.802  -1.317  23.778  0.00  0.00    +0.023 A 
ATOM     30  C   UNL     1       3.118   0.734  22.700  0.00  0.00    +0.023 A 
ATOM     31  C   UNL     1       5.055  -0.762  24.040  0.00  0.00    +0.005 A 
ATOM     32  C   UNL     1       4.370   1.289  22.964  0.00  0.00    +0.005 A 
ATOM     33  C   UNL     1       5.338   0.542  23.634  0.00  0.00    -0.050 A 
ATOM     34  C   UNL     1       6.677   1.137  23.915  0.00  0.00    +0.044 C 
ENDBRANCH   9  23
ENDBRANCH  13   7
BRANCH  15  17
ATOM      3  O   UNL     1      -4.922   1.478  25.252  0.00  0.00    -0.271 OA
ATOM      8  N   UNL     1      -3.548   1.849  23.405  0.00  0.00    -0.300 N 
ATOM     17  C   UNL     1      -4.038   1.120  24.475  0.00  0.00    +0.241 C 
ATOM     39  H   UNL     1      -2.833   1.439  22.811  0.00  0.00    +0.150 HD
BRANCH   8  18
ATOM     18  C   UNL     1      -4.036   3.165  23.058  0.00  0.00    +0.163 C 
BRANCH  18  22
ATOM      5  O   UNL     1      -4.387   4.169  20.873  0.00  0.00    -0.274 OA
ATOM     10  N   UNL     1      -2.755   2.567  21.097  0.00  0.00    -0.328 N 
ATOM     22  C   UNL     1      -3.780   3.360  21.571  0.00  0.00    +0.231 C 
ATOM     41  H   UNL     1      -2.260   1.905  21.685  0.00  0.00    +0.145 HD
ATOM     42  H   UNL     1      -2.472   2.610  20.124  0.00  0.00    +0.145 HD
ENDBRANCH  18  22
BRANCH  18  20
ATOM     20  C   UNL     1      -3.348   4.270  23.868  0.00  0.00    +0.067 C 
BRANCH  20  21
ATOM     21  C   UNL     1      -2.174   3.762  24.669  0.00  0.00    -0.045 A 
ATOM     24  C   UNL     1      -2.264   3.717  26.051  0.00  0.00    +0.007 A 
ATOM     25  C   UNL     1      -1.028   3.348  24.008  0.00  0.00    +0.007 A 
ATOM     26  C   UNL     1      -1.178   3.247  26.791  0.00  0.00    +0.046 A 
ATOM     27  C   UNL     1       0.056   2.879  24.748  0.00  0.00    +0.046 A 
ATOM     28  C   UNL     1      -0.019   2.828  26.140  0.00  0.00    +0.120 A 
BRANCH  28   6
ATOM      6  O   UNL     1       1.040   2.370  26.862  0.00  0.00    -0.495 OA
ATOM     35  C   UNL     1       0.948   2.464  28.282  0.00  0.00    +0.277 C 
ENDBRANCH  28   6
ENDBRANCH  20  21
ENDBRANCH  18  20
ENDBRANCH   8  18
ENDBRANCH  15  17
BRANCH  11   1
ATOM      1  O   UNL     1      -0.796  -1.858  25.797  0.00  0.00    -0.387 OA
ATOM     37  H   UNL     1      -1.201  -1.120  26.282  0.00  0.00    +0.210 HD
ENDBRANCH  11   1
BRANCH  12   2
ATOM      2  O   UNL     1      -4.132  -3.238  25.203  0.00  0.00    -0.389 OA
ATOM     38  H   UNL     1      -3.702  -4.068  24.936  0.00  0.00    +0.210 HD
ENDBRANCH  12   2
TORSDOF 10
ENDMDL
