MODEL 1
REMARK VINA RESULT:      -1.8      0.000      0.000
REMARK  Name = 45361547
REMARK  10 active torsions:
REMARK  status: ('A' for Active; 'I' for Inactive)
REMARK    1  A    between atoms: O_1  and  C_12
REMARK    2  A    between atoms: N_4  and  C_16
REMARK    3  A    between atoms: N_5  and  C_26
REMARK    4  A    between atoms: C_9  and  C_19
REMARK    5  A    between atoms: C_11  and  C_21
REMARK    6  A    between atoms: C_15  and  C_20
REMARK    7  A    between atoms: C_20  and  C_22
REMARK    8  A    between atoms: C_20  and  C_23
REMARK    9  A    between atoms: C_24  and  C_25
REMARK   10  A    between atoms: C_26  and  C_28
REMARK                            x       y       z     vdW  Elec       q    Type
REMARK                         _______ _______ _______ _____ _____    ______ ____
ROOT
ATOM      9  C   UNL     1      -2.973  -1.358  24.845  0.00  0.00    -0.027 C 
ATOM     10  C   UNL     1      -2.606  -0.013  24.135  0.00  0.00    +0.028 C 
ATOM     11  C   UNL     1      -1.063   0.267  24.232  0.00  0.00    +0.012 C 
ATOM     12  C   UNL     1      -3.528   1.146  24.613  0.00  0.00    +0.122 C 
ATOM     13  C   UNL     1      -4.477  -1.660  24.632  0.00  0.00    +0.007 C 
ATOM     14  C   UNL     1      -2.168  -2.507  24.197  0.00  0.00    +0.009 C 
ATOM     15  C   UNL     1      -5.029   0.799  24.495  0.00  0.00    +0.029 C 
ATOM     16  C   UNL     1      -0.261  -0.929  23.646  0.00  0.00    +0.076 C 
ATOM     17  C   UNL     1      -5.383  -0.543  25.135  0.00  0.00    +0.007 C 
ATOM     18  C   UNL     1      -0.663  -2.279  24.237  0.00  0.00    +0.023 C 
ATOM     19  C   UNL     1      -2.682  -1.327  26.366  0.00  0.00    +0.011 C 
ATOM     21  C   UNL     1      -0.627   1.563  23.529  0.00  0.00    +0.010 C 
ENDROOT
BRANCH  16   4
ATOM      3  O   UNL     1       1.652  -0.251  21.615  0.00  0.00    -0.268 OA
ATOM      4  N   UNL     1       1.166  -0.756  23.825  0.00  0.00    -0.307 N 
ATOM     24  C   UNL     1       2.009  -0.428  22.777  0.00  0.00    +0.264 C 
ATOM     35  H   UNL     1       1.562  -0.941  24.742  0.00  0.00    +0.149 HD
BRANCH  24  25
ATOM      6  N   UNL     1       4.022  -1.393  23.690  0.00  0.00    -0.247 NA
ATOM      7  N   UNL     1       5.466   0.955  23.174  0.00  0.00    -0.259 NA
ATOM     25  C   UNL     1       3.449  -0.314  23.119  0.00  0.00    +0.143 A 
ATOM     27  C   UNL     1       4.159   0.840  22.866  0.00  0.00    +0.143 A 
ATOM     29  C   UNL     1       5.329  -1.278  23.997  0.00  0.00    +0.131 A 
ATOM     31  C   UNL     1       6.038  -0.124  23.744  0.00  0.00    +0.130 A 
ENDBRANCH  24  25
ENDBRANCH  16   4
BRANCH  12   1
ATOM      1  O   UNL     1      -3.309   2.297  23.795  0.00  0.00    -0.391 OA
ATOM     36  H   UNL     1      -3.322   2.013  22.864  0.00  0.00    +0.210 HD
ENDBRANCH  12   1
BRANCH  15  20
ATOM     20  C   UNL     1      -5.916   1.900  25.091  0.00  0.00    +0.077 C 
ATOM     22  C   UNL     1      -7.158   2.096  24.229  0.00  0.00    +0.017 C 
BRANCH  20  23
ATOM      2  O   UNL     1      -5.105   4.057  24.345  0.00  0.00    -0.276 OA
ATOM      5  N   UNL     1      -4.428   3.276  26.421  0.00  0.00    -0.309 N 
ATOM     23  C   UNL     1      -5.119   3.195  25.220  0.00  0.00    +0.217 C 
ATOM     37  H   UNL     1      -4.534   2.545  27.117  0.00  0.00    +0.149 HD
BRANCH   5  26
ATOM     26  C   UNL     1      -3.602   4.407  26.772  0.00  0.00    +0.159 C 
BRANCH  26  28
ATOM      8  N   UNL     1      -1.468   3.311  26.386  0.00  0.00    -0.258 NA
ATOM     28  C   UNL     1      -2.265   4.361  26.088  0.00  0.00    +0.058 A 
ATOM     30  C   UNL     1      -1.920   5.372  25.205  0.00  0.00    +0.025 A 
ATOM     32  C   UNL     1      -0.677   5.299  24.588  0.00  0.00    +0.003 A 
ATOM     33  C   UNL     1      -0.267   3.275  25.766  0.00  0.00    +0.111 A 
ATOM     34  C   UNL     1       0.172   4.234  24.868  0.00  0.00    +0.020 A 
ENDBRANCH  26  28
ENDBRANCH   5  26
ENDBRANCH  20  23
ENDBRANCH  15  20
TORSDOF 7
ENDMDL
