MODEL 1
REMARK VINA RESULT:      -4.2      0.000      0.000
REMARK  Name = 40780420
REMARK  8 active torsions:
REMARK  status: ('A' for Active; 'I' for Inactive)
REMARK    1  A    between atoms: N_4  and  C_10
REMARK    2  A    between atoms: N_4  and  C_16
REMARK    3  A    between atoms: N_5  and  C_19
REMARK    4  A    between atoms: N_7  and  C_21
REMARK    5  A    between atoms: C_8  and  C_11
REMARK    6  A    between atoms: C_14  and  C_17
REMARK    7  A    between atoms: C_15  and  C_18
REMARK    8  A    between atoms: C_16  and  C_20
REMARK                            x       y       z     vdW  Elec       q    Type
REMARK                         _______ _______ _______ _____ _____    ______ ____
ROOT
ATOM      5  N   UNL     1      -6.769 -10.034  15.750  0.00  0.00    -0.234 N 
ATOM      6  N   UNL     1      -8.076  -9.926  15.456  0.00  0.00    -0.171 NA
ATOM     11  C   UNL     1      -6.780  -9.786  13.580  0.00  0.00    +0.003 A 
ATOM     14  C   UNL     1      -5.951  -9.956  14.661  0.00  0.00    +0.046 A 
ATOM     15  C   UNL     1      -8.077  -9.774  14.129  0.00  0.00    +0.064 A 
ATOM     17  C   UNL     1      -4.480 -10.049  14.744  0.00  0.00    +0.066 C 
ATOM     18  C   UNL     1      -9.358  -9.619  13.418  0.00  0.00    +0.068 C 
ENDROOT
BRANCH   5  19
ATOM     19  C   UNL     1      -6.370 -10.209  17.075  0.00  0.00    +0.096 A 
ATOM     21  C   UNL     1      -7.272 -10.058  18.130  0.00  0.00    +0.151 A 
ATOM     22  C   UNL     1      -5.041 -10.542  17.337  0.00  0.00    +0.030 A 
ATOM     25  C   UNL     1      -6.844 -10.240  19.445  0.00  0.00    +0.035 A 
ATOM     26  C   UNL     1      -4.614 -10.724  18.652  0.00  0.00    +0.002 A 
ATOM     27  C   UNL     1      -5.515 -10.573  19.706  0.00  0.00    +0.002 A 
BRANCH  21   7
ATOM      2  O   UNL     1      -9.520 -10.572  18.136  0.00  0.00    -0.126 OA
ATOM      3  O   UNL     1      -8.906  -8.576  17.457  0.00  0.00    -0.126 OA
ATOM      7  N   UNL     1      -8.635  -9.719  17.896  0.00  0.00    +0.059 N 
ENDBRANCH  21   7
ENDBRANCH   5  19
BRANCH  11   8
ATOM      8  C   UNL     1      -6.387  -9.641  12.128  0.00  0.00    +0.047 C 
ATOM      9  C   UNL     1      -5.467  -8.434  11.865  0.00  0.00    +0.035 C 
ATOM     10  C   UNL     1      -4.517  -8.859  10.732  0.00  0.00    +0.078 C 
ATOM     12  C   UNL     1      -5.580 -10.781  11.580  0.00  0.00    -0.021 C 
ATOM     13  C   UNL     1      -4.570 -10.352  10.815  0.00  0.00    -0.012 C 
BRANCH  10   4
ATOM      4  N   UNL     1      -4.970  -8.382   9.430  0.00  0.00    -0.306 NA
ATOM     31  H   UNL     1      -5.124  -9.181   8.814  0.00  0.00    +0.123 HD
BRANCH   4  16
ATOM     16  C   UNL     1      -6.213  -7.631   9.550  0.00  0.00    +0.116 C 
BRANCH  16  20
ATOM      1  F   UNL     1     -10.690 -10.745   8.133  0.00  0.00    -0.205 F 
ATOM     20  C   UNL     1      -7.410  -8.463   9.171  0.00  0.00    -0.033 A 
ATOM     23  C   UNL     1      -8.695  -8.012   9.470  0.00  0.00    +0.008 A 
ATOM     24  C   UNL     1      -7.232  -9.685   8.521  0.00  0.00    +0.008 A 
ATOM     28  C   UNL     1      -9.803  -8.783   9.119  0.00  0.00    +0.038 A 
ATOM     29  C   UNL     1      -8.340 -10.455   8.171  0.00  0.00    +0.038 A 
ATOM     30  C   UNL     1      -9.626 -10.004   8.469  0.00  0.00    +0.123 A 
ENDBRANCH  16  20
ENDBRANCH   4  16
ENDBRANCH  10   4
ENDBRANCH  11   8
TORSDOF 6
ENDMDL
MODEL 2
REMARK VINA RESULT:      -3.8      2.570      4.071
REMARK  Name = 40780420
REMARK  8 active torsions:
REMARK  status: ('A' for Active; 'I' for Inactive)
REMARK    1  A    between atoms: N_4  and  C_10
REMARK    2  A    between atoms: N_4  and  C_16
REMARK    3  A    between atoms: N_5  and  C_19
REMARK    4  A    between atoms: N_7  and  C_21
REMARK    5  A    between atoms: C_8  and  C_11
REMARK    6  A    between atoms: C_14  and  C_17
REMARK    7  A    between atoms: C_15  and  C_18
REMARK    8  A    between atoms: C_16  and  C_20
REMARK                            x       y       z     vdW  Elec       q    Type
REMARK                         _______ _______ _______ _____ _____    ______ ____
ROOT
ATOM      5  N   UNL     1      -6.728  -9.956  15.793  0.00  0.00    -0.234 N 
ATOM      6  N   UNL     1      -7.975  -9.834  15.307  0.00  0.00    -0.171 NA
ATOM     11  C   UNL     1      -6.407  -9.585  13.665  0.00  0.00    +0.003 A 
ATOM     14  C   UNL     1      -5.754  -9.815  14.850  0.00  0.00    +0.046 A 
ATOM     15  C   UNL     1      -7.774  -9.607  14.007  0.00  0.00    +0.064 A 
ATOM     17  C   UNL     1      -4.311  -9.910  15.155  0.00  0.00    +0.066 C 
ATOM     18  C   UNL     1      -8.931  -9.414  13.116  0.00  0.00    +0.068 C 
ENDROOT
BRANCH   5  19
ATOM     19  C   UNL     1      -6.537 -10.205  17.152  0.00  0.00    +0.096 A 
ATOM     21  C   UNL     1      -7.598 -10.142  18.057  0.00  0.00    +0.151 A 
ATOM     22  C   UNL     1      -5.256 -10.523  17.602  0.00  0.00    +0.030 A 
ATOM     25  C   UNL     1      -7.376 -10.396  19.411  0.00  0.00    +0.035 A 
ATOM     26  C   UNL     1      -5.034 -10.778  18.955  0.00  0.00    +0.002 A 
ATOM     27  C   UNL     1      -6.094 -10.715  19.860  0.00  0.00    +0.002 A 
BRANCH  21   7
ATOM      2  O   UNL     1      -9.675 -10.744  17.257  0.00  0.00    -0.126 OA
ATOM      3  O   UNL     1      -9.280  -8.620  17.642  0.00  0.00    -0.126 OA
ATOM      7  N   UNL     1      -8.918  -9.819  17.631  0.00  0.00    +0.059 N 
ENDBRANCH  21   7
ENDBRANCH   5  19
BRANCH  11   8
ATOM      8  C   UNL     1      -5.796  -9.358  12.301  0.00  0.00    +0.047 C 
ATOM      9  C   UNL     1      -6.345 -10.311  11.223  0.00  0.00    +0.035 C 
ATOM     10  C   UNL     1      -6.367  -9.508   9.912  0.00  0.00    +0.078 C 
ATOM     12  C   UNL     1      -6.076  -8.009  11.705  0.00  0.00    -0.021 C 
ATOM     13  C   UNL     1      -6.378  -8.095  10.405  0.00  0.00    -0.012 C 
BRANCH  10   4
ATOM      4  N   UNL     1      -5.195  -9.774   9.086  0.00  0.00    -0.306 NA
ATOM     31  H   UNL     1      -4.662  -8.911   8.971  0.00  0.00    +0.123 HD
BRANCH   4  16
ATOM     16  C   UNL     1      -4.340 -10.781   9.700  0.00  0.00    +0.116 C 
BRANCH  16  20
ATOM      1  F   UNL     1       0.127  -8.477  12.246  0.00  0.00    -0.205 F 
ATOM     20  C   UNL     1      -3.147 -10.165  10.380  0.00  0.00    -0.033 A 
ATOM     23  C   UNL     1      -2.591  -8.987   9.882  0.00  0.00    +0.008 A 
ATOM     24  C   UNL     1      -2.597 -10.772  11.510  0.00  0.00    +0.008 A 
ATOM     28  C   UNL     1      -1.485  -8.417  10.512  0.00  0.00    +0.038 A 
ATOM     29  C   UNL     1      -1.492 -10.202  12.140  0.00  0.00    +0.038 A 
ATOM     30  C   UNL     1      -0.936  -9.024  11.642  0.00  0.00    +0.123 A 
ENDBRANCH  16  20
ENDBRANCH   4  16
ENDBRANCH  10   4
ENDBRANCH  11   8
TORSDOF 6
ENDMDL
