MODEL 1
REMARK VINA RESULT:      -6.2      0.000      0.000
REMARK  Name = 25390274
REMARK  11 active torsions:
REMARK  status: ('A' for Active; 'I' for Inactive)
REMARK    1  A    between atoms: S_1  and  N_8
REMARK    2  A    between atoms: S_1  and  C_17
REMARK    3  A    between atoms: O_3  and  C_11
REMARK    4  A    between atoms: O_4  and  C_12
REMARK    5  A    between atoms: N_8  and  C_14
REMARK    6  A    between atoms: N_9  and  C_20
REMARK    7  A    between atoms: C_10  and  C_14
REMARK    8  A    between atoms: C_13  and  C_15
REMARK    9  A    between atoms: C_15  and  C_16
REMARK   10  A    between atoms: C_20  and  C_25
REMARK   11  A    between atoms: C_23  and  C_24
REMARK                            x       y       z     vdW  Elec       q    Type
REMARK                         _______ _______ _______ _____ _____    ______ ____
ROOT
ATOM      2  O   UNL     1      -2.104  -0.135  23.808  0.00  0.00    -0.366 OA
ATOM     10  C   UNL     1      -2.959  -0.880  24.705  0.00  0.00    +0.165 C 
ATOM     11  C   UNL     1      -2.077  -1.936  25.361  0.00  0.00    +0.175 C 
ATOM     12  C   UNL     1      -0.717  -1.268  25.341  0.00  0.00    +0.175 C 
ATOM     13  C   UNL     1      -0.744  -0.564  23.995  0.00  0.00    +0.158 C 
ENDROOT
BRANCH  11   3
ATOM      3  O   UNL     1      -2.073  -3.092  24.524  0.00  0.00    -0.387 OA
ATOM     28  H   UNL     1      -1.149  -3.379  24.428  0.00  0.00    +0.210 HD
ENDBRANCH  11   3
BRANCH  12   4
ATOM      4  O   UNL     1       0.355  -2.180  25.441  0.00  0.00    -0.387 OA
ATOM     29  H   UNL     1       0.687  -2.339  24.540  0.00  0.00    +0.210 HD
ENDBRANCH  12   4
BRANCH  10  14
ATOM     14  C   UNL     1      -3.554   0.103  25.704  0.00  0.00    +0.140 C 
BRANCH  14   8
ATOM      8  N   UNL     1      -4.979   0.320  25.389  0.00  0.00    -0.187 NA
ATOM     27  H   UNL     1      -5.397  -0.351  24.734  0.00  0.00    +0.148 HD
BRANCH   8   1
ATOM      1  S   UNL     1      -5.643   1.886  25.474  0.00  0.00    +0.058 S 
ATOM      6  O   UNL     1      -6.160   2.114  26.810  0.00  0.00    -0.153 OA
ATOM      7  O   UNL     1      -6.489   2.104  24.317  0.00  0.00    -0.153 OA
BRANCH   1  17
ATOM     17  C   UNL     1      -4.210   2.898  25.264  0.00  0.00    +0.105 A 
ATOM     18  C   UNL     1      -3.545   2.919  24.037  0.00  0.00    +0.029 A 
ATOM     19  C   UNL     1      -3.743   3.675  26.324  0.00  0.00    +0.029 A 
ATOM     21  C   UNL     1      -2.413   3.716  23.872  0.00  0.00    +0.005 A 
ATOM     22  C   UNL     1      -2.609   4.472  26.158  0.00  0.00    +0.005 A 
ATOM     23  C   UNL     1      -1.944   4.493  24.932  0.00  0.00    -0.050 A 
ATOM     24  C   UNL     1      -0.734   5.345  24.754  0.00  0.00    +0.044 C 
ENDBRANCH   1  17
ENDBRANCH   8   1
ENDBRANCH  14   8
ENDBRANCH  10  14
BRANCH  13  15
ATOM     15  C   UNL     1       0.185   0.636  23.925  0.00  0.00    +0.130 C 
BRANCH  15  16
ATOM      5  O   UNL     1       1.304  -0.353  22.021  0.00  0.00    -0.276 OA
ATOM      9  N   UNL     1       2.451   1.178  23.341  0.00  0.00    -0.304 N 
ATOM     16  C   UNL     1       1.351   0.414  22.979  0.00  0.00    +0.216 C 
ATOM     30  H   UNL     1       2.383   1.796  24.145  0.00  0.00    +0.150 HD
BRANCH   9  20
ATOM     20  C   UNL     1       3.699   1.159  22.613  0.00  0.00    +0.193 C 
BRANCH  20  25
ATOM     25  C   UNL     1       4.706   0.364  23.315  0.00  0.00    -0.087 C 
ATOM     26  C   UNL     1       5.533  -0.286  23.894  0.00  0.00    +0.005 C 
ENDBRANCH  20  25
ENDBRANCH   9  20
ENDBRANCH  15  16
ENDBRANCH  13  15
TORSDOF 10
ENDMDL
MODEL 2
REMARK VINA RESULT:      -5.2      2.070      4.409
REMARK  Name = 25390274
REMARK  11 active torsions:
REMARK  status: ('A' for Active; 'I' for Inactive)
REMARK    1  A    between atoms: S_1  and  N_8
REMARK    2  A    between atoms: S_1  and  C_17
REMARK    3  A    between atoms: O_3  and  C_11
REMARK    4  A    between atoms: O_4  and  C_12
REMARK    5  A    between atoms: N_8  and  C_14
REMARK    6  A    between atoms: N_9  and  C_20
REMARK    7  A    between atoms: C_10  and  C_14
REMARK    8  A    between atoms: C_13  and  C_15
REMARK    9  A    between atoms: C_15  and  C_16
REMARK   10  A    between atoms: C_20  and  C_25
REMARK   11  A    between atoms: C_23  and  C_24
REMARK                            x       y       z     vdW  Elec       q    Type
REMARK                         _______ _______ _______ _____ _____    ______ ____
ROOT
ATOM      2  O   UNL     1      -2.008   3.063  26.237  0.00  0.00    -0.366 OA
ATOM     10  C   UNL     1      -2.666   4.187  25.608  0.00  0.00    +0.165 C 
ATOM     11  C   UNL     1      -1.721   4.686  24.521  0.00  0.00    +0.175 C 
ATOM     12  C   UNL     1      -0.974   3.422  24.148  0.00  0.00    +0.175 C 
ATOM     13  C   UNL     1      -0.810   2.755  25.503  0.00  0.00    +0.158 C 
ENDROOT
BRANCH  11   3
ATOM      3  O   UNL     1      -0.830   5.632  25.110  0.00  0.00    -0.387 OA
ATOM     28  H   UNL     1      -1.338   6.145  25.761  0.00  0.00    +0.210 HD
ENDBRANCH  11   3
BRANCH  12   4
ATOM      4  O   UNL     1       0.267   3.669  23.525  0.00  0.00    -0.387 OA
ATOM     29  H   UNL     1       0.621   2.813  23.230  0.00  0.00    +0.210 HD
ENDBRANCH  12   4
BRANCH  10  14
ATOM     14  C   UNL     1      -4.000   3.699  25.060  0.00  0.00    +0.140 C 
BRANCH  14   8
ATOM      8  N   UNL     1      -4.702   2.920  26.097  0.00  0.00    -0.187 NA
ATOM     27  H   UNL     1      -4.208   2.824  26.993  0.00  0.00    +0.148 HD
BRANCH   8   1
ATOM      1  S   UNL     1      -5.807   1.704  25.651  0.00  0.00    +0.058 S 
ATOM      6  O   UNL     1      -6.483   2.096  24.430  0.00  0.00    -0.153 OA
ATOM      7  O   UNL     1      -6.576   1.314  26.818  0.00  0.00    -0.153 OA
BRANCH   1  17
ATOM     17  C   UNL     1      -4.728   0.358  25.269  0.00  0.00    +0.105 A 
ATOM     18  C   UNL     1      -4.647  -0.122  23.962  0.00  0.00    +0.029 A 
ATOM     19  C   UNL     1      -3.960  -0.227  26.276  0.00  0.00    +0.029 A 
ATOM     21  C   UNL     1      -3.797  -1.186  23.661  0.00  0.00    +0.005 A 
ATOM     22  C   UNL     1      -3.110  -1.292  25.975  0.00  0.00    +0.005 A 
ATOM     23  C   UNL     1      -3.029  -1.771  24.668  0.00  0.00    -0.050 A 
ATOM     24  C   UNL     1      -2.120  -2.909  24.345  0.00  0.00    +0.044 C 
ENDBRANCH   1  17
ENDBRANCH   8   1
ENDBRANCH  14   8
ENDBRANCH  10  14
BRANCH  13  15
ATOM     15  C   UNL     1      -0.638   1.248  25.415  0.00  0.00    +0.130 C 
BRANCH  15  16
ATOM      5  O   UNL     1      -1.085   0.636  23.117  0.00  0.00    -0.276 OA
ATOM      9  N   UNL     1       1.099   0.558  23.907  0.00  0.00    -0.304 N 
ATOM     16  C   UNL     1      -0.265   0.785  24.019  0.00  0.00    +0.216 C 
ATOM     30  H   UNL     1       1.697   0.727  24.710  0.00  0.00    +0.150 HD
BRANCH   9  20
ATOM     20  C   UNL     1       1.726   0.108  22.685  0.00  0.00    +0.193 C 
BRANCH  20  25
ATOM     25  C   UNL     1       3.156   0.416  22.683  0.00  0.00    -0.087 C 
ATOM     26  C   UNL     1       4.330   0.671  22.683  0.00  0.00    +0.005 C 
ENDBRANCH  20  25
ENDBRANCH   9  20
ENDBRANCH  15  16
ENDBRANCH  13  15
TORSDOF 10
ENDMDL
MODEL 3
REMARK VINA RESULT:      -4.5      2.354      7.377
REMARK  Name = 25390274
REMARK  11 active torsions:
REMARK  status: ('A' for Active; 'I' for Inactive)
REMARK    1  A    between atoms: S_1  and  N_8
REMARK    2  A    between atoms: S_1  and  C_17
REMARK    3  A    between atoms: O_3  and  C_11
REMARK    4  A    between atoms: O_4  and  C_12
REMARK    5  A    between atoms: N_8  and  C_14
REMARK    6  A    between atoms: N_9  and  C_20
REMARK    7  A    between atoms: C_10  and  C_14
REMARK    8  A    between atoms: C_13  and  C_15
REMARK    9  A    between atoms: C_15  and  C_16
REMARK   10  A    between atoms: C_20  and  C_25
REMARK   11  A    between atoms: C_23  and  C_24
REMARK                            x       y       z     vdW  Elec       q    Type
REMARK                         _______ _______ _______ _____ _____    ______ ____
ROOT
ATOM      2  O   UNL     1      -2.463   2.849  23.489  0.00  0.00    -0.366 OA
ATOM     10  C   UNL     1      -1.227   2.958  24.232  0.00  0.00    +0.165 C 
ATOM     11  C   UNL     1      -1.548   3.765  25.485  0.00  0.00    +0.175 C 
ATOM     12  C   UNL     1      -3.010   3.436  25.707  0.00  0.00    +0.175 C 
ATOM     13  C   UNL     1      -3.532   3.396  24.281  0.00  0.00    +0.158 C 
ENDROOT
BRANCH  11   3
ATOM      3  O   UNL     1      -1.395   5.149  25.171  0.00  0.00    -0.387 OA
ATOM     28  H   UNL     1      -1.326   5.222  24.204  0.00  0.00    +0.210 HD
ENDBRANCH  11   3
BRANCH  12   4
ATOM      4  O   UNL     1      -3.686   4.392  26.493  0.00  0.00    -0.387 OA
ATOM     29  H   UNL     1      -4.535   4.002  26.762  0.00  0.00    +0.210 HD
ENDBRANCH  12   4
BRANCH  10  14
ATOM     14  C   UNL     1      -0.743   1.547  24.540  0.00  0.00    +0.140 C 
BRANCH  14   8
ATOM      8  N   UNL     1       0.552   1.316  23.873  0.00  0.00    -0.187 NA
ATOM     27  H   UNL     1       0.991   2.145  23.453  0.00  0.00    +0.148 HD
BRANCH   8   1
ATOM      1  S   UNL     1       0.911  -0.211  23.211  0.00  0.00    +0.058 S 
ATOM      6  O   UNL     1       0.519  -0.232  21.815  0.00  0.00    -0.153 OA
ATOM      7  O   UNL     1       0.441  -1.241  24.117  0.00  0.00    -0.153 OA
BRANCH   1  17
ATOM     17  C   UNL     1       2.677  -0.228  23.282  0.00  0.00    +0.105 A 
ATOM     18  C   UNL     1       3.345  -1.360  23.749  0.00  0.00    +0.029 A 
ATOM     19  C   UNL     1       3.402   0.891  22.873  0.00  0.00    +0.029 A 
ATOM     21  C   UNL     1       4.738  -1.373  23.806  0.00  0.00    +0.005 A 
ATOM     22  C   UNL     1       4.796   0.878  22.931  0.00  0.00    +0.005 A 
ATOM     23  C   UNL     1       5.464  -0.254  23.398  0.00  0.00    -0.050 A 
ATOM     24  C   UNL     1       6.955  -0.269  23.459  0.00  0.00    +0.044 C 
ENDBRANCH   1  17
ENDBRANCH   8   1
ENDBRANCH  14   8
ENDBRANCH  10  14
BRANCH  13  15
ATOM     15  C   UNL     1      -4.777   2.540  24.120  0.00  0.00    +0.130 C 
BRANCH  15  16
ATOM      5  O   UNL     1      -5.634   1.324  26.028  0.00  0.00    -0.276 OA
ATOM      9  N   UNL     1      -3.846   0.443  24.832  0.00  0.00    -0.304 N 
ATOM     16  C   UNL     1      -4.824   1.388  25.107  0.00  0.00    +0.216 C 
ATOM     30  H   UNL     1      -3.233   0.583  24.034  0.00  0.00    +0.150 HD
BRANCH   9  20
ATOM     20  C   UNL     1      -3.665  -0.756  25.617  0.00  0.00    +0.193 C 
BRANCH  20  25
ATOM     25  C   UNL     1      -3.666  -1.947  24.769  0.00  0.00    -0.087 C 
ATOM     26  C   UNL     1      -3.670  -2.926  24.072  0.00  0.00    +0.005 C 
ENDBRANCH  20  25
ENDBRANCH   9  20
ENDBRANCH  15  16
ENDBRANCH  13  15
TORSDOF 10
ENDMDL
MODEL 4
REMARK VINA RESULT:      -4.2      2.104      2.799
REMARK  Name = 25390274
REMARK  11 active torsions:
REMARK  status: ('A' for Active; 'I' for Inactive)
REMARK    1  A    between atoms: S_1  and  N_8
REMARK    2  A    between atoms: S_1  and  C_17
REMARK    3  A    between atoms: O_3  and  C_11
REMARK    4  A    between atoms: O_4  and  C_12
REMARK    5  A    between atoms: N_8  and  C_14
REMARK    6  A    between atoms: N_9  and  C_20
REMARK    7  A    between atoms: C_10  and  C_14
REMARK    8  A    between atoms: C_13  and  C_15
REMARK    9  A    between atoms: C_15  and  C_16
REMARK   10  A    between atoms: C_20  and  C_25
REMARK   11  A    between atoms: C_23  and  C_24
REMARK                            x       y       z     vdW  Elec       q    Type
REMARK                         _______ _______ _______ _____ _____    ______ ____
ROOT
ATOM      2  O   UNL     1      -2.189   0.085  23.818  0.00  0.00    -0.366 OA
ATOM     10  C   UNL     1      -3.019  -0.944  24.403  0.00  0.00    +0.165 C 
ATOM     11  C   UNL     1      -2.069  -1.978  24.996  0.00  0.00    +0.175 C 
ATOM     12  C   UNL     1      -0.856  -1.134  25.334  0.00  0.00    +0.175 C 
ATOM     13  C   UNL     1      -0.815  -0.176  24.155  0.00  0.00    +0.158 C 
ENDROOT
BRANCH  11   3
ATOM      3  O   UNL     1      -1.747  -2.921  23.975  0.00  0.00    -0.387 OA
ATOM     28  H   UNL     1      -2.190  -2.630  23.160  0.00  0.00    +0.210 HD
ENDBRANCH  11   3
BRANCH  12   4
ATOM      4  O   UNL     1       0.333  -1.885  25.448  0.00  0.00    -0.387 OA
ATOM     29  H   UNL     1       1.078  -1.262  25.389  0.00  0.00    +0.210 HD
ENDBRANCH  12   4
BRANCH  10  14
ATOM     14  C   UNL     1      -3.911  -0.285  25.446  0.00  0.00    +0.140 C 
BRANCH  14   8
ATOM      8  N   UNL     1      -5.147   0.196  24.802  0.00  0.00    -0.187 NA
ATOM     27  H   UNL     1      -5.291  -0.108  23.832  0.00  0.00    +0.148 HD
BRANCH   8   1
ATOM      1  S   UNL     1      -5.856   1.661  25.303  0.00  0.00    +0.058 S 
ATOM      6  O   UNL     1      -6.229   1.560  26.701  0.00  0.00    -0.153 OA
ATOM      7  O   UNL     1      -6.834   2.074  24.315  0.00  0.00    -0.153 OA
BRANCH   1  17
ATOM     17  C   UNL     1      -4.495   2.781  25.181  0.00  0.00    +0.105 A 
ATOM     18  C   UNL     1      -4.108   3.533  26.291  0.00  0.00    +0.029 A 
ATOM     19  C   UNL     1      -3.808   2.915  23.974  0.00  0.00    +0.029 A 
ATOM     21  C   UNL     1      -3.036   4.418  26.194  0.00  0.00    +0.005 A 
ATOM     22  C   UNL     1      -2.735   3.802  23.877  0.00  0.00    +0.005 A 
ATOM     23  C   UNL     1      -2.349   4.553  24.987  0.00  0.00    -0.050 A 
ATOM     24  C   UNL     1      -1.201   5.501  24.884  0.00  0.00    +0.044 C 
ENDBRANCH   1  17
ENDBRANCH   8   1
ENDBRANCH  14   8
ENDBRANCH  10  14
BRANCH  13  15
ATOM     15  C   UNL     1      -0.107   1.131  24.467  0.00  0.00    +0.130 C 
BRANCH  15  16
ATOM      5  O   UNL     1      -1.561   1.583  26.347  0.00  0.00    -0.276 OA
ATOM      9  N   UNL     1       0.670   2.225  26.459  0.00  0.00    -0.304 N 
ATOM     16  C   UNL     1      -0.440   1.659  25.850  0.00  0.00    +0.216 C 
ATOM     30  H   UNL     1       1.559   2.224  25.968  0.00  0.00    +0.150 HD
BRANCH   9  20
ATOM     20  C   UNL     1       0.634   2.806  27.781  0.00  0.00    +0.193 C 
BRANCH  20  25
ATOM     25  C   UNL     1       1.964   2.815  28.389  0.00  0.00    -0.087 C 
ATOM     26  C   UNL     1       3.057   2.821  28.885  0.00  0.00    +0.005 C 
ENDBRANCH  20  25
ENDBRANCH   9  20
ENDBRANCH  15  16
ENDBRANCH  13  15
TORSDOF 10
ENDMDL
MODEL 5
REMARK VINA RESULT:      -3.7      2.479      5.448
REMARK  Name = 25390274
REMARK  11 active torsions:
REMARK  status: ('A' for Active; 'I' for Inactive)
REMARK    1  A    between atoms: S_1  and  N_8
REMARK    2  A    between atoms: S_1  and  C_17
REMARK    3  A    between atoms: O_3  and  C_11
REMARK    4  A    between atoms: O_4  and  C_12
REMARK    5  A    between atoms: N_8  and  C_14
REMARK    6  A    between atoms: N_9  and  C_20
REMARK    7  A    between atoms: C_10  and  C_14
REMARK    8  A    between atoms: C_13  and  C_15
REMARK    9  A    between atoms: C_15  and  C_16
REMARK   10  A    between atoms: C_20  and  C_25
REMARK   11  A    between atoms: C_23  and  C_24
REMARK                            x       y       z     vdW  Elec       q    Type
REMARK                         _______ _______ _______ _____ _____    ______ ____
ROOT
ATOM      2  O   UNL     1      -3.612   2.129  25.893  0.00  0.00    -0.366 OA
ATOM     10  C   UNL     1      -4.735   1.319  25.476  0.00  0.00    +0.165 C 
ATOM     11  C   UNL     1      -5.960   2.225  25.521  0.00  0.00    +0.175 C 
ATOM     12  C   UNL     1      -5.353   3.589  25.261  0.00  0.00    +0.175 C 
ATOM     13  C   UNL     1      -4.048   3.493  26.033  0.00  0.00    +0.158 C 
ENDROOT
BRANCH  11   3
ATOM      3  O   UNL     1      -6.503   2.169  26.840  0.00  0.00    -0.387 OA
ATOM     28  H   UNL     1      -6.705   1.237  27.032  0.00  0.00    +0.210 HD
ENDBRANCH  11   3
BRANCH  12   4
ATOM      4  O   UNL     1      -6.158   4.655  25.713  0.00  0.00    -0.387 OA
ATOM     29  H   UNL     1      -5.938   4.811  26.648  0.00  0.00    +0.210 HD
ENDBRANCH  12   4
BRANCH  10  14
ATOM     14  C   UNL     1      -4.435   0.791  24.080  0.00  0.00    +0.140 C 
BRANCH  14   8
ATOM      8  N   UNL     1      -4.552  -0.679  24.075  0.00  0.00    -0.187 NA
ATOM     27  H   UNL     1      -5.493  -1.050  23.892  0.00  0.00    +0.148 HD
BRANCH   8   1
ATOM      1  S   UNL     1      -3.477  -1.624  24.995  0.00  0.00    +0.058 S 
ATOM      6  O   UNL     1      -3.600  -3.014  24.597  0.00  0.00    -0.153 OA
ATOM      7  O   UNL     1      -3.595  -1.252  26.391  0.00  0.00    -0.153 OA
BRANCH   1  17
ATOM     17  C   UNL     1      -1.907  -1.034  24.435  0.00  0.00    +0.105 A 
ATOM     18  C   UNL     1      -1.829   0.152  23.704  0.00  0.00    +0.029 A 
ATOM     19  C   UNL     1      -0.748  -1.756  24.721  0.00  0.00    +0.029 A 
ATOM     21  C   UNL     1      -0.591   0.616  23.261  0.00  0.00    +0.005 A 
ATOM     22  C   UNL     1       0.490  -1.291  24.277  0.00  0.00    +0.005 A 
ATOM     23  C   UNL     1       0.569  -0.105  23.547  0.00  0.00    -0.050 A 
ATOM     24  C   UNL     1       1.892   0.393  23.072  0.00  0.00    +0.044 C 
ENDBRANCH   1  17
ENDBRANCH   8   1
ENDBRANCH  14   8
ENDBRANCH  10  14
BRANCH  13  15
ATOM     15  C   UNL     1      -2.970   4.429  25.512  0.00  0.00    +0.130 C 
BRANCH  15  16
ATOM      5  O   UNL     1      -1.222   3.607  24.056  0.00  0.00    -0.276 OA
ATOM      9  N   UNL     1      -1.089   3.184  26.338  0.00  0.00    -0.304 N 
ATOM     16  C   UNL     1      -1.675   3.706  25.194  0.00  0.00    +0.216 C 
ATOM     30  H   UNL     1      -1.538   3.335  27.237  0.00  0.00    +0.150 HD
BRANCH   9  20
ATOM     20  C   UNL     1       0.152   2.445  26.322  0.00  0.00    +0.193 C 
BRANCH  20  25
ATOM     25  C   UNL     1       0.812   2.496  27.626  0.00  0.00    -0.087 C 
ATOM     26  C   UNL     1       1.356   2.539  28.696  0.00  0.00    +0.005 C 
ENDBRANCH  20  25
ENDBRANCH   9  20
ENDBRANCH  15  16
ENDBRANCH  13  15
TORSDOF 10
ENDMDL
MODEL 6
REMARK VINA RESULT:      -3.6      2.739      4.195
REMARK  Name = 25390274
REMARK  11 active torsions:
REMARK  status: ('A' for Active; 'I' for Inactive)
REMARK    1  A    between atoms: S_1  and  N_8
REMARK    2  A    between atoms: S_1  and  C_17
REMARK    3  A    between atoms: O_3  and  C_11
REMARK    4  A    between atoms: O_4  and  C_12
REMARK    5  A    between atoms: N_8  and  C_14
REMARK    6  A    between atoms: N_9  and  C_20
REMARK    7  A    between atoms: C_10  and  C_14
REMARK    8  A    between atoms: C_13  and  C_15
REMARK    9  A    between atoms: C_15  and  C_16
REMARK   10  A    between atoms: C_20  and  C_25
REMARK   11  A    between atoms: C_23  and  C_24
REMARK                            x       y       z     vdW  Elec       q    Type
REMARK                         _______ _______ _______ _____ _____    ______ ____
ROOT
ATOM      2  O   UNL     1      -0.775   1.069  23.544  0.00  0.00    -0.366 OA
ATOM     10  C   UNL     1      -0.337  -0.309  23.506  0.00  0.00    +0.165 C 
ATOM     11  C   UNL     1       1.153  -0.279  23.185  0.00  0.00    +0.175 C 
ATOM     12  C   UNL     1       1.573   1.057  23.765  0.00  0.00    +0.175 C 
ATOM     13  C   UNL     1       0.374   1.926  23.426  0.00  0.00    +0.158 C 
ENDROOT
BRANCH  11   3
ATOM      3  O   UNL     1       1.300  -0.270  21.766  0.00  0.00    -0.387 OA
ATOM     28  H   UNL     1       1.205  -1.187  21.458  0.00  0.00    +0.210 HD
ENDBRANCH  11   3
BRANCH  12   4
ATOM      4  O   UNL     1       2.767   1.559  23.206  0.00  0.00    -0.387 OA
ATOM     29  H   UNL     1       2.520   2.169  22.490  0.00  0.00    +0.210 HD
ENDBRANCH  12   4
BRANCH  10  14
ATOM     14  C   UNL     1      -0.642  -0.932  24.862  0.00  0.00    +0.140 C 
BRANCH  14   8
ATOM      8  N   UNL     1      -1.810  -0.259  25.460  0.00  0.00    -0.187 NA
ATOM     27  H   UNL     1      -1.686   0.076  26.423  0.00  0.00    +0.148 HD
BRANCH   8   1
ATOM      1  S   UNL     1      -3.382  -0.651  24.937  0.00  0.00    +0.058 S 
ATOM      6  O   UNL     1      -3.991  -1.560  25.889  0.00  0.00    -0.153 OA
ATOM      7  O   UNL     1      -3.341  -0.990  23.528  0.00  0.00    -0.153 OA
BRANCH   1  17
ATOM     17  C   UNL     1      -4.205   0.908  25.069  0.00  0.00    +0.105 A 
ATOM     18  C   UNL     1      -3.822   1.971  24.250  0.00  0.00    +0.029 A 
ATOM     19  C   UNL     1      -5.237   1.075  25.993  0.00  0.00    +0.029 A 
ATOM     21  C   UNL     1      -4.470   3.200  24.356  0.00  0.00    +0.005 A 
ATOM     22  C   UNL     1      -5.885   2.307  26.098  0.00  0.00    +0.005 A 
ATOM     23  C   UNL     1      -5.502   3.369  25.280  0.00  0.00    -0.050 A 
ATOM     24  C   UNL     1      -6.195   4.685  25.392  0.00  0.00    +0.044 C 
ENDBRANCH   1  17
ENDBRANCH   8   1
ENDBRANCH  14   8
ENDBRANCH  10  14
BRANCH  13  15
ATOM     15  C   UNL     1       0.217   3.122  24.350  0.00  0.00    +0.130 C 
BRANCH  15  16
ATOM      5  O   UNL     1      -1.495   2.700  26.007  0.00  0.00    -0.276 OA
ATOM      9  N   UNL     1       0.739   2.429  26.590  0.00  0.00    -0.304 N 
ATOM     16  C   UNL     1      -0.300   2.733  25.722  0.00  0.00    +0.216 C 
ATOM     30  H   UNL     1       1.696   2.472  26.251  0.00  0.00    +0.150 HD
BRANCH   9  20
ATOM     20  C   UNL     1       0.529   2.029  27.962  0.00  0.00    +0.193 C 
BRANCH  20  25
ATOM     25  C   UNL     1       1.623   2.489  28.818  0.00  0.00    -0.087 C 
ATOM     26  C   UNL     1       2.521   2.864  29.521  0.00  0.00    +0.005 C 
ENDBRANCH  20  25
ENDBRANCH   9  20
ENDBRANCH  15  16
ENDBRANCH  13  15
TORSDOF 10
ENDMDL
MODEL 7
REMARK VINA RESULT:      -3.6      2.091      6.528
REMARK  Name = 25390274
REMARK  11 active torsions:
REMARK  status: ('A' for Active; 'I' for Inactive)
REMARK    1  A    between atoms: S_1  and  N_8
REMARK    2  A    between atoms: S_1  and  C_17
REMARK    3  A    between atoms: O_3  and  C_11
REMARK    4  A    between atoms: O_4  and  C_12
REMARK    5  A    between atoms: N_8  and  C_14
REMARK    6  A    between atoms: N_9  and  C_20
REMARK    7  A    between atoms: C_10  and  C_14
REMARK    8  A    between atoms: C_13  and  C_15
REMARK    9  A    between atoms: C_15  and  C_16
REMARK   10  A    between atoms: C_20  and  C_25
REMARK   11  A    between atoms: C_23  and  C_24
REMARK                            x       y       z     vdW  Elec       q    Type
REMARK                         _______ _______ _______ _____ _____    ______ ____
ROOT
ATOM      2  O   UNL     1      -3.176   0.048  25.987  0.00  0.00    -0.366 OA
ATOM     10  C   UNL     1      -2.007  -0.793  25.851  0.00  0.00    +0.165 C 
ATOM     11  C   UNL     1      -2.353  -1.844  24.803  0.00  0.00    +0.175 C 
ATOM     12  C   UNL     1      -3.361  -1.110  23.941  0.00  0.00    +0.175 C 
ATOM     13  C   UNL     1      -4.138  -0.325  24.985  0.00  0.00    +0.158 C 
ENDROOT
BRANCH  11   3
ATOM      3  O   UNL     1      -2.976  -2.943  25.466  0.00  0.00    -0.387 OA
ATOM     28  H   UNL     1      -3.839  -3.088  25.041  0.00  0.00    +0.210 HD
ENDBRANCH  11   3
BRANCH  12   4
ATOM      4  O   UNL     1      -4.194  -1.972  23.198  0.00  0.00    -0.387 OA
ATOM     29  H   UNL     1      -3.869  -1.973  22.281  0.00  0.00    +0.210 HD
ENDBRANCH  12   4
BRANCH  10  14
ATOM     14  C   UNL     1      -0.840   0.095  25.443  0.00  0.00    +0.140 C 
BRANCH  14   8
ATOM      8  N   UNL     1       0.002  -0.620  24.466  0.00  0.00    -0.187 NA
ATOM     27  H   UNL     1       0.588  -1.372  24.848  0.00  0.00    +0.148 HD
BRANCH   8   1
ATOM      1  S   UNL     1       0.523   0.168  23.049  0.00  0.00    +0.058 S 
ATOM      6  O   UNL     1       0.184   1.575  23.132  0.00  0.00    -0.153 OA
ATOM      7  O   UNL     1       0.118  -0.614  21.897  0.00  0.00    -0.153 OA
BRANCH   1  17
ATOM     17  C   UNL     1       2.279   0.022  23.180  0.00  0.00    +0.105 A 
ATOM     18  C   UNL     1       2.848  -1.166  23.641  0.00  0.00    +0.029 A 
ATOM     19  C   UNL     1       3.097   1.095  22.824  0.00  0.00    +0.029 A 
ATOM     21  C   UNL     1       4.233  -1.280  23.747  0.00  0.00    +0.005 A 
ATOM     22  C   UNL     1       4.483   0.980  22.930  0.00  0.00    +0.005 A 
ATOM     23  C   UNL     1       5.052  -0.208  23.391  0.00  0.00    -0.050 A 
ATOM     24  C   UNL     1       6.534  -0.331  23.504  0.00  0.00    +0.044 C 
ENDBRANCH   1  17
ENDBRANCH   8   1
ENDBRANCH  14   8
ENDBRANCH  10  14
BRANCH  13  15
ATOM     15  C   UNL     1      -4.804   0.922  24.427  0.00  0.00    +0.130 C 
BRANCH  15  16
ATOM      5  O   UNL     1      -5.525   2.482  26.130  0.00  0.00    -0.276 OA
ATOM      9  N   UNL     1      -3.424   2.741  25.171  0.00  0.00    -0.304 N 
ATOM     16  C   UNL     1      -4.653   2.122  25.344  0.00  0.00    +0.216 C 
ATOM     30  H   UNL     1      -2.763   2.354  24.503  0.00  0.00    +0.150 HD
BRANCH   9  20
ATOM     20  C   UNL     1      -3.018   3.910  25.917  0.00  0.00    +0.193 C 
BRANCH  20  25
ATOM     25  C   UNL     1      -1.816   4.512  25.340  0.00  0.00    -0.087 C 
ATOM     26  C   UNL     1      -0.830   5.009  24.868  0.00  0.00    +0.005 C 
ENDBRANCH  20  25
ENDBRANCH   9  20
ENDBRANCH  15  16
ENDBRANCH  13  15
TORSDOF 10
ENDMDL
MODEL 8
REMARK VINA RESULT:      -3.3      2.385      2.932
REMARK  Name = 25390274
REMARK  11 active torsions:
REMARK  status: ('A' for Active; 'I' for Inactive)
REMARK    1  A    between atoms: S_1  and  N_8
REMARK    2  A    between atoms: S_1  and  C_17
REMARK    3  A    between atoms: O_3  and  C_11
REMARK    4  A    between atoms: O_4  and  C_12
REMARK    5  A    between atoms: N_8  and  C_14
REMARK    6  A    between atoms: N_9  and  C_20
REMARK    7  A    between atoms: C_10  and  C_14
REMARK    8  A    between atoms: C_13  and  C_15
REMARK    9  A    between atoms: C_15  and  C_16
REMARK   10  A    between atoms: C_20  and  C_25
REMARK   11  A    between atoms: C_23  and  C_24
REMARK                            x       y       z     vdW  Elec       q    Type
REMARK                         _______ _______ _______ _____ _____    ______ ____
ROOT
ATOM      2  O   UNL     1       0.525  -1.018  24.466  0.00  0.00    -0.366 OA
ATOM     10  C   UNL     1      -0.505  -1.693  25.224  0.00  0.00    +0.165 C 
ATOM     11  C   UNL     1      -1.223  -0.615  26.030  0.00  0.00    +0.175 C 
ATOM     12  C   UNL     1      -1.039   0.607  25.154  0.00  0.00    +0.175 C 
ATOM     13  C   UNL     1       0.374   0.402  24.637  0.00  0.00    +0.158 C 
ENDROOT
BRANCH  11   3
ATOM      3  O   UNL     1      -0.527  -0.448  27.264  0.00  0.00    -0.387 OA
ATOM     28  H   UNL     1      -1.014   0.213  27.785  0.00  0.00    +0.210 HD
ENDBRANCH  11   3
BRANCH  12   4
ATOM      4  O   UNL     1      -1.176   1.824  25.855  0.00  0.00    -0.387 OA
ATOM     29  H   UNL     1      -1.033   2.545  25.219  0.00  0.00    +0.210 HD
ENDBRANCH  12   4
BRANCH  10  14
ATOM     14  C   UNL     1      -1.419  -2.406  24.237  0.00  0.00    +0.140 C 
BRANCH  14   8
ATOM      8  N   UNL     1      -2.454  -1.469  23.761  0.00  0.00    -0.187 NA
ATOM     27  H   UNL     1      -2.109  -0.573  23.395  0.00  0.00    +0.148 HD
BRANCH   8   1
ATOM      1  S   UNL     1      -4.022  -1.521  24.423  0.00  0.00    +0.058 S 
ATOM      6  O   UNL     1      -3.966  -2.122  25.741  0.00  0.00    -0.153 OA
ATOM      7  O   UNL     1      -4.939  -2.034  23.424  0.00  0.00    -0.153 OA
BRANCH   1  17
ATOM     17  C   UNL     1      -4.386   0.197  24.623  0.00  0.00    +0.105 A 
ATOM     18  C   UNL     1      -3.780   1.140  23.792  0.00  0.00    +0.029 A 
ATOM     19  C   UNL     1      -5.278   0.610  25.613  0.00  0.00    +0.029 A 
ATOM     21  C   UNL     1      -4.066   2.495  23.951  0.00  0.00    +0.005 A 
ATOM     22  C   UNL     1      -5.564   1.967  25.772  0.00  0.00    +0.005 A 
ATOM     23  C   UNL     1      -4.958   2.909  24.941  0.00  0.00    -0.050 A 
ATOM     24  C   UNL     1      -5.264   4.359  25.111  0.00  0.00    +0.044 C 
ENDBRANCH   1  17
ENDBRANCH   8   1
ENDBRANCH  14   8
ENDBRANCH  10  14
BRANCH  13  15
ATOM     15  C   UNL     1       0.642   1.107  23.319  0.00  0.00    +0.130 C 
BRANCH  15  16
ATOM      5  O   UNL     1       1.818  -0.286  21.728  0.00  0.00    -0.276 OA
ATOM      9  N   UNL     1       3.032   1.158  23.085  0.00  0.00    -0.304 N 
ATOM     16  C   UNL     1       1.871   0.568  22.609  0.00  0.00    +0.216 C 
ATOM     30  H   UNL     1       2.967   1.869  23.808  0.00  0.00    +0.150 HD
BRANCH   9  20
ATOM     20  C   UNL     1       4.347   0.827  22.585  0.00  0.00    +0.193 C 
BRANCH  20  25
ATOM     25  C   UNL     1       5.066  -0.034  23.523  0.00  0.00    -0.087 C 
ATOM     26  C   UNL     1       5.659  -0.739  24.293  0.00  0.00    +0.005 C 
ENDBRANCH  20  25
ENDBRANCH   9  20
ENDBRANCH  15  16
ENDBRANCH  13  15
TORSDOF 10
ENDMDL
MODEL 9
REMARK VINA RESULT:      -2.9      2.823      6.121
REMARK  Name = 25390274
REMARK  11 active torsions:
REMARK  status: ('A' for Active; 'I' for Inactive)
REMARK    1  A    between atoms: S_1  and  N_8
REMARK    2  A    between atoms: S_1  and  C_17
REMARK    3  A    between atoms: O_3  and  C_11
REMARK    4  A    between atoms: O_4  and  C_12
REMARK    5  A    between atoms: N_8  and  C_14
REMARK    6  A    between atoms: N_9  and  C_20
REMARK    7  A    between atoms: C_10  and  C_14
REMARK    8  A    between atoms: C_13  and  C_15
REMARK    9  A    between atoms: C_15  and  C_16
REMARK   10  A    between atoms: C_20  and  C_25
REMARK   11  A    between atoms: C_23  and  C_24
REMARK                            x       y       z     vdW  Elec       q    Type
REMARK                         _______ _______ _______ _____ _____    ______ ____
ROOT
ATOM      2  O   UNL     1      -3.640   3.491  24.379  0.00  0.00    -0.366 OA
ATOM     10  C   UNL     1      -3.892   4.051  25.688  0.00  0.00    +0.165 C 
ATOM     11  C   UNL     1      -5.266   3.548  26.115  0.00  0.00    +0.175 C 
ATOM     12  C   UNL     1      -5.361   2.226  25.381  0.00  0.00    +0.175 C 
ATOM     13  C   UNL     1      -4.693   2.564  24.058  0.00  0.00    +0.158 C 
ENDROOT
BRANCH  11   3
ATOM      3  O   UNL     1      -6.245   4.461  25.618  0.00  0.00    -0.387 OA
ATOM     28  H   UNL     1      -6.127   5.300  26.094  0.00  0.00    +0.210 HD
ENDBRANCH  11   3
BRANCH  12   4
ATOM      4  O   UNL     1      -6.686   1.777  25.206  0.00  0.00    -0.387 OA
ATOM     29  H   UNL     1      -6.977   2.063  24.323  0.00  0.00    +0.210 HD
ENDBRANCH  12   4
BRANCH  10  14
ATOM     14  C   UNL     1      -2.775   3.589  26.614  0.00  0.00    +0.140 C 
BRANCH  14   8
ATOM      8  N   UNL     1      -1.887   2.661  25.888  0.00  0.00    -0.187 NA
ATOM     27  H   UNL     1      -2.148   1.669  25.932  0.00  0.00    +0.148 HD
BRANCH   8   1
ATOM      1  S   UNL     1      -0.247   3.055  25.654  0.00  0.00    +0.058 S 
ATOM      6  O   UNL     1       0.492   2.766  26.868  0.00  0.00    -0.153 OA
ATOM      7  O   UNL     1      -0.159   4.366  25.040  0.00  0.00    -0.153 OA
BRANCH   1  17
ATOM     17  C   UNL     1       0.236   1.878  24.428  0.00  0.00    +0.105 A 
ATOM     18  C   UNL     1       1.561   1.824  23.997  0.00  0.00    +0.029 A 
ATOM     19  C   UNL     1      -0.709   1.004  23.890  0.00  0.00    +0.029 A 
ATOM     21  C   UNL     1       1.942   0.897  23.028  0.00  0.00    +0.005 A 
ATOM     22  C   UNL     1      -0.328   0.076  22.920  0.00  0.00    +0.005 A 
ATOM     23  C   UNL     1       0.998   0.022  22.489  0.00  0.00    -0.050 A 
ATOM     24  C   UNL     1       1.406  -0.970  21.453  0.00  0.00    +0.044 C 
ENDBRANCH   1  17
ENDBRANCH   8   1
ENDBRANCH  14   8
ENDBRANCH  10  14
BRANCH  13  15
ATOM     15  C   UNL     1      -4.111   1.353  23.351  0.00  0.00    +0.130 C 
BRANCH  15  16
ATOM      5  O   UNL     1      -3.685   0.305  25.489  0.00  0.00    -0.276 OA
ATOM      9  N   UNL     1      -3.979  -1.031  23.611  0.00  0.00    -0.304 N 
ATOM     16  C   UNL     1      -3.900   0.177  24.287  0.00  0.00    +0.216 C 
ATOM     30  H   UNL     1      -4.177  -1.029  22.614  0.00  0.00    +0.150 HD
BRANCH   9  20
ATOM     20  C   UNL     1      -3.814  -2.311  24.261  0.00  0.00    +0.193 C 
BRANCH  20  25
ATOM     25  C   UNL     1      -2.419  -2.534  24.639  0.00  0.00    -0.087 C 
ATOM     26  C   UNL     1      -1.273  -2.720  24.946  0.00  0.00    +0.005 C 
ENDBRANCH  20  25
ENDBRANCH   9  20
ENDBRANCH  15  16
ENDBRANCH  13  15
TORSDOF 10
ENDMDL
MODEL 10
REMARK VINA RESULT:      -2.7      2.749      5.932
REMARK  Name = 25390274
REMARK  11 active torsions:
REMARK  status: ('A' for Active; 'I' for Inactive)
REMARK    1  A    between atoms: S_1  and  N_8
REMARK    2  A    between atoms: S_1  and  C_17
REMARK    3  A    between atoms: O_3  and  C_11
REMARK    4  A    between atoms: O_4  and  C_12
REMARK    5  A    between atoms: N_8  and  C_14
REMARK    6  A    between atoms: N_9  and  C_20
REMARK    7  A    between atoms: C_10  and  C_14
REMARK    8  A    between atoms: C_13  and  C_15
REMARK    9  A    between atoms: C_15  and  C_16
REMARK   10  A    between atoms: C_20  and  C_25
REMARK   11  A    between atoms: C_23  and  C_24
REMARK                            x       y       z     vdW  Elec       q    Type
REMARK                         _______ _______ _______ _____ _____    ______ ____
ROOT
ATOM      2  O   UNL     1      -1.924  -0.444  25.240  0.00  0.00    -0.366 OA
ATOM     10  C   UNL     1      -1.454  -1.810  25.303  0.00  0.00    +0.165 C 
ATOM     11  C   UNL     1      -2.586  -2.680  24.767  0.00  0.00    +0.175 C 
ATOM     12  C   UNL     1      -3.283  -1.736  23.809  0.00  0.00    +0.175 C 
ATOM     13  C   UNL     1      -3.192  -0.418  24.560  0.00  0.00    +0.158 C 
ENDROOT
BRANCH  11   3
ATOM      3  O   UNL     1      -3.448  -3.004  25.857  0.00  0.00    -0.387 OA
ATOM     28  H   UNL     1      -4.361  -2.973  25.525  0.00  0.00    +0.210 HD
ENDBRANCH  11   3
BRANCH  12   4
ATOM      4  O   UNL     1      -4.618  -2.100  23.538  0.00  0.00    -0.387 OA
ATOM     29  H   UNL     1      -4.994  -1.418  22.955  0.00  0.00    +0.210 HD
ENDBRANCH  12   4
BRANCH  10  14
ATOM     14  C   UNL     1      -0.184  -1.904  24.468  0.00  0.00    +0.140 C 
BRANCH  14   8
ATOM      8  N   UNL     1       0.675  -0.739  24.749  0.00  0.00    -0.187 NA
ATOM     27  H   UNL     1       0.731  -0.453  25.734  0.00  0.00    +0.148 HD
BRANCH   8   1
ATOM      1  S   UNL     1       0.930   0.444  23.550  0.00  0.00    +0.058 S 
ATOM      6  O   UNL     1       0.280   0.028  22.322  0.00  0.00    -0.153 OA
ATOM      7  O   UNL     1       2.331   0.817  23.545  0.00  0.00    -0.153 OA
BRANCH   1  17
ATOM     17  C   UNL     1       0.032   1.819  24.204  0.00  0.00    +0.105 A 
ATOM     18  C   UNL     1      -0.170   1.929  25.580  0.00  0.00    +0.029 A 
ATOM     19  C   UNL     1      -0.476   2.792  23.343  0.00  0.00    +0.029 A 
ATOM     21  C   UNL     1      -0.880   3.013  26.095  0.00  0.00    +0.005 A 
ATOM     22  C   UNL     1      -1.187   3.876  23.859  0.00  0.00    +0.005 A 
ATOM     23  C   UNL     1      -1.389   3.987  25.235  0.00  0.00    -0.050 A 
ATOM     24  C   UNL     1      -2.149   5.146  25.787  0.00  0.00    +0.044 C 
ENDBRANCH   1  17
ENDBRANCH   8   1
ENDBRANCH  14   8
ENDBRANCH  10  14
BRANCH  13  15
ATOM     15  C   UNL     1      -3.261   0.798  23.653  0.00  0.00    +0.130 C 
BRANCH  15  16
ATOM      5  O   UNL     1      -4.489   2.880  23.546  0.00  0.00    -0.276 OA
ATOM      9  N   UNL     1      -5.037   1.323  25.182  0.00  0.00    -0.304 N 
ATOM     16  C   UNL     1      -4.316   1.795  24.096  0.00  0.00    +0.216 C 
ATOM     30  H   UNL     1      -4.825   0.402  25.555  0.00  0.00    +0.150 HD
BRANCH   9  20
ATOM     20  C   UNL     1      -6.103   2.072  25.808  0.00  0.00    +0.193 C 
BRANCH  20  25
ATOM     25  C   UNL     1      -5.855   3.511  25.723  0.00  0.00    -0.087 C 
ATOM     26  C   UNL     1      -5.655   4.693  25.654  0.00  0.00    +0.005 C 
ENDBRANCH  20  25
ENDBRANCH   9  20
ENDBRANCH  15  16
ENDBRANCH  13  15
TORSDOF 10
ENDMDL
