MODEL 1
REMARK VINA RESULT:      -5.2      0.000      0.000
REMARK  Name = 75368414
REMARK  1 active torsions:
REMARK  status: ('A' for Active; 'I' for Inactive)
REMARK    1  A    between atoms: C_13  and  C_14
REMARK                            x       y       z     vdW  Elec       q    Type
REMARK                         _______ _______ _______ _____ _____    ______ ____
ROOT
ATOM      1  O   UNL     1      -1.280   6.088  24.884  0.00  0.00    -0.253 OA
ATOM      2  O   UNL     1      -6.046   0.970  24.831  0.00  0.00    -0.270 OA
ATOM      3  N   UNL     1      -2.201   3.924  24.784  0.00  0.00    -0.278 N 
ATOM      4  N   UNL     1      -3.941   1.835  25.358  0.00  0.00    -0.294 N 
ATOM      5  N   UNL     1       0.021   4.142  25.040  0.00  0.00    -0.297 N 
ATOM      7  C   UNL     1      -1.688   2.566  24.721  0.00  0.00    +0.112 C 
ATOM      8  C   UNL     1      -2.502   1.653  25.632  0.00  0.00    +0.132 C 
ATOM      9  C   UNL     1      -0.221   2.719  25.112  0.00  0.00    +0.129 C 
ATOM     10  C   UNL     1      -3.623   4.169  24.623  0.00  0.00    +0.128 C 
ATOM     11  C   UNL     1      -4.422   3.216  25.511  0.00  0.00    +0.127 C 
ATOM     12  C   UNL     1      -1.176   4.869  24.897  0.00  0.00    +0.303 C 
ATOM     13  C   UNL     1      -4.840   0.823  25.022  0.00  0.00    +0.248 C 
ATOM     19  H   UNL     1       0.932   4.573  25.160  0.00  0.00    +0.150 HD
ENDROOT
BRANCH  13  14
ATOM      6  N   UNL     1      -3.092  -2.404  25.797  0.00  0.00    -0.263 NA
ATOM     14  C   UNL     1      -4.318  -0.541  24.864  0.00  0.00    +0.055 A 
ATOM     15  C   UNL     1      -4.535  -1.259  23.694  0.00  0.00    +0.016 A 
ATOM     16  C   UNL     1      -3.598  -1.153  25.878  0.00  0.00    +0.123 A 
ATOM     17  C   UNL     1      -4.031  -2.550  23.573  0.00  0.00    +0.020 A 
ATOM     18  C   UNL     1      -3.322  -3.071  24.644  0.00  0.00    +0.111 A 
ENDBRANCH  13  14
TORSDOF 1
ENDMDL
MODEL 2
REMARK VINA RESULT:      -5.1      2.643      4.277
REMARK  Name = 75368414
REMARK  1 active torsions:
REMARK  status: ('A' for Active; 'I' for Inactive)
REMARK    1  A    between atoms: C_13  and  C_14
REMARK                            x       y       z     vdW  Elec       q    Type
REMARK                         _______ _______ _______ _____ _____    ______ ____
ROOT
ATOM      1  O   UNL     1      -6.331   4.941  25.996  0.00  0.00    -0.253 OA
ATOM      2  O   UNL     1       0.349   2.899  25.667  0.00  0.00    -0.270 OA
ATOM      3  N   UNL     1      -4.456   3.548  25.707  0.00  0.00    -0.278 N 
ATOM      4  N   UNL     1      -1.879   2.818  24.969  0.00  0.00    -0.294 N 
ATOM      5  N   UNL     1      -6.473   2.791  25.068  0.00  0.00    -0.297 N 
ATOM      7  C   UNL     1      -4.222   2.173  25.301  0.00  0.00    +0.112 C 
ATOM      8  C   UNL     1      -3.018   2.097  24.368  0.00  0.00    +0.132 C 
ATOM      9  C   UNL     1      -5.547   1.754  24.674  0.00  0.00    +0.129 C 
ATOM     10  C   UNL     1      -3.357   4.351  26.214  0.00  0.00    +0.128 C 
ATOM     11  C   UNL     1      -2.147   4.228  25.288  0.00  0.00    +0.127 C 
ATOM     12  C   UNL     1      -5.810   3.893  25.640  0.00  0.00    +0.303 C 
ATOM     13  C   UNL     1      -0.611   2.286  25.202  0.00  0.00    +0.248 C 
ATOM     19  H   UNL     1      -7.470   2.768  24.883  0.00  0.00    +0.150 HD
ENDROOT
BRANCH  13  14
ATOM      6  N   UNL     1       0.563  -0.787  23.399  0.00  0.00    -0.263 NA
ATOM     14  C   UNL     1      -0.385   0.870  24.883  0.00  0.00    +0.055 A 
ATOM     15  C   UNL     1      -0.869  -0.136  25.711  0.00  0.00    +0.016 A 
ATOM     16  C   UNL     1       0.320   0.496  23.750  0.00  0.00    +0.123 A 
ATOM     17  C   UNL     1      -0.639  -1.468  25.384  0.00  0.00    +0.020 A 
ATOM     18  C   UNL     1       0.076  -1.738  24.228  0.00  0.00    +0.111 A 
ENDBRANCH  13  14
TORSDOF 1
ENDMDL
MODEL 3
REMARK VINA RESULT:      -4.7      2.141      2.976
REMARK  Name = 75368414
REMARK  1 active torsions:
REMARK  status: ('A' for Active; 'I' for Inactive)
REMARK    1  A    between atoms: C_13  and  C_14
REMARK                            x       y       z     vdW  Elec       q    Type
REMARK                         _______ _______ _______ _____ _____    ______ ____
ROOT
ATOM      1  O   UNL     1      -1.049   5.828  25.246  0.00  0.00    -0.253 OA
ATOM      2  O   UNL     1       0.158  -1.044  24.777  0.00  0.00    -0.270 OA
ATOM      3  N   UNL     1      -1.459   3.520  25.034  0.00  0.00    -0.278 N 
ATOM      4  N   UNL     1      -1.037   0.891  24.241  0.00  0.00    -0.294 N 
ATOM      5  N   UNL     1      -3.141   4.957  24.640  0.00  0.00    -0.297 N 
ATOM      7  C   UNL     1      -2.620   2.675  24.812  0.00  0.00    +0.112 C 
ATOM      8  C   UNL     1      -2.281   1.565  23.822  0.00  0.00    +0.132 C 
ATOM      9  C   UNL     1      -3.688   3.654  24.336  0.00  0.00    +0.129 C 
ATOM     10  C   UNL     1      -0.175   2.918  25.352  0.00  0.00    +0.128 C 
ATOM     11  C   UNL     1       0.125   1.781  24.377  0.00  0.00    +0.127 C 
ATOM     12  C   UNL     1      -1.784   4.880  25.007  0.00  0.00    +0.303 C 
ATOM     13  C   UNL     1      -0.889  -0.478  24.465  0.00  0.00    +0.248 C 
ATOM     19  H   UNL     1      -3.645   5.830  24.525  0.00  0.00    +0.150 HD
ENDROOT
BRANCH  13  14
ATOM      6  N   UNL     1      -3.031  -3.555  24.328  0.00  0.00    -0.263 NA
ATOM     14  C   UNL     1      -2.076  -1.334  24.334  0.00  0.00    +0.055 A 
ATOM     15  C   UNL     1      -3.332  -0.784  24.103  0.00  0.00    +0.016 A 
ATOM     16  C   UNL     1      -1.979  -2.712  24.438  0.00  0.00    +0.123 A 
ATOM     17  C   UNL     1      -4.438  -1.619  23.984  0.00  0.00    +0.020 A 
ATOM     18  C   UNL     1      -4.236  -2.985  24.103  0.00  0.00    +0.111 A 
ENDBRANCH  13  14
TORSDOF 1
ENDMDL
MODEL 4
REMARK VINA RESULT:      -4.2      2.695      4.376
REMARK  Name = 75368414
REMARK  1 active torsions:
REMARK  status: ('A' for Active; 'I' for Inactive)
REMARK    1  A    between atoms: C_13  and  C_14
REMARK                            x       y       z     vdW  Elec       q    Type
REMARK                         _______ _______ _______ _____ _____    ______ ____
ROOT
ATOM      1  O   UNL     1       2.764   0.977  23.217  0.00  0.00    -0.253 OA
ATOM      2  O   UNL     1      -2.712   4.836  25.223  0.00  0.00    -0.270 OA
ATOM      3  N   UNL     1       0.556   1.551  23.794  0.00  0.00    -0.278 N 
ATOM      4  N   UNL     1      -1.502   2.839  25.146  0.00  0.00    -0.294 N 
ATOM      5  N   UNL     1       1.089  -0.623  23.590  0.00  0.00    -0.297 N 
ATOM      7  C   UNL     1      -0.703   0.845  23.962  0.00  0.00    +0.112 C 
ATOM      8  C   UNL     1      -1.439   1.365  25.193  0.00  0.00    +0.132 C 
ATOM      9  C   UNL     1      -0.285  -0.620  24.036  0.00  0.00    +0.129 C 
ATOM     10  C   UNL     1       0.584   3.002  23.838  0.00  0.00    +0.128 C 
ATOM     11  C   UNL     1      -0.194   3.504  25.054  0.00  0.00    +0.127 C 
ATOM     12  C   UNL     1       1.610   0.682  23.497  0.00  0.00    +0.303 C 
ATOM     13  C   UNL     1      -2.664   3.607  25.223  0.00  0.00    +0.248 C 
ATOM     19  H   UNL     1       1.640  -1.462  23.440  0.00  0.00    +0.150 HD
ENDROOT
BRANCH  13  14
ATOM      6  N   UNL     1      -6.190   2.790  26.209  0.00  0.00    -0.263 NA
ATOM     14  C   UNL     1      -3.953   2.906  25.300  0.00  0.00    +0.055 A 
ATOM     15  C   UNL     1      -4.178   1.741  24.575  0.00  0.00    +0.016 A 
ATOM     16  C   UNL     1      -4.982   3.386  26.095  0.00  0.00    +0.123 A 
ATOM     17  C   UNL     1      -5.409   1.100  24.666  0.00  0.00    +0.020 A 
ATOM     18  C   UNL     1      -6.372   1.660  25.490  0.00  0.00    +0.111 A 
ENDBRANCH  13  14
TORSDOF 1
ENDMDL
MODEL 5
REMARK VINA RESULT:      -4.1      1.936      5.810
REMARK  Name = 75368414
REMARK  1 active torsions:
REMARK  status: ('A' for Active; 'I' for Inactive)
REMARK    1  A    between atoms: C_13  and  C_14
REMARK                            x       y       z     vdW  Elec       q    Type
REMARK                         _______ _______ _______ _____ _____    ______ ____
ROOT
ATOM      1  O   UNL     1      -3.575  -3.556  24.893  0.00  0.00    -0.253 OA
ATOM      2  O   UNL     1      -4.717   3.311  25.553  0.00  0.00    -0.270 OA
ATOM      3  N   UNL     1      -3.153  -1.242  24.976  0.00  0.00    -0.278 N 
ATOM      4  N   UNL     1      -3.614   1.474  24.621  0.00  0.00    -0.294 N 
ATOM      5  N   UNL     1      -1.543  -2.607  24.205  0.00  0.00    -0.297 N 
ATOM      7  C   UNL     1      -2.008  -0.375  24.759  0.00  0.00    +0.112 C 
ATOM      8  C   UNL     1      -2.429   0.868  23.981  0.00  0.00    +0.132 C 
ATOM      9  C   UNL     1      -1.010  -1.275  24.038  0.00  0.00    +0.129 C 
ATOM     10  C   UNL     1      -4.388  -0.693  25.510  0.00  0.00    +0.128 C 
ATOM     11  C   UNL     1      -4.769   0.575  24.746  0.00  0.00    +0.127 C 
ATOM     12  C   UNL     1      -2.854  -2.584  24.719  0.00  0.00    +0.303 C 
ATOM     13  C   UNL     1      -3.717   2.796  25.055  0.00  0.00    +0.248 C 
ATOM     19  H   UNL     1      -1.067  -3.454  23.913  0.00  0.00    +0.150 HD
ENDROOT
BRANCH  13  14
ATOM      6  N   UNL     1      -0.198   3.893  24.355  0.00  0.00    -0.263 NA
ATOM     14  C   UNL     1      -2.536   3.661  24.926  0.00  0.00    +0.055 A 
ATOM     15  C   UNL     1      -2.604   5.016  25.231  0.00  0.00    +0.016 A 
ATOM     16  C   UNL     1      -1.321   3.152  24.495  0.00  0.00    +0.123 A 
ATOM     17  C   UNL     1      -1.471   5.810  25.099  0.00  0.00    +0.020 A 
ATOM     18  C   UNL     1      -0.303   5.206  24.661  0.00  0.00    +0.111 A 
ENDBRANCH  13  14
TORSDOF 1
ENDMDL
MODEL 6
REMARK VINA RESULT:      -4.0      2.398      6.349
REMARK  Name = 75368414
REMARK  1 active torsions:
REMARK  status: ('A' for Active; 'I' for Inactive)
REMARK    1  A    between atoms: C_13  and  C_14
REMARK                            x       y       z     vdW  Elec       q    Type
REMARK                         _______ _______ _______ _____ _____    ______ ____
ROOT
ATOM      1  O   UNL     1      -2.997  -3.618  23.923  0.00  0.00    -0.253 OA
ATOM      2  O   UNL     1       0.760   1.956  25.853  0.00  0.00    -0.270 OA
ATOM      3  N   UNL     1      -2.424  -1.373  24.339  0.00  0.00    -0.278 N 
ATOM      4  N   UNL     1      -1.252   0.789  25.631  0.00  0.00    -0.294 N 
ATOM      5  N   UNL     1      -4.569  -1.877  23.895  0.00  0.00    -0.297 N 
ATOM      7  C   UNL     1      -3.098  -0.088  24.275  0.00  0.00    +0.112 C 
ATOM      8  C   UNL     1      -2.721   0.765  25.481  0.00  0.00    +0.132 C 
ATOM      9  C   UNL     1      -4.575  -0.462  24.191  0.00  0.00    +0.129 C 
ATOM     10  C   UNL     1      -0.993  -1.429  24.584  0.00  0.00    +0.128 C 
ATOM     11  C   UNL     1      -0.630  -0.535  25.768  0.00  0.00    +0.127 C 
ATOM     12  C   UNL     1      -3.284  -2.434  24.037  0.00  0.00    +0.303 C 
ATOM     13  C   UNL     1      -0.459   1.935  25.690  0.00  0.00    +0.248 C 
ATOM     19  H   UNL     1      -5.400  -2.421  23.690  0.00  0.00    +0.150 HD
ENDROOT
BRANCH  13  14
ATOM      6  N   UNL     1      -3.031   4.653  25.961  0.00  0.00    -0.263 NA
ATOM     14  C   UNL     1      -1.116   3.240  25.534  0.00  0.00    +0.055 A 
ATOM     15  C   UNL     1      -0.494   4.277  24.848  0.00  0.00    +0.016 A 
ATOM     16  C   UNL     1      -2.373   3.477  26.068  0.00  0.00    +0.123 A 
ATOM     17  C   UNL     1      -1.139   5.502  24.718  0.00  0.00    +0.020 A 
ATOM     18  C   UNL     1      -2.395   5.637  25.287  0.00  0.00    +0.111 A 
ENDBRANCH  13  14
TORSDOF 1
ENDMDL
MODEL 7
REMARK VINA RESULT:      -3.4      3.004      4.636
REMARK  Name = 75368414
REMARK  1 active torsions:
REMARK  status: ('A' for Active; 'I' for Inactive)
REMARK    1  A    between atoms: C_13  and  C_14
REMARK                            x       y       z     vdW  Elec       q    Type
REMARK                         _______ _______ _______ _____ _____    ______ ____
ROOT
ATOM      1  O   UNL     1       2.511  -0.749  23.332  0.00  0.00    -0.253 OA
ATOM      2  O   UNL     1      -4.239  -0.946  25.149  0.00  0.00    -0.270 OA
ATOM      3  N   UNL     1       0.378  -0.011  24.001  0.00  0.00    -0.278 N 
ATOM      4  N   UNL     1      -2.396   0.068  24.133  0.00  0.00    -0.294 N 
ATOM      5  N   UNL     1       1.896   1.515  23.355  0.00  0.00    -0.297 N 
ATOM      7  C   UNL     1      -0.261   1.270  24.246  0.00  0.00    +0.112 C 
ATOM      8  C   UNL     1      -1.675   1.272  23.673  0.00  0.00    +0.132 C 
ATOM      9  C   UNL     1       0.692   2.274  23.604  0.00  0.00    +0.129 C 
ATOM     10  C   UNL     1      -0.316  -1.242  24.335  0.00  0.00    +0.128 C 
ATOM     11  C   UNL     1      -1.743  -1.203  23.791  0.00  0.00    +0.127 C 
ATOM     12  C   UNL     1       1.691   0.135  23.541  0.00  0.00    +0.303 C 
ATOM     13  C   UNL     1      -3.620   0.059  24.801  0.00  0.00    +0.248 C 
ATOM     19  H   UNL     1       2.762   1.915  23.009  0.00  0.00    +0.150 HD
ENDROOT
BRANCH  13  14
ATOM      6  N   UNL     1      -4.000   3.741  25.411  0.00  0.00    -0.263 NA
ATOM     14  C   UNL     1      -4.235   1.350  25.138  0.00  0.00    +0.055 A 
ATOM     15  C   UNL     1      -5.577   1.434  25.489  0.00  0.00    +0.016 A 
ATOM     16  C   UNL     1      -3.496   2.522  25.113  0.00  0.00    +0.123 A 
ATOM     17  C   UNL     1      -6.132   2.670  25.802  0.00  0.00    +0.020 A 
ATOM     18  C   UNL     1      -5.308   3.783  25.749  0.00  0.00    +0.111 A 
ENDBRANCH  13  14
TORSDOF 1
ENDMDL
MODEL 8
REMARK VINA RESULT:      -3.4     19.426     21.037
REMARK  Name = 75368414
REMARK  1 active torsions:
REMARK  status: ('A' for Active; 'I' for Inactive)
REMARK    1  A    between atoms: C_13  and  C_14
REMARK                            x       y       z     vdW  Elec       q    Type
REMARK                         _______ _______ _______ _____ _____    ______ ____
ROOT
ATOM      1  O   UNL     1      17.405  -7.711  24.267  0.00  0.00    -0.253 OA
ATOM      2  O   UNL     1      15.569  -4.561  30.234  0.00  0.00    -0.270 OA
ATOM      3  N   UNL     1      16.318  -7.320  26.318  0.00  0.00    -0.278 N 
ATOM      4  N   UNL     1      15.997  -6.458  28.939  0.00  0.00    -0.294 N 
ATOM      5  N   UNL     1      16.141  -9.351  25.371  0.00  0.00    -0.297 N 
ATOM      7  C   UNL     1      15.390  -8.043  27.169  0.00  0.00    +0.112 C 
ATOM      8  C   UNL     1      15.787  -7.887  28.634  0.00  0.00    +0.132 C 
ATOM      9  C   UNL     1      15.454  -9.472  26.636  0.00  0.00    +0.129 C 
ATOM     10  C   UNL     1      16.650  -5.938  26.618  0.00  0.00    +0.128 C 
ATOM     11  C   UNL     1      17.003  -5.795  28.098  0.00  0.00    +0.127 C 
ATOM     12  C   UNL     1      16.707  -8.073  25.204  0.00  0.00    +0.303 C 
ATOM     13  C   UNL     1      15.365  -5.742  29.955  0.00  0.00    +0.248 C 
ATOM     19  H   UNL     1      16.272 -10.115  24.717  0.00  0.00    +0.150 HD
ENDROOT
BRANCH  13  14
ATOM      6  N   UNL     1      13.808  -7.670  32.771  0.00  0.00    -0.263 NA
ATOM     14  C   UNL     1      14.355  -6.435  30.766  0.00  0.00    +0.055 A 
ATOM     15  C   UNL     1      13.034  -6.525  30.341  0.00  0.00    +0.016 A 
ATOM     16  C   UNL     1      14.689  -7.018  31.978  0.00  0.00    +0.123 A 
ATOM     17  C   UNL     1      12.100  -7.186  31.130  0.00  0.00    +0.020 A 
ATOM     18  C   UNL     1      12.534  -7.737  32.326  0.00  0.00    +0.111 A 
ENDBRANCH  13  14
TORSDOF 1
ENDMDL
MODEL 9
REMARK VINA RESULT:      -3.1     17.068     19.149
REMARK  Name = 75368414
REMARK  1 active torsions:
REMARK  status: ('A' for Active; 'I' for Inactive)
REMARK    1  A    between atoms: C_13  and  C_14
REMARK                            x       y       z     vdW  Elec       q    Type
REMARK                         _______ _______ _______ _____ _____    ______ ____
ROOT
ATOM      1  O   UNL     1       6.074 -10.565  31.969  0.00  0.00    -0.253 OA
ATOM      2  O   UNL     1      12.981 -10.090  30.983  0.00  0.00    -0.270 OA
ATOM      3  N   UNL     1       8.224  -9.622  31.796  0.00  0.00    -0.278 N 
ATOM      4  N   UNL     1      10.988  -9.452  32.021  0.00  0.00    -0.294 N 
ATOM      5  N   UNL     1       6.566  -8.380  32.667  0.00  0.00    -0.297 N 
ATOM      7  C   UNL     1       8.816  -8.312  32.005  0.00  0.00    +0.112 C 
ATOM      8  C   UNL     1      10.158  -8.448  32.717  0.00  0.00    +0.132 C 
ATOM      9  C   UNL     1       7.748  -7.557  32.790  0.00  0.00    +0.129 C 
ATOM     10  C   UNL     1       9.015 -10.689  31.208  0.00  0.00    +0.128 C 
ATOM     11  C   UNL     1      10.371 -10.781  31.906  0.00  0.00    +0.127 C 
ATOM     12  C   UNL     1       6.863  -9.642  32.119  0.00  0.00    +0.303 C 
ATOM     13  C   UNL     1      12.276  -9.242  31.528  0.00  0.00    +0.248 C 
ATOM     19  H   UNL     1       5.648  -8.115  33.008  0.00  0.00    +0.150 HD
ENDROOT
BRANCH  13  14
ATOM      6  N   UNL     1      14.255  -6.353  32.873  0.00  0.00    -0.263 NA
ATOM     14  C   UNL     1      12.853  -7.897  31.649  0.00  0.00    +0.055 A 
ATOM     15  C   UNL     1      12.577  -6.912  30.708  0.00  0.00    +0.016 A 
ATOM     16  C   UNL     1      13.691  -7.571  32.704  0.00  0.00    +0.123 A 
ATOM     17  C   UNL     1      13.138  -5.647  30.848  0.00  0.00    +0.020 A 
ATOM     18  C   UNL     1      13.963  -5.421  31.939  0.00  0.00    +0.111 A 
ENDBRANCH  13  14
TORSDOF 1
ENDMDL
MODEL 10
REMARK VINA RESULT:      -2.9     18.647     20.816
REMARK  Name = 75368414
REMARK  1 active torsions:
REMARK  status: ('A' for Active; 'I' for Inactive)
REMARK    1  A    between atoms: C_13  and  C_14
REMARK                            x       y       z     vdW  Elec       q    Type
REMARK                         _______ _______ _______ _____ _____    ______ ____
ROOT
ATOM      1  O   UNL     1      10.449  -8.768  32.389  0.00  0.00    -0.253 OA
ATOM      2  O   UNL     1      16.960  -6.508  31.205  0.00  0.00    -0.270 OA
ATOM      3  N   UNL     1      12.255  -7.291  32.076  0.00  0.00    -0.278 N 
ATOM      4  N   UNL     1      14.863  -6.344  32.221  0.00  0.00    -0.294 N 
ATOM      5  N   UNL     1      10.313  -6.473  32.859  0.00  0.00    -0.297 N 
ATOM      7  C   UNL     1      12.460  -5.855  32.142  0.00  0.00    +0.112 C 
ATOM      8  C   UNL     1      13.784  -5.543  32.833  0.00  0.00    +0.132 C 
ATOM      9  C   UNL     1      11.221  -5.349  32.873  0.00  0.00    +0.129 C 
ATOM     10  C   UNL     1      13.313  -8.152  31.577  0.00  0.00    +0.128 C 
ATOM     11  C   UNL     1      14.638  -7.796  32.250  0.00  0.00    +0.127 C 
ATOM     12  C   UNL     1      10.951  -7.653  32.430  0.00  0.00    +0.303 C 
ATOM     13  C   UNL     1      16.045  -5.838  31.680  0.00  0.00    +0.248 C 
ATOM     19  H   UNL     1       9.356  -6.439  33.192  0.00  0.00    +0.150 HD
ENDROOT
BRANCH  13  14
ATOM      6  N   UNL     1      16.622  -2.328  32.871  0.00  0.00    -0.263 NA
ATOM     14  C   UNL     1      16.227  -4.380  31.656  0.00  0.00    +0.055 A 
ATOM     15  C   UNL     1      16.186  -3.673  30.460  0.00  0.00    +0.016 A 
ATOM     16  C   UNL     1      16.446  -3.668  32.825  0.00  0.00    +0.123 A 
ATOM     17  C   UNL     1      16.363  -2.294  30.468  0.00  0.00    +0.020 A 
ATOM     18  C   UNL     1      16.575  -1.674  31.689  0.00  0.00    +0.111 A 
ENDBRANCH  13  14
TORSDOF 1
ENDMDL
