MODEL 1
REMARK VINA RESULT:       5.0      0.000      0.000
REMARK  Name = 45783505
REMARK  6 active torsions:
REMARK  status: ('A' for Active; 'I' for Inactive)
REMARK    1  A    between atoms: O_3  and  C_32
REMARK    2  A    between atoms: N_5  and  C_14
REMARK    3  A    between atoms: C_10  and  C_15
REMARK    4  A    between atoms: C_14  and  C_16
REMARK    5  A    between atoms: C_17  and  C_22
REMARK    6  A    between atoms: C_28  and  C_32
REMARK                            x       y       z     vdW  Elec       q    Type
REMARK                         _______ _______ _______ _____ _____    ______ ____
ROOT
ATOM      1  O   UNL     1      -3.491   2.136  22.188  0.00  0.00    -0.336 OA
ATOM      6  N   UNL     1      -2.226   2.100  24.035  0.00  0.00    -0.190 NA
ATOM      8  N   UNL     1      -2.228   1.686  21.785  0.00  0.00    -0.056 NA
ATOM     15  C   UNL     1      -3.403   2.357  23.526  0.00  0.00    +0.245 A 
ATOM     17  C   UNL     1      -1.538   1.691  22.930  0.00  0.00    +0.204 A 
ENDROOT
BRANCH  17  22
ATOM      2  O   UNL     1       6.582  -0.247  23.454  0.00  0.00    -0.377 OA
ATOM      7  N   UNL     1       3.818   0.232  23.271  0.00  0.00    -0.311 N 
ATOM      9  N   UNL     1       2.047   1.662  23.918  0.00  0.00    -0.240 NA
ATOM     20  C   UNL     1       4.652   0.238  22.064  0.00  0.00    +0.134 C 
ATOM     21  C   UNL     1       4.535   0.488  24.528  0.00  0.00    +0.134 C 
ATOM     22  C   UNL     1      -0.160   1.297  23.002  0.00  0.00    +0.041 A 
ATOM     23  C   UNL     1       5.875  -0.647  22.279  0.00  0.00    +0.178 C 
ATOM     24  C   UNL     1       5.764  -0.411  24.612  0.00  0.00    +0.178 C 
ATOM     25  C   UNL     1       2.473   0.606  23.190  0.00  0.00    +0.121 A 
ATOM     29  C   UNL     1       0.314   0.216  22.269  0.00  0.00    +0.016 A 
ATOM     30  C   UNL     1       1.655  -0.143  22.359  0.00  0.00    +0.044 A 
ATOM     31  C   UNL     1       0.738   1.981  23.804  0.00  0.00    +0.124 A 
ENDBRANCH  17  22
BRANCH  15  10
ATOM      5  N   UNL     1      -4.782   2.360  25.597  0.00  0.00    -0.287 NA
ATOM     10  C   UNL     1      -4.659   2.855  24.212  0.00  0.00    +0.146 C 
ATOM     11  C   UNL     1      -4.697   4.389  24.339  0.00  0.00    +0.030 C 
ATOM     12  C   UNL     1      -4.907   4.660  25.822  0.00  0.00    +0.017 C 
ATOM     13  C   UNL     1      -5.532   3.378  26.334  0.00  0.00    +0.085 C 
BRANCH   5  14
ATOM     14  C   UNL     1      -5.409   1.047  25.685  0.00  0.00    +0.120 C 
BRANCH  14  16
ATOM     16  C   UNL     1      -4.459  -0.054  25.295  0.00  0.00    -0.033 A 
ATOM     18  C   UNL     1      -3.302  -0.272  26.044  0.00  0.00    +0.006 A 
ATOM     19  C   UNL     1      -4.734  -0.854  24.186  0.00  0.00    +0.006 A 
ATOM     26  C   UNL     1      -2.421  -1.292  25.682  0.00  0.00    +0.015 A 
ATOM     27  C   UNL     1      -3.852  -1.873  23.826  0.00  0.00    +0.015 A 
ATOM     28  C   UNL     1      -2.696  -2.092  24.574  0.00  0.00    +0.059 A 
BRANCH  28  32
ATOM      4  O   UNL     1      -1.933  -3.933  23.249  0.00  0.00    -0.245 OA
ATOM     32  C   UNL     1      -1.778  -3.155  24.198  0.00  0.00    +0.337 C 
BRANCH  32   3
ATOM      3  O   UNL     1      -0.692  -3.219  25.015  0.00  0.00    -0.477 OA
ATOM     33  H   UNL     1      -0.609  -2.418  25.575  0.00  0.00    +0.295 HD
ENDBRANCH  32   3
ENDBRANCH  28  32
ENDBRANCH  14  16
ENDBRANCH   5  14
ENDBRANCH  15  10
TORSDOF 6
ENDMDL
MODEL 2
REMARK VINA RESULT:       6.7      1.176      1.644
REMARK  Name = 45783505
REMARK  6 active torsions:
REMARK  status: ('A' for Active; 'I' for Inactive)
REMARK    1  A    between atoms: O_3  and  C_32
REMARK    2  A    between atoms: N_5  and  C_14
REMARK    3  A    between atoms: C_10  and  C_15
REMARK    4  A    between atoms: C_14  and  C_16
REMARK    5  A    between atoms: C_17  and  C_22
REMARK    6  A    between atoms: C_28  and  C_32
REMARK                            x       y       z     vdW  Elec       q    Type
REMARK                         _______ _______ _______ _____ _____    ______ ____
ROOT
ATOM      1  O   UNL     1      -3.166   3.830  24.335  0.00  0.00    -0.336 OA
ATOM      6  N   UNL     1      -2.642   1.662  24.133  0.00  0.00    -0.190 NA
ATOM      8  N   UNL     1      -1.783   3.782  24.122  0.00  0.00    -0.056 NA
ATOM     15  C   UNL     1      -3.593   2.539  24.328  0.00  0.00    +0.245 A 
ATOM     17  C   UNL     1      -1.549   2.470  24.012  0.00  0.00    +0.204 A 
ENDROOT
BRANCH  17  22
ATOM      2  O   UNL     1       6.240  -0.286  22.716  0.00  0.00    -0.377 OA
ATOM      7  N   UNL     1       3.573   0.473  23.175  0.00  0.00    -0.311 N 
ATOM      9  N   UNL     1       2.154   2.143  24.068  0.00  0.00    -0.240 NA
ATOM     20  C   UNL     1       4.061   0.273  21.805  0.00  0.00    +0.134 C 
ATOM     21  C   UNL     1       4.611   0.766  24.172  0.00  0.00    +0.134 C 
ATOM     22  C   UNL     1      -0.238   1.936  23.784  0.00  0.00    +0.041 A 
ATOM     23  C   UNL     1       5.222  -0.716  21.812  0.00  0.00    +0.178 C 
ATOM     24  C   UNL     1       5.742  -0.249  24.053  0.00  0.00    +0.178 C 
ATOM     25  C   UNL     1       2.288   0.982  23.388  0.00  0.00    +0.121 A 
ATOM     29  C   UNL     1      -0.060   0.745  23.090  0.00  0.00    +0.016 A 
ATOM     30  C   UNL     1       1.224   0.252  22.884  0.00  0.00    +0.044 A 
ATOM     31  C   UNL     1       0.892   2.591  24.248  0.00  0.00    +0.124 A 
ENDBRANCH  17  22
BRANCH  15  10
ATOM      5  N   UNL     1      -5.355   1.234  25.502  0.00  0.00    -0.287 NA
ATOM     10  C   UNL     1      -5.076   2.319  24.540  0.00  0.00    +0.146 C 
ATOM     11  C   UNL     1      -5.783   3.554  25.128  0.00  0.00    +0.030 C 
ATOM     12  C   UNL     1      -6.482   3.054  26.383  0.00  0.00    +0.017 C 
ATOM     13  C   UNL     1      -6.630   1.566  26.139  0.00  0.00    +0.085 C 
BRANCH   5  14
ATOM     14  C   UNL     1      -5.377  -0.087  24.888  0.00  0.00    +0.120 C 
BRANCH  14  16
ATOM     16  C   UNL     1      -4.044  -0.780  25.002  0.00  0.00    -0.033 A 
ATOM     18  C   UNL     1      -3.693  -1.770  24.083  0.00  0.00    +0.006 A 
ATOM     19  C   UNL     1      -3.162  -0.433  26.025  0.00  0.00    +0.006 A 
ATOM     26  C   UNL     1      -2.459  -2.412  24.189  0.00  0.00    +0.015 A 
ATOM     27  C   UNL     1      -1.929  -1.075  26.130  0.00  0.00    +0.015 A 
ATOM     28  C   UNL     1      -1.577  -2.064  25.212  0.00  0.00    +0.059 A 
BRANCH  28  32
ATOM      4  O   UNL     1      -0.119  -3.956  25.340  0.00  0.00    -0.245 OA
ATOM     32  C   UNL     1      -0.290  -2.733  25.322  0.00  0.00    +0.337 C 
BRANCH  32   3
ATOM      3  O   UNL     1       0.747  -1.856  25.406  0.00  0.00    -0.477 OA
ATOM     33  H   UNL     1       0.640  -1.103  24.785  0.00  0.00    +0.295 HD
ENDBRANCH  32   3
ENDBRANCH  28  32
ENDBRANCH  14  16
ENDBRANCH   5  14
ENDBRANCH  15  10
TORSDOF 6
ENDMDL
