MODEL 1
REMARK VINA RESULT:      -3.6      0.000      0.000
REMARK  Name = 26744288
REMARK  7 active torsions:
REMARK  status: ('A' for Active; 'I' for Inactive)
REMARK    1  A    between atoms: S_1  and  C_24
REMARK    2  A    between atoms: S_1  and  C_25
REMARK    3  A    between atoms: O_3  and  C_14
REMARK    4  A    between atoms: N_6  and  C_18
REMARK    5  A    between atoms: C_9  and  C_16
REMARK    6  A    between atoms: C_10  and  C_17
REMARK    7  A    between atoms: C_18  and  C_19
REMARK                            x       y       z     vdW  Elec       q    Type
REMARK                         _______ _______ _______ _____ _____    ______ ____
ROOT
ATOM      6  N   UNL     1      -3.402   3.319  25.425  0.00  0.00    -0.285 NA
ATOM     10  C   UNL     1      -4.298   2.209  25.806  0.00  0.00    +0.149 C 
ATOM     13  C   UNL     1      -5.720   2.785  25.668  0.00  0.00    +0.061 C 
ATOM     14  C   UNL     1      -5.518   4.236  25.248  0.00  0.00    +0.130 C 
ATOM     15  C   UNL     1      -4.118   4.556  25.736  0.00  0.00    +0.116 C 
ENDROOT
BRANCH  10  17
ATOM      2  O   UNL     1      -3.845   1.172  23.640  0.00  0.00    -0.336 OA
ATOM      7  N   UNL     1      -4.091  -0.288  25.321  0.00  0.00    -0.194 NA
ATOM      8  N   UNL     1      -3.680  -0.100  23.078  0.00  0.00    -0.061 NA
ATOM     16  C   UNL     1      -3.839  -0.907  24.130  0.00  0.00    +0.175 A 
ATOM     17  C   UNL     1      -4.084   0.970  24.963  0.00  0.00    +0.245 A 
BRANCH  16   9
ATOM      9  C   UNL     1      -3.743  -2.431  24.007  0.00  0.00    +0.060 C 
ATOM     11  C   UNL     1      -3.385  -3.231  25.225  0.00  0.00    +0.012 C 
ATOM     12  C   UNL     1      -2.392  -3.078  24.110  0.00  0.00    +0.012 C 
ENDBRANCH  16   9
ENDBRANCH  10  17
BRANCH  14   3
ATOM      3  O   UNL     1      -6.487   5.072  25.850  0.00  0.00    -0.390 OA
ATOM     26  H   UNL     1      -7.362   4.758  25.564  0.00  0.00    +0.210 HD
ENDBRANCH  14   3
BRANCH   6  18
ATOM     18  C   UNL     1      -2.102   3.259  26.079  0.00  0.00    +0.120 C 
BRANCH  18  19
ATOM     19  C   UNL     1      -1.113   2.446  25.287  0.00  0.00    -0.033 A 
ATOM     20  C   UNL     1      -0.294   3.069  24.344  0.00  0.00    +0.007 A 
ATOM     21  C   UNL     1      -1.016   1.070  25.493  0.00  0.00    +0.007 A 
ATOM     22  C   UNL     1       0.621   2.316  23.610  0.00  0.00    +0.027 A 
ATOM     23  C   UNL     1      -0.101   0.316  24.758  0.00  0.00    +0.027 A 
ATOM     24  C   UNL     1       0.718   0.940  23.816  0.00  0.00    +0.088 A 
BRANCH  24   1
ATOM      1  S   UNL     1       1.867  -0.003  22.899  0.00  0.00    -0.006 S 
ATOM      4  O   UNL     1       2.275  -1.152  23.694  0.00  0.00    -0.170 OA
ATOM      5  O   UNL     1       1.318  -0.203  21.565  0.00  0.00    -0.170 OA
ATOM     25  C   UNL     1       3.289   1.056  22.752  0.00  0.00    +0.200 C 
ENDBRANCH  24   1
ENDBRANCH  18  19
ENDBRANCH   6  18
TORSDOF 6
ENDMDL
MODEL 2
REMARK VINA RESULT:      -3.3     16.044     18.739
REMARK  Name = 26744288
REMARK  7 active torsions:
REMARK  status: ('A' for Active; 'I' for Inactive)
REMARK    1  A    between atoms: S_1  and  C_24
REMARK    2  A    between atoms: S_1  and  C_25
REMARK    3  A    between atoms: O_3  and  C_14
REMARK    4  A    between atoms: N_6  and  C_18
REMARK    5  A    between atoms: C_9  and  C_16
REMARK    6  A    between atoms: C_10  and  C_17
REMARK    7  A    between atoms: C_18  and  C_19
REMARK                            x       y       z     vdW  Elec       q    Type
REMARK                         _______ _______ _______ _____ _____    ______ ____
ROOT
ATOM      6  N   UNL     1      12.719  -7.523  31.566  0.00  0.00    -0.285 NA
ATOM     10  C   UNL     1      11.733  -7.591  32.663  0.00  0.00    +0.149 C 
ATOM     13  C   UNL     1      11.244  -6.142  32.844  0.00  0.00    +0.061 C 
ATOM     14  C   UNL     1      12.045  -5.327  31.837  0.00  0.00    +0.130 C 
ATOM     15  C   UNL     1      13.281  -6.173  31.597  0.00  0.00    +0.116 C 
ENDROOT
BRANCH  10  17
ATOM      2  O   UNL     1      10.915  -9.881  32.414  0.00  0.00    -0.336 OA
ATOM      7  N   UNL     1       9.352  -8.309  32.086  0.00  0.00    -0.194 NA
ATOM      8  N   UNL     1       9.729 -10.565  32.118  0.00  0.00    -0.061 NA
ATOM     16  C   UNL     1       8.855  -9.571  31.937  0.00  0.00    +0.175 A 
ATOM     17  C   UNL     1      10.605  -8.558  32.373  0.00  0.00    +0.245 A 
BRANCH  16   9
ATOM      9  C   UNL     1       7.387  -9.835  31.588  0.00  0.00    +0.060 C 
ATOM     11  C   UNL     1       7.065 -10.480  30.272  0.00  0.00    +0.012 C 
ATOM     12  C   UNL     1       6.752  -9.029  30.492  0.00  0.00    +0.012 C 
ENDBRANCH  16   9
ENDBRANCH  10  17
BRANCH  14   3
ATOM      3  O   UNL     1      12.374  -4.057  32.366  0.00  0.00    -0.390 OA
ATOM     26  H   UNL     1      12.406  -3.431  31.622  0.00  0.00    +0.210 HD
ENDBRANCH  14   3
BRANCH   6  18
ATOM     18  C   UNL     1      13.751  -8.548  31.655  0.00  0.00    +0.120 C 
BRANCH  18  19
ATOM     19  C   UNL     1      14.315  -8.893  30.303  0.00  0.00    -0.033 A 
ATOM     20  C   UNL     1      14.140 -10.176  29.782  0.00  0.00    +0.007 A 
ATOM     21  C   UNL     1      15.012  -7.933  29.571  0.00  0.00    +0.007 A 
ATOM     22  C   UNL     1      14.663 -10.497  28.530  0.00  0.00    +0.027 A 
ATOM     23  C   UNL     1      15.535  -8.253  28.318  0.00  0.00    +0.027 A 
ATOM     24  C   UNL     1      15.361  -9.536  27.797  0.00  0.00    +0.088 A 
BRANCH  24   1
ATOM      1  S   UNL     1      16.012  -9.937  26.227  0.00  0.00    -0.006 S 
ATOM      4  O   UNL     1      17.189 -10.775  26.406  0.00  0.00    -0.170 OA
ATOM      5  O   UNL     1      14.913 -10.401  25.392  0.00  0.00    -0.170 OA
ATOM     25  C   UNL     1      16.577  -8.382  25.574  0.00  0.00    +0.200 C 
ENDBRANCH  24   1
ENDBRANCH  18  19
ENDBRANCH   6  18
TORSDOF 6
ENDMDL
MODEL 3
REMARK VINA RESULT:      -3.0      2.544      5.919
REMARK  Name = 26744288
REMARK  7 active torsions:
REMARK  status: ('A' for Active; 'I' for Inactive)
REMARK    1  A    between atoms: S_1  and  C_24
REMARK    2  A    between atoms: S_1  and  C_25
REMARK    3  A    between atoms: O_3  and  C_14
REMARK    4  A    between atoms: N_6  and  C_18
REMARK    5  A    between atoms: C_9  and  C_16
REMARK    6  A    between atoms: C_10  and  C_17
REMARK    7  A    between atoms: C_18  and  C_19
REMARK                            x       y       z     vdW  Elec       q    Type
REMARK                         _______ _______ _______ _____ _____    ______ ____
ROOT
ATOM      6  N   UNL     1       0.920   1.936  23.938  0.00  0.00    -0.285 NA
ATOM     10  C   UNL     1       0.218   0.825  23.263  0.00  0.00    +0.149 C 
ATOM     13  C   UNL     1       1.331  -0.165  22.874  0.00  0.00    +0.061 C 
ATOM     14  C   UNL     1       2.625   0.496  23.331  0.00  0.00    +0.130 C 
ATOM     15  C   UNL     1       2.272   1.970  23.381  0.00  0.00    +0.116 C 
ENDROOT
BRANCH  10  17
ATOM      2  O   UNL     1      -0.719   0.374  25.475  0.00  0.00    -0.336 OA
ATOM      7  N   UNL     1      -1.897  -0.505  23.784  0.00  0.00    -0.194 NA
ATOM      8  N   UNL     1      -1.806  -0.288  26.060  0.00  0.00    -0.061 NA
ATOM     16  C   UNL     1      -2.454  -0.780  25.000  0.00  0.00    +0.175 A 
ATOM     17  C   UNL     1      -0.848   0.196  24.134  0.00  0.00    +0.245 A 
BRANCH  16   9
ATOM      9  C   UNL     1      -3.740  -1.599  25.143  0.00  0.00    +0.060 C 
ATOM     11  C   UNL     1      -3.783  -2.979  24.557  0.00  0.00    +0.012 C 
ATOM     12  C   UNL     1      -4.562  -1.868  23.916  0.00  0.00    +0.012 C 
ENDBRANCH  16   9
ENDBRANCH  10  17
BRANCH  14   3
ATOM      3  O   UNL     1       3.671   0.239  22.413  0.00  0.00    -0.390 OA
ATOM     26  H   UNL     1       4.347  -0.282  22.880  0.00  0.00    +0.210 HD
ENDBRANCH  14   3
BRANCH   6  18
ATOM     18  C   UNL     1       0.238   3.216  23.800  0.00  0.00    +0.120 C 
BRANCH  18  19
ATOM     19  C   UNL     1      -1.183   3.149  24.294  0.00  0.00    -0.033 A 
ATOM     20  C   UNL     1      -2.210   2.798  23.418  0.00  0.00    +0.007 A 
ATOM     21  C   UNL     1      -1.472   3.440  25.627  0.00  0.00    +0.007 A 
ATOM     22  C   UNL     1      -3.526   2.737  23.875  0.00  0.00    +0.027 A 
ATOM     23  C   UNL     1      -2.788   3.379  26.085  0.00  0.00    +0.027 A 
ATOM     24  C   UNL     1      -3.816   3.028  25.209  0.00  0.00    +0.088 A 
BRANCH  24   1
ATOM      1  S   UNL     1      -5.463   2.948  25.783  0.00  0.00    -0.006 S 
ATOM      4  O   UNL     1      -5.472   2.338  27.105  0.00  0.00    -0.170 OA
ATOM      5  O   UNL     1      -6.070   4.256  25.585  0.00  0.00    -0.170 OA
ATOM     25  C   UNL     1      -6.260   1.803  24.679  0.00  0.00    +0.200 C 
ENDBRANCH  24   1
ENDBRANCH  18  19
ENDBRANCH   6  18
TORSDOF 6
ENDMDL
MODEL 4
REMARK VINA RESULT:      -2.5      2.822      7.056
REMARK  Name = 26744288
REMARK  7 active torsions:
REMARK  status: ('A' for Active; 'I' for Inactive)
REMARK    1  A    between atoms: S_1  and  C_24
REMARK    2  A    between atoms: S_1  and  C_25
REMARK    3  A    between atoms: O_3  and  C_14
REMARK    4  A    between atoms: N_6  and  C_18
REMARK    5  A    between atoms: C_9  and  C_16
REMARK    6  A    between atoms: C_10  and  C_17
REMARK    7  A    between atoms: C_18  and  C_19
REMARK                            x       y       z     vdW  Elec       q    Type
REMARK                         _______ _______ _______ _____ _____    ______ ____
ROOT
ATOM      6  N   UNL     1       0.073  -0.032  23.224  0.00  0.00    -0.285 NA
ATOM     10  C   UNL     1       0.862   0.637  24.278  0.00  0.00    +0.149 C 
ATOM     13  C   UNL     1       2.218   0.948  23.618  0.00  0.00    +0.061 C 
ATOM     14  C   UNL     1       2.111   0.377  22.209  0.00  0.00    +0.130 C 
ATOM     15  C   UNL     1       1.036  -0.685  22.337  0.00  0.00    +0.116 C 
ENDROOT
BRANCH  10  17
ATOM      2  O   UNL     1      -0.190   1.836  26.130  0.00  0.00    -0.336 OA
ATOM      7  N   UNL     1      -0.117   2.993  24.214  0.00  0.00    -0.194 NA
ATOM      8  N   UNL     1      -0.791   3.072  26.398  0.00  0.00    -0.061 NA
ATOM     16  C   UNL     1      -0.711   3.698  25.221  0.00  0.00    +0.175 A 
ATOM     17  C   UNL     1       0.178   1.873  24.822  0.00  0.00    +0.245 A 
BRANCH  16   9
ATOM      9  C   UNL     1      -1.250   5.117  25.017  0.00  0.00    +0.060 C 
ATOM     11  C   UNL     1      -2.539   5.499  25.680  0.00  0.00    +0.012 C 
ATOM     12  C   UNL     1      -2.490   5.305  24.193  0.00  0.00    +0.012 C 
ENDBRANCH  16   9
ENDBRANCH  10  17
BRANCH  14   3
ATOM      3  O   UNL     1       3.346  -0.175  21.797  0.00  0.00    -0.390 OA
ATOM     26  H   UNL     1       4.017   0.526  21.866  0.00  0.00    +0.210 HD
ENDBRANCH  14   3
BRANCH   6  18
ATOM     18  C   UNL     1      -0.911  -0.969  23.749  0.00  0.00    +0.120 C 
BRANCH  18  19
ATOM     19  C   UNL     1      -2.173  -0.271  24.182  0.00  0.00    -0.033 A 
ATOM     20  C   UNL     1      -2.921  -0.778  25.245  0.00  0.00    +0.007 A 
ATOM     21  C   UNL     1      -2.596   0.882  23.520  0.00  0.00    +0.007 A 
ATOM     22  C   UNL     1      -4.090  -0.133  25.646  0.00  0.00    +0.027 A 
ATOM     23  C   UNL     1      -3.765   1.528  23.920  0.00  0.00    +0.027 A 
ATOM     24  C   UNL     1      -4.513   1.020  24.983  0.00  0.00    +0.088 A 
BRANCH  24   1
ATOM      1  S   UNL     1      -5.975   1.831  25.487  0.00  0.00    -0.006 S 
ATOM      4  O   UNL     1      -6.964   1.723  24.424  0.00  0.00    -0.170 OA
ATOM      5  O   UNL     1      -6.302   1.371  26.829  0.00  0.00    -0.170 OA
ATOM     25  C   UNL     1      -5.515   3.546  25.594  0.00  0.00    +0.200 C 
ENDBRANCH  24   1
ENDBRANCH  18  19
ENDBRANCH   6  18
TORSDOF 6
ENDMDL
MODEL 5
REMARK VINA RESULT:      -1.9     15.906     18.078
REMARK  Name = 26744288
REMARK  7 active torsions:
REMARK  status: ('A' for Active; 'I' for Inactive)
REMARK    1  A    between atoms: S_1  and  C_24
REMARK    2  A    between atoms: S_1  and  C_25
REMARK    3  A    between atoms: O_3  and  C_14
REMARK    4  A    between atoms: N_6  and  C_18
REMARK    5  A    between atoms: C_9  and  C_16
REMARK    6  A    between atoms: C_10  and  C_17
REMARK    7  A    between atoms: C_18  and  C_19
REMARK                            x       y       z     vdW  Elec       q    Type
REMARK                         _______ _______ _______ _____ _____    ______ ____
ROOT
ATOM      6  N   UNL     1      12.011  -5.878  31.968  0.00  0.00    -0.285 NA
ATOM     10  C   UNL     1      10.985  -6.433  32.873  0.00  0.00    +0.149 C 
ATOM     13  C   UNL     1       9.849  -5.393  32.867  0.00  0.00    +0.061 C 
ATOM     14  C   UNL     1      10.348  -4.270  31.967  0.00  0.00    +0.130 C 
ATOM     15  C   UNL     1      11.856  -4.424  32.010  0.00  0.00    +0.116 C 
ENDROOT
BRANCH  10  17
ATOM      2  O   UNL     1      11.454  -8.798  32.469  0.00  0.00    -0.336 OA
ATOM      7  N   UNL     1       9.332  -8.204  32.066  0.00  0.00    -0.194 NA
ATOM      8  N   UNL     1      10.797  -9.961  32.047  0.00  0.00    -0.061 NA
ATOM     16  C   UNL     1       9.552  -9.530  31.828  0.00  0.00    +0.175 A 
ATOM     17  C   UNL     1      10.520  -7.811  32.451  0.00  0.00    +0.245 A 
BRANCH  16   9
ATOM      9  C   UNL     1       8.442 -10.467  31.343  0.00  0.00    +0.060 C 
ATOM     11  C   UNL     1       7.185  -9.866  30.786  0.00  0.00    +0.012 C 
ATOM     12  C   UNL     1       7.165 -10.538  32.128  0.00  0.00    +0.012 C 
ENDBRANCH  16   9
ENDBRANCH  10  17
BRANCH  14   3
ATOM      3  O   UNL     1       9.936  -3.010  32.461  0.00  0.00    -0.390 OA
ATOM     26  H   UNL     1       9.145  -3.157  33.010  0.00  0.00    +0.210 HD
ENDBRANCH  14   3
BRANCH   6  18
ATOM     18  C   UNL     1      13.365  -6.294  32.309  0.00  0.00    +0.120 C 
BRANCH  18  19
ATOM     19  C   UNL     1      14.177  -6.615  31.082  0.00  0.00    -0.033 A 
ATOM     20  C   UNL     1      14.097  -7.882  30.504  0.00  0.00    +0.007 A 
ATOM     21  C   UNL     1      15.010  -5.646  30.523  0.00  0.00    +0.007 A 
ATOM     22  C   UNL     1      14.849  -8.180  29.369  0.00  0.00    +0.027 A 
ATOM     23  C   UNL     1      15.763  -5.943  29.387  0.00  0.00    +0.027 A 
ATOM     24  C   UNL     1      15.682  -7.210  28.810  0.00  0.00    +0.088 A 
BRANCH  24   1
ATOM      1  S   UNL     1      16.622  -7.581  27.385  0.00  0.00    -0.006 S 
ATOM      4  O   UNL     1      17.336  -6.383  26.966  0.00  0.00    -0.170 OA
ATOM      5  O   UNL     1      17.359  -8.810  27.643  0.00  0.00    -0.170 OA
ATOM     25  C   UNL     1      15.407  -7.925  26.133  0.00  0.00    +0.200 C 
ENDBRANCH  24   1
ENDBRANCH  18  19
ENDBRANCH   6  18
TORSDOF 6
ENDMDL
MODEL 6
REMARK VINA RESULT:      -0.5      2.238      4.998
REMARK  Name = 26744288
REMARK  7 active torsions:
REMARK  status: ('A' for Active; 'I' for Inactive)
REMARK    1  A    between atoms: S_1  and  C_24
REMARK    2  A    between atoms: S_1  and  C_25
REMARK    3  A    between atoms: O_3  and  C_14
REMARK    4  A    between atoms: N_6  and  C_18
REMARK    5  A    between atoms: C_9  and  C_16
REMARK    6  A    between atoms: C_10  and  C_17
REMARK    7  A    between atoms: C_18  and  C_19
REMARK                            x       y       z     vdW  Elec       q    Type
REMARK                         _______ _______ _______ _____ _____    ______ ____
ROOT
ATOM      6  N   UNL     1      -1.937  -0.127  24.030  0.00  0.00    -0.285 NA
ATOM     10  C   UNL     1      -3.299   0.420  24.187  0.00  0.00    +0.149 C 
ATOM     13  C   UNL     1      -4.027  -0.589  25.094  0.00  0.00    +0.061 C 
ATOM     14  C   UNL     1      -3.007  -1.690  25.357  0.00  0.00    +0.130 C 
ATOM     15  C   UNL     1      -2.052  -1.577  24.184  0.00  0.00    +0.116 C 
ENDROOT
BRANCH  10  17
ATOM      2  O   UNL     1      -4.478   2.268  25.269  0.00  0.00    -0.336 OA
ATOM      7  N   UNL     1      -2.324   2.691  24.825  0.00  0.00    -0.194 NA
ATOM      8  N   UNL     1      -4.235   3.569  25.726  0.00  0.00    -0.061 NA
ATOM     16  C   UNL     1      -2.945   3.747  25.429  0.00  0.00    +0.175 A 
ATOM     17  C   UNL     1      -3.302   1.824  24.753  0.00  0.00    +0.245 A 
BRANCH  16   9
ATOM      9  C   UNL     1      -2.210   5.052  25.748  0.00  0.00    +0.060 C 
ATOM     11  C   UNL     1      -2.091   6.092  24.674  0.00  0.00    +0.012 C 
ATOM     12  C   UNL     1      -0.883   5.309  25.097  0.00  0.00    +0.012 C 
ENDBRANCH  16   9
ENDBRANCH  10  17
BRANCH  14   3
ATOM      3  O   UNL     1      -3.635  -2.957  25.400  0.00  0.00    -0.390 OA
ATOM     26  H   UNL     1      -2.937  -3.625  25.513  0.00  0.00    +0.210 HD
ENDBRANCH  14   3
BRANCH   6  18
ATOM     18  C   UNL     1      -1.311   0.242  22.767  0.00  0.00    +0.120 C 
BRANCH  18  19
ATOM     19  C   UNL     1       0.192   0.248  22.868  0.00  0.00    -0.033 A 
ATOM     20  C   UNL     1       0.947  -0.611  22.069  0.00  0.00    +0.007 A 
ATOM     21  C   UNL     1       0.828   1.111  23.759  0.00  0.00    +0.007 A 
ATOM     22  C   UNL     1       2.338  -0.606  22.162  0.00  0.00    +0.027 A 
ATOM     23  C   UNL     1       2.220   1.116  23.853  0.00  0.00    +0.027 A 
ATOM     24  C   UNL     1       2.975   0.257  23.054  0.00  0.00    +0.088 A 
BRANCH  24   1
ATOM      1  S   UNL     1       4.718   0.265  23.168  0.00  0.00    -0.006 S 
ATOM      4  O   UNL     1       5.278   0.135  21.831  0.00  0.00    -0.170 OA
ATOM      5  O   UNL     1       5.106   1.389  24.009  0.00  0.00    -0.170 OA
ATOM     25  C   UNL     1       5.111  -1.233  24.042  0.00  0.00    +0.200 C 
ENDBRANCH  24   1
ENDBRANCH  18  19
ENDBRANCH   6  18
TORSDOF 6
ENDMDL
MODEL 7
REMARK VINA RESULT:      -0.4      1.950      4.545
REMARK  Name = 26744288
REMARK  7 active torsions:
REMARK  status: ('A' for Active; 'I' for Inactive)
REMARK    1  A    between atoms: S_1  and  C_24
REMARK    2  A    between atoms: S_1  and  C_25
REMARK    3  A    between atoms: O_3  and  C_14
REMARK    4  A    between atoms: N_6  and  C_18
REMARK    5  A    between atoms: C_9  and  C_16
REMARK    6  A    between atoms: C_10  and  C_17
REMARK    7  A    between atoms: C_18  and  C_19
REMARK                            x       y       z     vdW  Elec       q    Type
REMARK                         _______ _______ _______ _____ _____    ______ ____
ROOT
ATOM      6  N   UNL     1      -3.051  -0.803  25.366  0.00  0.00    -0.285 NA
ATOM     10  C   UNL     1      -2.932  -0.252  24.001  0.00  0.00    +0.149 C 
ATOM     13  C   UNL     1      -3.957  -1.042  23.167  0.00  0.00    +0.061 C 
ATOM     14  C   UNL     1      -4.569  -2.043  24.138  0.00  0.00    +0.130 C 
ATOM     15  C   UNL     1      -3.512  -2.183  25.217  0.00  0.00    +0.116 C 
ENDROOT
BRANCH  10  17
ATOM      2  O   UNL     1      -3.546   1.760  22.756  0.00  0.00    -0.336 OA
ATOM      7  N   UNL     1      -3.057   2.130  24.911  0.00  0.00    -0.194 NA
ATOM      8  N   UNL     1      -3.701   3.137  22.960  0.00  0.00    -0.061 NA
ATOM     16  C   UNL     1      -3.395   3.277  24.252  0.00  0.00    +0.175 A 
ATOM     17  C   UNL     1      -3.166   1.243  23.954  0.00  0.00    +0.245 A 
BRANCH  16   9
ATOM      9  C   UNL     1      -3.424   4.641  24.950  0.00  0.00    +0.060 C 
ATOM     11  C   UNL     1      -2.122   5.295  25.305  0.00  0.00    +0.012 C 
ATOM     12  C   UNL     1      -2.993   4.724  26.385  0.00  0.00    +0.012 C 
ENDBRANCH  16   9
ENDBRANCH  10  17
BRANCH  14   3
ATOM      3  O   UNL     1      -4.826  -3.275  23.494  0.00  0.00    -0.390 OA
ATOM     26  H   UNL     1      -5.654  -3.631  23.863  0.00  0.00    +0.210 HD
ENDBRANCH  14   3
BRANCH   6  18
ATOM     18  C   UNL     1      -1.814  -0.718  26.131  0.00  0.00    +0.120 C 
BRANCH  18  19
ATOM     19  C   UNL     1      -0.630  -0.421  25.249  0.00  0.00    -0.033 A 
ATOM     20  C   UNL     1      -0.176   0.891  25.110  0.00  0.00    +0.007 A 
ATOM     21  C   UNL     1       0.013  -1.457  24.571  0.00  0.00    +0.007 A 
ATOM     22  C   UNL     1       0.920   1.166  24.292  0.00  0.00    +0.027 A 
ATOM     23  C   UNL     1       1.109  -1.182  23.754  0.00  0.00    +0.027 A 
ATOM     24  C   UNL     1       1.563   0.130  23.614  0.00  0.00    +0.088 A 
BRANCH  24   1
ATOM      1  S   UNL     1       2.937   0.475  22.594  0.00  0.00    -0.006 S 
ATOM      4  O   UNL     1       2.662  -0.016  21.251  0.00  0.00    -0.170 OA
ATOM      5  O   UNL     1       3.305   1.869  22.794  0.00  0.00    -0.170 OA
ATOM     25  C   UNL     1       4.243  -0.535  23.257  0.00  0.00    +0.200 C 
ENDBRANCH  24   1
ENDBRANCH  18  19
ENDBRANCH   6  18
TORSDOF 6
ENDMDL
MODEL 8
REMARK VINA RESULT:       0.4      3.045      5.654
REMARK  Name = 26744288
REMARK  7 active torsions:
REMARK  status: ('A' for Active; 'I' for Inactive)
REMARK    1  A    between atoms: S_1  and  C_24
REMARK    2  A    between atoms: S_1  and  C_25
REMARK    3  A    between atoms: O_3  and  C_14
REMARK    4  A    between atoms: N_6  and  C_18
REMARK    5  A    between atoms: C_9  and  C_16
REMARK    6  A    between atoms: C_10  and  C_17
REMARK    7  A    between atoms: C_18  and  C_19
REMARK                            x       y       z     vdW  Elec       q    Type
REMARK                         _______ _______ _______ _____ _____    ______ ____
ROOT
ATOM      6  N   UNL     1       0.049   2.509  25.642  0.00  0.00    -0.285 NA
ATOM     10  C   UNL     1      -0.219   2.113  24.245  0.00  0.00    +0.149 C 
ATOM     13  C   UNL     1      -0.530   3.432  23.514  0.00  0.00    +0.061 C 
ATOM     14  C   UNL     1      -0.457   4.507  24.592  0.00  0.00    +0.130 C 
ATOM     15  C   UNL     1      -0.706   3.739  25.876  0.00  0.00    +0.116 C 
ENDROOT
BRANCH  10  17
ATOM      2  O   UNL     1       0.613   0.283  22.854  0.00  0.00    -0.336 OA
ATOM      7  N   UNL     1       2.221   1.585  23.711  0.00  0.00    -0.194 NA
ATOM      8  N   UNL     1       1.827  -0.244  22.394  0.00  0.00    -0.061 NA
ATOM     16  C   UNL     1       2.727   0.577  22.942  0.00  0.00    +0.175 A 
ATOM     17  C   UNL     1       0.936   1.356  23.622  0.00  0.00    +0.245 A 
BRANCH  16   9
ATOM      9  C   UNL     1       4.232   0.398  22.717  0.00  0.00    +0.060 C 
ATOM     11  C   UNL     1       4.948  -0.683  23.471  0.00  0.00    +0.012 C 
ATOM     12  C   UNL     1       5.173   0.757  23.829  0.00  0.00    +0.012 C 
ENDBRANCH  16   9
ENDBRANCH  10  17
BRANCH  14   3
ATOM      3  O   UNL     1      -1.439   5.501  24.377  0.00  0.00    -0.390 OA
ATOM     26  H   UNL     1      -1.677   5.869  25.246  0.00  0.00    +0.210 HD
ENDBRANCH  14   3
BRANCH   6  18
ATOM     18  C   UNL     1      -0.283   1.470  26.608  0.00  0.00    +0.120 C 
BRANCH  18  19
ATOM     19  C   UNL     1      -1.107   0.373  25.989  0.00  0.00    -0.033 A 
ATOM     20  C   UNL     1      -0.554  -0.895  25.804  0.00  0.00    +0.007 A 
ATOM     21  C   UNL     1      -2.423   0.622  25.600  0.00  0.00    +0.007 A 
ATOM     22  C   UNL     1      -1.317  -1.912  25.231  0.00  0.00    +0.027 A 
ATOM     23  C   UNL     1      -3.187  -0.393  25.026  0.00  0.00    +0.027 A 
ATOM     24  C   UNL     1      -2.634  -1.661  24.841  0.00  0.00    +0.088 A 
BRANCH  24   1
ATOM      1  S   UNL     1      -3.591  -2.935  24.126  0.00  0.00    -0.006 S 
ATOM      4  O   UNL     1      -4.056  -3.823  25.182  0.00  0.00    -0.170 OA
ATOM      5  O   UNL     1      -4.552  -2.320  23.222  0.00  0.00    -0.170 OA
ATOM     25  C   UNL     1      -2.432  -3.860  23.145  0.00  0.00    +0.200 C 
ENDBRANCH  24   1
ENDBRANCH  18  19
ENDBRANCH   6  18
TORSDOF 6
ENDMDL
